#------------------------------------------------------------------------------
#$Date: 2016-03-23 22:33:44 +0200 (Wed, 23 Mar 2016) $
#$Revision: 179485 $
#$URL: svn://www.crystallography.net/cod/cif/4/33/82/4338275.cif $
#------------------------------------------------------------------------------
#
# This file is available in the Crystallography Open Database (COD),
# http://www.crystallography.net/
#
# All data on this site have been placed in the public domain by the
# contributors.
#
data_4338275
loop_
_publ_author_name
'Lin, Lang'
'Yu, Rongmin'
'Wu, Xiao-Yuan'
'Yang, Wen-Bin'
'Zhang, Jian'
'Guo, Xiang-Guang'
'Lin, Zu-Jin'
'Lu, Can-Zhong'
_publ_section_title
;
 Enantioselective inclusion of alcohols by solvent-controlled assembled
 flexible metal-organic frameworks.
;
_journal_issue                   10
_journal_name_full               'Inorganic chemistry'
_journal_page_first              4794
_journal_page_last               4796
_journal_paper_doi               10.1021/ic500436g
_journal_volume                  53
_journal_year                    2014
_chemical_absolute_configuration ad
_chemical_formula_moiety         'C19 H24 Cu2 N6 O6, C8 H10 O'
_chemical_formula_sum            'C27 H34 Cu2 N6 O7'
_chemical_formula_weight         681.68
_chemical_name_systematic
;
 ?
;
_space_group_crystal_system      orthorhombic
_space_group_IT_number           19
_space_group_name_Hall           'P 2ac 2ab'
_space_group_name_H-M_alt        'P 21 21 21'
_symmetry_space_group_name_Hall  'P 2ac 2ab'
_symmetry_space_group_name_H-M   'P 21 21 21'
_atom_sites_solution_hydrogens   geom
_audit_creation_method           SHELXL-2013
_cell_angle_alpha                90
_cell_angle_beta                 90
_cell_angle_gamma                90
_cell_formula_units_Z            4
_cell_length_a                   13.014(3)
_cell_length_b                   14.394(3)
_cell_length_c                   16.306(3)
_cell_measurement_reflns_used    9285
_cell_measurement_temperature    293(2)
_cell_measurement_theta_max      27.4855
_cell_measurement_theta_min      2.0020
_cell_volume                     3054.5(11)
_computing_cell_refinement       'CrystalClear (Rigaku Inc., 2007)'
_computing_data_collection       'CrystalClear (Rigaku Inc., 2007)'
_computing_data_reduction        'CrystalClear (Rigaku Inc., 2007)'
_computing_molecular_graphics    DIAMOND
_computing_publication_material  'SHELXL-2013 (Sheldrick, 2013)'
_computing_structure_refinement  'SHELXL-2013 (Sheldrick, 2013)'
_computing_structure_solution    'SHELXL-2013 (Sheldrick, 2013)'
_diffrn_ambient_temperature      293(2)
_diffrn_detector_area_resol_mean 28.5714
_diffrn_measured_fraction_theta_full 0.999
_diffrn_measured_fraction_theta_max 1.000
_diffrn_measurement_method       CCD_Profile_fitting
_diffrn_radiation_type           MoK\a
_diffrn_radiation_wavelength     0.71073
_diffrn_reflns_av_R_equivalents  0.0570
_diffrn_reflns_av_unetI/netI     0.0626
_diffrn_reflns_Laue_measured_fraction_full 0.999
_diffrn_reflns_Laue_measured_fraction_max 1.000
_diffrn_reflns_limit_h_max       16
_diffrn_reflns_limit_h_min       -15
_diffrn_reflns_limit_k_max       18
_diffrn_reflns_limit_k_min       -18
_diffrn_reflns_limit_l_max       17
_diffrn_reflns_limit_l_min       -21
_diffrn_reflns_number            25990
_diffrn_reflns_point_group_measured_fraction_full 0.999
_diffrn_reflns_point_group_measured_fraction_max 0.999
_diffrn_reflns_theta_full        25.242
_diffrn_reflns_theta_max         27.478
_diffrn_reflns_theta_min         2.002
_exptl_absorpt_coefficient_mu    1.445
_exptl_absorpt_correction_T_max  0.749
_exptl_absorpt_correction_T_min  0.714
_exptl_absorpt_correction_type   multi-scan
_exptl_crystal_colour            green
_exptl_crystal_density_diffrn    1.482
_exptl_crystal_description       block
_exptl_crystal_F_000             1408
_exptl_crystal_size_max          0.300
_exptl_crystal_size_mid          0.200
_exptl_crystal_size_min          0.200
_refine_diff_density_max         0.948
_refine_diff_density_min         -0.849
_refine_diff_density_rms         0.293
_refine_ls_abs_structure_details
;
 Flack x determined using 2308 quotients [(I+)-(I-)]/[(I+)+(I-)]
 (Parsons and Flack (2004), Acta Cryst. A60, s61).
;
_refine_ls_abs_structure_Flack   0.014(9)
_refine_ls_extinction_coef       0.028(3)
_refine_ls_extinction_expression Fc^*^=kFc[1+0.001xFc^2^\l^3^/sin(2\q)]^-1/4^
_refine_ls_extinction_method     SHELXL
_refine_ls_goodness_of_fit_ref   1.019
_refine_ls_hydrogen_treatment    mixed
_refine_ls_matrix_type           full
_refine_ls_number_parameters     358
_refine_ls_number_reflns         6982
_refine_ls_number_restraints     0
_refine_ls_restrained_S_all      1.019
_refine_ls_R_factor_all          0.0740
_refine_ls_R_factor_gt           0.0641
_refine_ls_shift/su_max          0.001
_refine_ls_shift/su_mean         0.000
_refine_ls_structure_factor_coef Fsqd
_refine_ls_weighting_details
;
 w=1/[\s^2^(Fo^2^)+(0.1292P)^2^]
 where P=(Fo^2^+2Fc^2^)/3
;
_refine_ls_weighting_scheme      calc
_refine_ls_wR_factor_gt          0.1786
_refine_ls_wR_factor_ref         0.1936
_reflns_Friedel_coverage         0.791
_reflns_Friedel_fraction_full    0.999
_reflns_Friedel_fraction_max     0.998
_reflns_number_gt                6452
_reflns_number_total             6982
_reflns_threshold_expression     'I > 2\s(I)'
_cod_data_source_file            ic500436g_si_001.cif
_cod_data_source_block           L-3-1-PEA
_cod_depositor_comments
'Adding full bibliography for 4338272--4338281.cif.'
_cod_original_cell_volume        3054.6(11)
_cod_database_code               4338275
#BEGIN Tags that were not found in dictionaries:
_shelx_space_group_comment
;
The symmetry employed for this shelxl refinement is uniquely defined
by the following loop, which should always be used as a source of
symmetry information in preference to the above space-group names.
They are only intended as comments.
;
_shelx_estimated_absorpt_t_min   0.671
_shelx_estimated_absorpt_t_max   0.761
_shelxl_version_number           2013-2
_shelx_res_file
;
TITL a in P2(1)2(1)2(1)
CELL 0.71073 13.0144 14.3941 16.3058 90.000 90.000 90.000
ZERR 4.0000 0.0028 0.0031 0.0031 0.000 0.000 0.000
LATT -1
SYMM 0.5-X, -Y, 0.5+Z
SYMM 0.5+X, 0.5-Y, -Z
SYMM -X, 0.5+Y, 0.5-Z
SFAC C H N O CU
UNIT 108 136 24 28 8

FMAP 2
BOND
htab
htab O7 O3
conf
PLAN 10
ACTA
size 0.2 0.2 0.3
L.S. 30
WGHT    0.129200
EXTI    0.027528
FVAR       0.33113
CU1   5    1.060068    0.037012    0.914139    11.00000    0.04173    0.03142 =
         0.03027    0.00106   -0.00008    0.00876
CU2   5    0.790179    0.294356    0.839526    11.00000    0.03996    0.02988 =
         0.03225   -0.00102   -0.00476    0.00603
O1    4    1.114030   -0.051607    0.829766    11.00000    0.05215    0.03062 =
         0.03778   -0.00069   -0.00150    0.01276
O2    4    1.120231   -0.078634    0.695548    11.00000    0.05968    0.04647 =
         0.03918   -0.01336    0.00014    0.01638
O3    4    0.979479    0.137962    0.973357    11.00000    0.05317    0.04014 =
         0.03013    0.00256    0.00062    0.01488
O4    4    0.874116    0.197226    0.780257    11.00000    0.05784    0.04561 =
         0.03048   -0.00609   -0.01063    0.02223
O5    4    0.713431    0.392962    1.061514    11.00000    0.05619    0.05617 =
         0.03473   -0.00698    0.00429    0.01616
O6    4    0.709436    0.357171    0.928349    11.00000    0.03934    0.04115 =
         0.03607   -0.00045   -0.00439    0.01067
N1    3    0.998884    0.091383    0.819241    11.00000    0.04900    0.03446 =
         0.03590   -0.00266   -0.00130    0.01418
N2    3    0.869381    0.256174    0.931882    11.00000    0.04140    0.04083 =
         0.02857   -0.00002   -0.00066    0.01178
N3    3    1.070035   -0.049498    1.009159    11.00000    0.04364    0.03405 =
         0.03455    0.00467   -0.00391   -0.00179
N4    3    1.102946   -0.020158    1.082172    11.00000    0.05027    0.03219 =
         0.03897   -0.00154    0.00014   -0.01038
AFIX  43
H4A   2    1.122460    0.035669    1.092683    11.00000   -1.20000
AFIX   0
N5    3    0.713833    0.340982    0.677210    11.00000    0.04261    0.04175 =
         0.03389    0.00700   -0.00742   -0.00236
AFIX  43
H5A   2    0.772652    0.364701    0.665403    11.00000   -1.20000
AFIX   0
N6    3    0.688402    0.307404    0.751734    11.00000    0.03647    0.04246 =
         0.03531    0.00602   -0.00576   -0.00968
C1    1    1.088919   -0.034256    0.754854    11.00000    0.04300    0.03617 =
         0.03888   -0.00452   -0.00056    0.00577
C2    1    1.018382    0.048843    0.740179    11.00000    0.07069    0.03872 =
         0.02605   -0.00226   -0.00415    0.02386
AFIX  13
H2A   2    0.953294    0.026942    0.716949    11.00000   -1.20000
AFIX   0
C3    1    1.069832    0.116335    0.679161    11.00000    0.13117    0.05803 =
         0.05409    0.02016    0.03233    0.03113
AFIX  33
H3A   2    1.025164    0.168267    0.669488    11.00000   -1.50000
H3B   2    1.082707    0.084696    0.628362    11.00000   -1.50000
H3C   2    1.133626    0.138024    0.701680    11.00000   -1.50000
AFIX   0
C4    1    0.931907    0.156350    0.831708    11.00000    0.04096    0.02844 =
         0.03431   -0.00456   -0.00277    0.00662
C5    1    0.927777    0.183872    0.921759    11.00000    0.03830    0.03539 =
         0.02974    0.00049   -0.00298    0.00925
C6    1    0.852165    0.305250    1.008477    11.00000    0.04565    0.04012 =
         0.03085    0.00069   -0.00055    0.01458
AFIX  13
H6A   2    0.850717    0.261465    1.054486    11.00000   -1.20000
AFIX   0
C7    1    0.937127    0.377012    1.020781    11.00000    0.05782    0.05979 =
         0.04796   -0.01022   -0.01289    0.00462
AFIX  33
H7A   2    1.002105    0.345916    1.025590    11.00000   -1.50000
H7B   2    0.923910    0.411856    1.069861    11.00000   -1.50000
H7C   2    0.938802    0.418397    0.974631    11.00000   -1.50000
AFIX   0
C8    1    0.749697    0.354596    1.000683    11.00000    0.04552    0.03305 =
         0.04066    0.00400   -0.00276   -0.00018
C9    1    1.135548   -0.072006    1.224405    11.00000    0.10707    0.08817 =
         0.05105    0.01572   -0.01936   -0.05830
AFIX  33
H9A   2    1.158004   -0.008716    1.229262    11.00000   -1.50000
H9B   2    1.191210   -0.112927    1.238102    11.00000   -1.50000
H9C   2    1.079152   -0.082694    1.261163    11.00000   -1.50000
AFIX   0
C10   1    1.101417   -0.090357    1.137499    11.00000    0.05041    0.04857 =
         0.03788    0.01306    0.00003   -0.01101
C11   1    1.063220   -0.167018    1.098813    11.00000    0.03757    0.03482 =
         0.03810    0.01028    0.00379   -0.00196
C12   1    1.044701   -0.138445    1.018151    11.00000    0.04483    0.03073 =
         0.04022    0.00018    0.00238   -0.00117
C13   1    1.002557   -0.192208    0.950324    11.00000    0.10368    0.05328 =
         0.05145    0.00779   -0.00802   -0.02210
AFIX  33
H13A  2    0.999397   -0.154012    0.902127    11.00000   -1.50000
H13B  2    0.934704   -0.213096    0.964231    11.00000   -1.50000
H13C  2    1.045799   -0.244940    0.939926    11.00000   -1.50000
AFIX   0
C14   1    0.538465    0.235443    0.817273    11.00000    0.08669    0.11283 =
         0.03711    0.01125    0.00073   -0.05806
AFIX  33
H14A  2    0.583622    0.235933    0.863824    11.00000   -1.50000
H14B  2    0.518231    0.172716    0.805472    11.00000   -1.50000
H14C  2    0.478592    0.272001    0.829151    11.00000   -1.50000
AFIX   0
C15   1    0.592619    0.275229    0.745026    11.00000    0.04343    0.04424 =
         0.03717    0.00017    0.00283   -0.00539
C16   1    0.556370    0.289444    0.663178    11.00000    0.04217    0.03150 =
         0.03552   -0.00424   -0.00215    0.00113
C17   1    0.450305    0.264365    0.631857    11.00000    0.03738    0.03766 =
         0.05287   -0.01127   -0.00777    0.00186
AFIX  23
H17A  2    0.401674    0.273195    0.676259    11.00000   -1.20000
H17B  2    0.432212    0.307842    0.588761    11.00000   -1.20000
AFIX   0
C18   1    0.636161    0.332790    0.623960    11.00000    0.04709    0.02879 =
         0.04024   -0.00051   -0.00464   -0.00532
C19   1    0.648687    0.369921    0.537520    11.00000    0.09008    0.07677 =
         0.04398    0.01094   -0.01480   -0.03451
AFIX  33
H19A  2    0.716210    0.395835    0.531316    11.00000   -1.50000
H19B  2    0.598189    0.417214    0.527578    11.00000   -1.50000
H19C  2    0.639593    0.320223    0.498934    11.00000   -1.50000
AFIX  66
C20   1    0.778136    0.001606    1.227059    11.00000    0.12599    0.08450 =
         0.16699   -0.00373   -0.03440   -0.01817
AFIX  43
H20A  2    0.812464   -0.052905    1.240728    11.00000   -1.20000
AFIX  65
C21   1    0.745654    0.061859    1.288423    11.00000    0.15357    0.20034 =
         0.10413   -0.02309   -0.02175   -0.08100
AFIX  43
H21A  2    0.758249    0.047663    1.343148    11.00000   -1.20000
AFIX  65
C22   1    0.694348    0.143331    1.267993    11.00000    0.16642
AFIX  43
H22A  2    0.672615    0.183645    1.309050    11.00000   -1.20000
AFIX  65
C23   1    0.675524    0.164550    1.186200    11.00000    0.14438    0.06907 =
         0.24471   -0.00712    0.01093    0.01104
AFIX  43
H23A  2    0.641197    0.219061    1.172531    11.00000   -1.20000
AFIX  65
C24   1    0.708006    0.104297    1.124835    11.00000    0.11039
AFIX  43
H24A  2    0.695411    0.118495    1.070110    11.00000   -1.20000
AFIX  65
C25   1    0.759312    0.022825    1.145264    11.00000    0.07393    0.09221 =
         0.10169    0.01837    0.00603   -0.00152
AFIX   0
C26   1    0.791040   -0.045823    1.078405    11.00000    0.10204    0.09306 =
         0.11321    0.00073    0.00169    0.03187
AFIX  13
H26A  2    0.852624   -0.079473    1.096118    11.00000   -1.20000
AFIX   0
C27   1    0.705614   -0.114768    1.061340    11.00000    0.11402    0.09599 =
         0.21027   -0.03194    0.01961    0.00465
AFIX  33
H27A  2    0.727222   -0.157292    1.019391    11.00000   -1.50000
H27B  2    0.645443   -0.082050    1.043293    11.00000   -1.50000
H27D  2    0.690082   -0.148621    1.110528    11.00000   -1.50000
AFIX   0
O7    4    0.812319    0.001651    1.003276    11.00000    0.12807    0.15717 =
         0.10526    0.00702    0.02722   -0.02939
AFIX  83
H7D   2    0.859915    0.038131    1.010262    11.00000   -1.50000

AFIX   0
HKLF 4

REM  a in P2(1)2(1)2(1)
REM R1 =  0.0641 for    6452 Fo > 4sig(Fo)  and  0.0740 for all    6982 data
REM    358 parameters refined using      0 restraints

END

WGHT      0.0792      0.0000

REM Instructions for potential hydrogen bonds
EQIV $1 x+1/2, -y+1/2, -z+2
HTAB N4 O6_$1
EQIV $2 -x+2, y+1/2, -z+3/2
HTAB N5 O1_$2
HTAB C13 O1
HTAB C14 O6
HTAB O7 O3

REM Highest difference peak  0.948,  deepest hole -0.849,  1-sigma level  0.293
Q1    1   0.7131  0.1010  1.1641  11.00000  0.05    0.85
Q2    1   0.7246  0.0226  1.1670  11.00000  0.05    0.79
Q3    1   0.7878  0.1040  1.2337  11.00000  0.05    0.77
Q4    1   0.7691  0.0590  1.2248  11.00000  0.05    0.77
Q5    1   0.7392  0.0845  1.3090  11.00000  0.05    0.77
Q6    1   0.8242  0.1071  1.4114  11.00000  0.05    0.76
Q7    1   0.7174  0.0355  1.1010  11.00000  0.05    0.75
Q8    1   0.7179  0.0323  1.0746  11.00000  0.05    0.75
Q9    1   0.4464  0.1260  0.8235  11.00000  0.05    0.75
Q10   1   0.7911  0.1143  1.3197  11.00000  0.05    0.74
;
_shelx_res_checksum              30848
_shelx_hkl_file
;
   0   0   2   -0.45    0.28
   0   0   2   -1.37    0.72
   0   0   2    1.59    0.82
   0   0   3    0.55    0.37
   0   0  -3    1.41    0.75
   0   0  -3   -1.62    1.89
   0   0   3    2.43    1.79
   0   0   3    1.35    1.70
   0   0   4   21.78    4.62
   0   0  -4   17.82    2.28
   0   0  -4   28.27    6.20
   0   0   4   19.32    4.02
   0   0  -4   25.70    6.28
   0   0   4   22.64    5.28
   0   0   5    2.20    1.85
   0   0  -5    4.90    2.86
   0   0   5    1.87    1.62
   0   0  -5    6.53    2.15
   0   0   5   -0.80    3.46
   0   0   6   81.61    5.79
   0   0   6   84.37    5.27
   0   0  -6   81.10    7.58
   0   0   6   77.90    6.07
   0   0  -6   96.68   18.27
   0   0   7   -0.69    0.99
   0   0   7    2.54    1.28
   0   0  -7   -1.67    3.36
   0   0   7    1.40    1.56
   0   0  -7    1.85    1.98
   0   0   8  427.89   20.46
   0   0   8  427.08   20.61
   0   0  -8  426.98   21.69
   0   0  -8  417.46   21.91
   0   0   9    1.07    1.03
   0   0   9    2.84    1.42
   0   0  -9    3.43    2.09
   0   0  -9    6.88    3.66
   0   0  10   22.88    3.24
   0   0  10   27.26    4.28
   0   0 -10   26.61    7.06
   0   0 -10   23.67    5.67
   0   0  11   -0.14    0.73
   0   0  11    0.29    0.83
   0   0 -11    5.10    4.02
   0   0 -11    1.75    3.26
   0   0  12 2637.00   78.23
   0   0  12 2696.63    9.50
   0   0 -12 2764.22   38.30
   0   0 -12 2611.49   82.61
   0   0 -13    3.91    4.19
   0   0 -13   12.38    3.34
   0   0 -14   13.97    4.80
   0   0 -14    7.15    4.73
   0   0 -15    2.94    3.34
   0   0 -15   -0.23    5.23
   0   0 -16   65.66   16.18
   0   0 -16   73.40   13.98
   0   0 -17    3.55    3.86
   0   0 -17   -0.28    5.63
   0   0 -18   -0.84    2.95
   0   0 -18   12.91    6.63
   0   0 -19    3.29    3.14
   0   0 -19   11.36    5.76
   0   0 -20   23.36    6.07
   0   0 -21   12.07    4.87
   0   1   2   19.72    4.09
   0  -1   2   35.27    5.29
   0  -1  -2   40.01    3.85
   0   1   2   27.63    4.72
   0  -1   2   38.38    6.16
   0   1   2   41.07    6.97
   0   1  -3  151.80    8.81
   0  -1   3  161.37    8.99
   0   1   3  158.84    9.03
   0  -1  -3  154.13    8.76
   0   1  -3  151.03    9.20
   0  -1   3  148.55    8.75
   0  -1  -3  155.52    9.24
   0   1   3  139.63    8.31
   0  -1   3  151.13    8.86
   0  -1  -3  157.65    9.44
   0   1   3  130.35    7.90
   0   1  -4  594.70    8.46
   0  -1   4  592.03    8.44
   0   1   4  633.54    9.89
   0  -1  -4  618.91    9.38
   0   1  -4  618.38   11.08
   0  -1   4  586.75   13.51
   0  -1  -4  614.79   11.09
   0   1   4  612.42   10.88
   0  -1   4  588.76   10.54
   0  -1  -4  594.34   11.62
   0   1   4  569.18   15.21
   0  -1   5  270.36   14.85
   0   1   5  302.10    5.99
   0  -1  -5  291.04    5.77
   0   1  -5  290.88    7.66
   0  -1   5  281.65   10.48
   0  -1  -5  287.38    7.29
   0   1   5  265.21   15.30
   0  -1   5  276.68   16.38
   0  -1  -5  256.31   15.43
   0   1   5  277.77   10.89
   0  -1   6   86.97    5.42
   0   1   6  100.54    6.19
   0  -1  -6   96.31    6.14
   0  -1   6   93.79    7.99
   0   1  -6   94.32    6.86
   0  -1   6  103.46   16.20
   0  -1  -6  110.76   16.08
   0   1   6   88.83    6.62
   0   1  -6  104.06   14.14
   0  -1  -6   99.18   11.85
   0  -1   7   13.98    3.61
   0   1   7   16.33    4.00
   0  -1  -7   15.36    3.52
   0  -1   7   13.79    4.23
   0   1  -7   22.47    5.33
   0  -1  -7   16.98    4.46
   0  -1   7   12.13    3.16
   0   1   7   15.57    3.32
   0   1  -7   11.77    2.80
   0  -1  -7   19.36    4.07
   0  -1   8   56.88    5.65
   0   1   8   63.64    3.28
   0  -1   8   65.63    3.30
   0  -1  -8   52.36    7.01
   0   1  -8   65.48   12.85
   0  -1  -8   68.31    9.17
   0   1  -8   58.56   13.61
   0  -1  -8   81.98   16.65
   0  -1   9  477.37   16.16
   0   1   9  509.25   18.11
   0  -1   9  499.32   17.05
   0  -1  -9  469.84   16.16
   0   1  -9  501.89   19.17
   0  -1  -9  511.17   22.41
   0   1  -9  486.87   19.75
   0  -1  -9  514.74   20.93
   0   1  10  264.55   12.89
   0  -1  10  289.08   13.78
   0   1  10  307.11   15.17
   0  -1  10  294.33   14.52
   0   1 -10  302.41   16.64
   0  -1 -10  289.31   15.94
   0   1 -10  281.11   16.19
   0  -1 -10  292.06   16.73
   0   1  11  169.94    6.44
   0  -1  11  167.14    7.66
   0   1  11  188.45    7.04
   0  -1  11  173.09    6.34
   0   1 -11  176.17   12.93
   0  -1 -11  176.63    9.73
   0   1 -11  197.15   29.38
   0  -1 -11  189.95   26.97
   0   1  12   75.42    3.98
   0  -1  12   69.27    2.17
   0   1  12   74.65    6.31
   0  -1  12   72.00    5.46
   0   1 -12   63.91   20.02
   0  -1 -12   90.62   19.90
   0   1 -12   91.07   20.31
   0  -1 -12   70.12   14.66
   0   1  13  406.71   13.37
   0   1  13  432.68   14.21
   0   1 -13  435.88   18.42
   0  -1 -13  432.38   18.50
   0   1 -13  425.91   19.83
   0  -1 -13  412.72   20.16
   0   1 -14   53.36    8.94
   0  -1 -14   47.63   14.65
   0   1 -14   59.28   19.45
   0  -1 -14   53.15   10.93
   0   1 -15    8.61    5.11
   0  -1 -15    7.08    3.27
   0   1 -15   13.34    5.27
   0  -1 -15    8.82    3.44
   0   1 -16    3.83    2.75
   0  -1 -16    5.01    1.70
   0   1 -16    6.79    2.78
   0  -1 -16    3.90    3.96
   0   1 -17   13.84    6.94
   0  -1 -17   10.63    5.73
   0   1 -17   19.15    7.89
   0  -1 -17   13.68    6.93
   0   1 -18    3.50    5.14
   0  -1 -18    2.07    1.76
   0   1 -18    9.48    4.58
   0  -1 -18    7.30    3.90
   0   1 -19   12.15    6.31
   0  -1 -19   18.23    4.92
   0   1 -19   14.97    5.60
   0  -1 -19   31.45    7.20
   0   1 -20   48.41   14.58
   0   1 -21   23.46   18.33
   0  -1 -21   31.15   10.76
   0   2   0    2.50    1.85
   0  -2   0    2.29    1.35
   0  -2   0    1.76    1.37
   0  -2   1  185.58   10.48
   0   2   1  177.06   10.25
   0  -2  -1  186.15   10.58
   0  -2   1  176.27   10.03
   0   2  -2  463.16    7.60
   0  -2   2  434.12    7.06
   0  -2  -2  440.36    7.50
   0  -2   2  442.89    7.57
   0  -2  -2  452.98    7.99
   0  -2  -2  438.38    9.59
   0   2   2  425.61    7.43
   0   2  -3 1018.91   14.24
   0  -2   3  959.99   13.27
   0   2   3 1012.90   14.44
   0  -2  -3  990.31   14.26
   0  -2   3  979.21   14.54
   0  -2  -3 1014.52   15.33
   0   2   3  967.30   14.13
   0  -2   3  963.88   14.41
   0  -2  -3  990.19   15.82
   0   2   3  981.67   15.66
   0   2  -4  138.47    9.37
   0  -2   4  132.78    7.85
   0   2   4  147.91    9.08
   0  -2  -4  138.80    8.57
   0   2  -4  137.64    9.03
   0  -2   4  128.81    8.21
   0  -2  -4  146.99    9.74
   0   2   4  134.46    8.59
   0  -2   4  128.10    8.62
   0  -2  -4  151.96   10.37
   0   2   4  139.34    9.59
   0   2  -5 1200.33   16.13
   0  -2   5 1190.54   15.83
   0   2   5 1242.11   17.21
   0  -2  -5 1234.89   17.14
   0   2  -5 1227.13   18.60
   0  -2   5 1215.49   18.18
   0  -2  -5 1230.79   21.10
   0   2   5 1211.54   17.92
   0  -2   5 1173.34   17.82
   0  -2  -5 1179.31   23.58
   0   2  -6 1815.42   50.61
   0  -2   6 1752.15   48.96
   0   2   6 1870.27   52.45
   0  -2  -6 1837.90   52.10
   0   2  -6 1814.13   51.89
   0  -2  -6 1821.18   52.06
   0   2   6 1814.90   51.72
   0  -2  -6 1736.14   50.16
   0   2  -7   92.16    4.35
   0  -2   7   78.62    6.85
   0   2   7   87.72   10.42
   0  -2  -7   91.22    4.80
   0   2  -7   84.99   10.43
   0  -2  -7   87.25    5.67
   0   2   7   80.93    5.14
   0  -2  -7   95.57   21.44
   0  -2   8    1.13    1.20
   0   2   8    3.67    2.50
   0  -2  -8    6.52    2.13
   0  -2   8    2.17    1.37
   0   2  -8    4.44    4.16
   0  -2  -8   -0.38    3.78
   0  -2  -8    1.72    3.07
   0  -2   9  102.91    8.64
   0   2   9  119.50    5.27
   0  -2  -9  110.99   10.42
   0  -2   9  113.86    4.53
   0   2  -9  109.72   16.47
   0  -2  -9  115.05   16.86
   0   2  -9  107.32   16.07
   0  -2  -9  113.32   24.90
   0  -2  10  865.95   31.27
   0   2  10  908.96   34.10
   0  -2  10  895.33   33.42
   0  -2 -10  854.76   31.25
   0   2 -10  904.76   38.42
   0  -2 -10  914.52   35.14
   0   2 -10  889.38   35.35
   0  -2 -10  895.44   35.99
   0  -2  11  207.77    9.64
   0   2  11  212.66    8.14
   0  -2  11  213.88    8.92
   0  -2 -11  205.72    8.54
   0   2 -11  224.36   33.91
   0  -2 -11  240.27   11.54
   0   2 -11  223.66   35.50
   0  -2 -11  221.20   40.15
   0  -2  12   11.86    2.94
   0   2  12   16.25    4.55
   0  -2  12   15.84    4.15
   0  -2 -12   12.08    4.36
   0   2 -12   22.93    5.51
   0  -2 -12   14.73    3.24
   0   2 -12   23.98    8.39
   0  -2 -12   11.52    5.33
   0   2  13   22.40    5.23
   0   2  13   35.13    5.85
   0  -2  13   24.09    4.69
   0  -2  13   28.75    6.10
   0   2 -13   42.15    9.53
   0  -2 -13   37.31   10.89
   0   2 -13   28.57    8.11
   0  -2 -13   43.48    9.23
   0   2  14   12.45    3.68
   0   2 -14   12.25    3.81
   0  -2 -14   16.16    6.73
   0   2 -14   30.79    8.62
   0  -2 -14   12.84    5.72
   0   2 -15  109.45   22.22
   0  -2 -15  111.30   22.20
   0   2 -15  116.36   17.55
   0  -2 -15  112.43   24.08
   0   2 -16    3.92    3.41
   0  -2 -16    4.44    2.08
   0   2 -16    2.56   11.07
   0  -2 -16    8.00    6.10
   0   2 -17   41.50   14.04
   0  -2 -17   39.28   14.85
   0   2 -17   66.92   15.94
   0  -2 -17   49.99   11.07
   0   2 -18  159.27   22.26
   0  -2 -18  188.99    9.16
   0   2 -18  190.36   41.16
   0  -2 -18  198.07   29.72
   0   2 -19    3.41    3.33
   0  -2 -19    0.41    3.31
   0   2 -19    7.80    6.48
   0  -2 -19    2.95    3.80
   0   2 -20    4.38    2.97
   0   2 -20    0.48    4.46
   0  -2 -20   12.89    6.57
   0   2 -21   12.61    6.10
   0  -2 -21   20.17    6.12
   0   3   0    3.66    2.62
   0  -3   0    2.09    2.13
   0  -3   0    0.29    1.38
   0  -3   1    1.91    3.32
   0   3   1   13.00    5.31
   0  -3  -1    6.82    2.75
   0   3  -1    5.80    3.96
   0  -3   1    7.74    1.89
   0  -3   2  127.80    9.20
   0   3   2  166.88   21.45
   0  -3  -2  144.43   15.79
   0   3  -2  140.68   10.94
   0  -3   2  131.76    8.56
   0  -3  -2  139.28   11.21
   0   3  -3  528.92   13.76
   0  -3   3  499.87    9.00
   0   3   3  541.11   10.46
   0  -3  -3  510.13    9.58
   0  -3   3  512.32    9.83
   0  -3  -3  527.40   14.30
   0  -3  -3  528.35   10.58
   0   3  -4    1.52    2.93
   0  -3   4   -0.70    2.23
   0   3   4   -0.74    3.17
   0  -3  -4    1.99    3.47
   0  -3   4    3.84    4.31
   0  -3  -4   -1.02    2.69
   0  -3   4    2.19    1.93
   0  -3  -4    4.77    2.69
   0   3   4    2.69    3.38
   0   3  -5  968.21   14.60
   0  -3   5  925.42   13.81
   0   3   5  981.91   15.10
   0  -3  -5  942.06   14.67
   0  -3  -5 1003.08   16.86
   0   3   5  944.53   15.24
   0  -3  -5  949.62   16.90
   0   3  -6  656.47   20.50
   0  -3   6  621.81   18.51
   0   3   6  659.17   20.17
   0  -3  -6  624.19   19.09
   0   3  -6  669.17   21.37
   0  -3  -6  705.48   22.26
   0   3   6  627.01   19.67
   0  -3  -6  657.80   21.35
   0   3  -7  306.64   15.44
   0  -3   7  287.43   14.41
   0   3   7  289.45   15.92
   0  -3  -7  283.05   16.93
   0   3  -7  304.97   16.31
   0  -3  -7  303.04   17.25
   0  -3  -7  297.15   16.89
   0   3  -8   61.64   11.69
   0  -3   8   40.02    4.47
   0   3   8   52.08    9.82
   0  -3  -8   43.54    8.20
   0   3  -8   57.25   12.51
   0  -3  -8   42.36   11.14
   0  -3  -8   60.40   13.81
   0   3  -9   51.30    6.94
   0  -3   9   44.42    6.34
   0   3   9   49.57   10.11
   0   3  -9   58.45   13.00
   0  -3  -9   56.58   10.70
   0  -3  -9   63.03   13.64
   0  -3  10  775.33   28.44
   0   3  10  837.12   31.25
   0  -3 -10  761.94   28.54
   0  -3  10  807.72   29.84
   0   3 -10  848.34   33.60
   0  -3 -10  844.49   32.90
   0  -3 -10  856.24   34.90
   0  -3  11   83.02    3.26
   0   3  11   91.72   11.40
   0  -3 -11   70.13   10.24
   0  -3  11   98.43   11.24
   0   3 -11   95.65   17.29
   0  -3 -11  105.46   18.19
   0   3 -11  108.28   24.56
   0  -3 -11  112.39   20.78
   0   3  12    7.08    3.31
   0  -3  12    4.49    1.71
   0  -3  12    3.87    2.60
   0   3 -12    5.87    5.06
   0  -3 -12   -0.61    3.09
   0   3 -12    9.93    5.89
   0  -3 -12   11.85    6.41
   0   3  13   77.79   13.01
   0  -3  13   57.23    5.76
   0  -3  13   81.45    6.33
   0  -3 -13   59.71    5.89
   0   3 -13   89.15   17.81
   0  -3 -13  105.79   20.76
   0   3 -13   70.98   21.39
   0  -3 -13   83.11   14.93
   0   3  14  193.43    4.94
   0   3 -14  211.62    9.73
   0  -3 -14  204.93   31.93
   0   3 -14  176.05   34.20
   0  -3 -14  180.90   32.15
   0   3 -15   51.08   11.62
   0  -3 -15   47.34   15.07
   0   3 -15   64.28   15.82
   0  -3 -15   45.95   11.29
   0   3 -16    5.94    2.88
   0  -3 -16    4.57    1.72
   0   3 -16   12.61    7.18
   0  -3 -16   10.77    4.94
   0   3 -17   33.31    9.29
   0  -3 -17   28.98   10.69
   0   3 -17   37.00   11.36
   0  -3 -17   32.23    7.15
   0   3 -18   66.58   22.73
   0  -3 -18   63.54   14.70
   0   3 -18   77.23   17.74
   0  -3 -18   64.11   14.60
   0   3 -19   39.00   16.92
   0   3 -19   48.64   12.55
   0  -3 -19   42.01   10.00
   0   3 -20    5.91    2.93
   0   3 -20    6.15    5.46
   0  -3 -20    2.43    6.68
   0   4   0    8.51    3.65
   0  -4   0    7.32    2.81
   0  -4   0    8.78    3.63
   0   4   1 2514.67   33.48
   0  -4   1 2347.22   30.93
   0  -4  -1 2385.09   31.91
   0   4  -1 2483.04   32.74
   0  -4   2  490.42    9.87
   0   4   2  545.17   11.50
   0  -4  -2  491.39   10.22
   0  -4   2  498.75   10.17
   0   4  -3 1072.32   17.05
   0  -4   3 1009.11   15.94
   0   4   3 1056.05   16.97
   0  -4  -3 1026.26   16.35
   0   4  -3 1086.22   17.67
   0  -4  -3 1035.40   16.95
   0   4  -4  307.20    7.83
   0  -4   4  271.42   15.85
   0   4   4  294.64   13.60
   0  -4  -4  269.04   16.07
   0  -4  -4  290.82    9.53
   0  -4   4  276.11   16.16
   0  -4  -4  303.93    8.77
   0   4  -5    4.33    2.44
   0   4   5    3.76    2.36
   0  -4  -5    6.03    1.88
   0  -4  -5   13.08    4.03
   0  -4  -5    5.97    4.14
   0   4  -6  376.80   18.99
   0  -4   6  339.51   17.00
   0   4   6  393.09   20.15
   0  -4  -6  360.05   18.63
   0  -4  -6  391.85   20.65
   0  -4  -6  382.18   24.45
   0   4  -7   31.88    5.74
   0  -4   7   18.83    6.18
   0   4   7   30.88    5.95
   0  -4  -7   24.78    5.71
   0   4  -7   29.38    6.65
   0  -4  -7   33.28    6.86
   0  -4  -7   35.65    9.14
   0   4  -8   18.51    4.34
   0  -4   8   14.13    4.25
   0   4   8   16.32    4.51
   0   4  -8   25.75    6.64
   0  -4  -8   15.27    5.17
   0  -4  -8   16.12    4.23
   0   4  -9    7.03    2.91
   0  -4   9    1.53    1.18
   0   4   9    1.72    1.20
   0   4  -9    2.15    4.07
   0  -4  -9   -0.81    4.46
   0   4 -10   15.23    3.96
   0  -4  10   13.51    2.65
   0   4  10    5.19    2.37
   0   4 -10   21.93    6.21
   0  -4 -10   19.17    5.23
   0  -4 -10   35.79    6.42
   0   4 -11  954.23   30.27
   0   4  11  976.56   31.59
   0   4 -11  927.07   32.25
   0  -4 -11  961.01   32.75
   0  -4 -11  967.91   35.07
   0   4  12  473.43   17.54
   0  -4  12  420.66   15.14
   0  -4  12  463.58   16.71
   0   4 -12  477.24   20.32
   0  -4 -12  442.75   24.46
   0  -4 -12  493.15   23.34
   0   4  13  171.42   15.18
   0  -4  13  164.93   13.70
   0   4 -13  161.37   27.62
   0  -4 -13  168.88    9.49
   0  -4 -13  190.28   25.65
   0   4  14   21.34    6.96
   0  -4  14   18.67    6.90
   0   4 -14   38.33    8.18
   0  -4 -14   23.91    7.52
   0   4 -14   33.59    7.08
   0  -4 -14   17.93    8.38
   0   4 -15   51.78   17.99
   0  -4 -15   71.56   14.51
   0   4 -15   85.11   19.17
   0  -4 -15   70.73   15.55
   0   4 -16   66.79   20.74
   0  -4 -16   50.01   15.61
   0   4 -16   57.01    9.99
   0  -4 -16   50.70   12.62
   0   4 -17    6.29    4.52
   0  -4 -17    6.22    3.64
   0   4 -17   11.34    8.51
   0  -4 -17    5.42    3.94
   0   4 -18   10.29    3.80
   0  -4 -18    4.11    2.72
   0   4 -18    4.14    3.44
   0  -4 -18    8.55    2.95
   0   4 -19    9.31    2.75
   0  -4 -19   -2.48    5.20
   0   4 -20    3.21    2.61
   0  -4 -20    5.90    4.55
   0   5   0   -0.95    4.22
   0   5  -1   61.60   13.74
   0   5   1   72.60   17.54
   0   5   2    2.44    3.83
   0   5  -2    7.21    4.16
   0   5   3  240.92   13.59
   0   5  -3  233.36   13.17
   0  -5  -3  235.60   13.50
   0   5  -4  149.12    7.53
   0   5   4  175.57   20.29
   0   5  -4  159.22    9.84
   0  -5  -4  168.35   10.31
   0   5  -5  913.42   27.77
   0   5   5  876.03   31.47
   0   5  -5  921.53   28.63
   0  -5  -5  882.33   29.51
   0  -5  -5  879.64   30.73
   0   5  -6    1.99    3.04
   0   5   6    3.96    4.73
   0  -5  -6    3.79    2.72
   0  -5  -6    9.37    5.22
   0   5  -7  305.75   16.01
   0   5   7  262.46   14.53
   0  -5  -7  299.61   16.83
   0  -5  -7  261.17   15.50
   0   5  -8  884.93   31.98
   0   5   8  872.61   30.98
   0  -5  -8  879.16   32.10
   0  -5  -8  851.14   32.07
   0   5  -9   28.32    5.97
   0   5   9   30.16    8.65
   0   5  -9   34.86    7.57
   0  -5  -9   34.46   10.88
   0  -5  -9   22.44    6.67
   0   5 -10  101.32   14.87
   0   5  10  102.01   20.30
   0   5 -10  102.51   21.97
   0  -5 -10   95.59   20.54
   0  -5 -10  109.25   21.26
   0   5 -11  251.45   12.74
   0   5  11  231.34   10.63
   0   5 -11  207.27   11.57
   0  -5 -11  219.68   22.35
   0  -5 -11  242.45   34.57
   0   5 -12   23.33    7.59
   0   5  12   24.04    6.57
   0   5 -12   33.63    9.72
   0  -5 -12   26.30    7.55
   0  -5 -12   23.81    5.90
   0   5  13    3.45    1.36
   0  -5  13    2.03    1.92
   0   5 -13    5.80    3.08
   0  -5 -13    5.02    4.24
   0  -5 -13    7.57    6.34
   0   5  14   58.68    7.33
   0  -5  14   64.39    8.43
   0   5 -14   67.40   18.61
   0  -5 -14   50.68   14.65
   0  -5 -14   83.89   24.36
   0   5 -15    6.39    3.25
   0  -5 -15   11.93    5.59
   0  -5 -15   -0.16    5.82
   0   5 -16   44.22   11.85
   0  -5 -16   55.69   16.31
   0  -5 -16   49.84   13.46
   0   5 -17   58.67   16.19
   0  -5 -17   61.00   20.03
   0  -5 -17   75.56   24.33
   0   5 -18   22.02    8.50
   0  -5 -18   18.99    7.52
   0  -5 -18   20.13    9.27
   0   5 -19    6.18    4.39
   0  -5 -19   15.26    6.26
   0   5 -20   33.38   17.29
   0  -5 -20   41.07   12.85
   0   6   0  308.29   16.88
   0   6  -1  582.55   19.69
   0   6   1  576.62   19.77
   0   6  -2  232.87   13.41
   0   6   2  225.10   13.22
   0   6  -2  223.91   12.95
   0   6   3  454.23   25.73
   0   6  -3  490.11   17.14
   0   6  -4   21.93    4.69
   0   6   4   15.08    3.75
   0   6  -4   20.45    5.65
   0   6  -5 1625.10   47.85
   0   6   5 1561.47   46.36
   0   6  -5 1493.86   44.68
   0  -6  -5 1552.33   46.29
   0  -6  -5 1536.71   52.34
   0   6  -6   30.02    8.35
   0   6   6   29.99    7.10
   0   6  -6   31.36    8.12
   0  -6  -6   36.74    8.54
   0  -6  -6   34.35    7.33
   0   6  -7 1681.46   18.40
   0   6   7 1663.70   20.38
   0  -6  -7 1620.33   55.75
   0  -6  -7 1555.75   56.98
   0   6  -8   75.80   15.19
   0   6   8   82.40   11.25
   0  -6  -8   84.52   19.23
   0  -6  -8   84.39   14.65
   0   6  -9 1173.93   37.98
   0   6   9 1229.05   40.40
   0  -6  -9 1200.05   40.26
   0  -6  -9 1178.41   46.34
   0   6 -10   29.32    8.77
   0   6  10   39.44    9.06
   0   6 -10   28.50    7.15
   0  -6 -10   31.08    7.49
   0  -6 -10   43.03   13.11
   0   6 -11  196.42    9.56
   0   6  11  201.26   20.96
   0   6 -11  189.01   12.20
   0  -6 -11  203.45   12.85
   0  -6 -11  187.92   24.51
   0   6 -12  128.42    6.63
   0   6  12  117.92   14.55
   0   6 -12  116.78   30.63
   0  -6 -12  113.45   30.07
   0  -6 -12  107.70   27.13
   0   6 -13   22.49    6.19
   0   6  13   18.15    5.02
   0   6 -13   24.88    6.93
   0  -6 -13   22.04    4.65
   0  -6 -13   34.54    9.28
   0   6  14    5.28    2.10
   0  -6  14    6.06    2.37
   0   6 -14    5.37    4.80
   0  -6 -14    3.20    5.92
   0  -6 -14    7.63    4.98
   0   6 -15  114.88   28.71
   0  -6 -15  117.98   20.59
   0  -6 -15  111.96   22.61
   0   6 -16   40.86    9.12
   0  -6 -16   27.79   12.04
   0  -6 -16   34.86    8.24
   0   6 -17   74.77   19.93
   0  -6 -17   65.55   21.95
   0  -6 -17   64.76   21.12
   0   6 -18    9.51    3.89
   0  -6 -18    8.04    5.24
   0   6 -19   20.73    8.66
   0  -6 -19   27.85   11.98
   0  -6 -20    4.91    3.59
   0   7   0    6.59    3.96
   0   7  -1   75.54   12.89
   0   7   1   66.33   12.78
   0   7  -2   86.99   16.21
   0   7   2   82.73   16.50
   0   7   3  128.81   10.95
   0   7  -3  118.12    8.26
   0   7   4  356.82   19.63
   0   7  -4  319.23   17.76
   0  -7  -4  366.93   10.96
   0   7  -5  220.79   13.34
   0   7   5  213.97   18.81
   0   7  -5  213.91   13.16
   0  -7  -5  223.90   15.87
   0  -7  -5  254.92   28.24
   0   7  -6   26.77    5.93
   0   7   6   26.59    6.53
   0   7  -6    9.77    3.40
   0  -7  -6   20.01    6.40
   0  -7  -6   27.07    6.11
   0   7  -7    6.93    4.63
   0   7   7    2.64    5.84
   0   7  -7   18.15    6.08
   0  -7  -7   11.33    3.97
   0  -7  -7    9.30    4.10
   0   7  -8  557.00   20.61
   0   7   8  591.96   22.49
   0   7  -8  516.19   20.66
   0  -7  -8  549.75   22.01
   0  -7  -8  628.95   25.11
   0   7   9    1.94    2.97
   0  -7  -9    7.76    4.29
   0  -7  -9    4.28    4.73
   0   7 -10    6.63    8.33
   0   7  10    3.92    3.53
   0  -7 -10   -1.23    6.45
   0  -7 -10    0.45    5.62
   0   7 -11   79.33   23.24
   0   7  11   89.82   11.35
   0  -7 -11   79.30   21.35
   0  -7 -11   79.78   12.34
   0   7 -12    2.20    1.99
   0   7  12    5.29    2.22
   0   7 -12    4.04    4.43
   0  -7 -12    3.81    4.17
   0  -7 -12   13.45    8.57
   0   7 -13  171.84   10.37
   0   7  13  190.85   18.32
   0   7 -13  184.34   32.80
   0  -7 -13  138.75   35.17
   0  -7 -13  169.03   22.72
   0   7 -14   50.76   14.27
   0   7  14   48.50   18.09
   0   7 -14   59.58   18.24
   0  -7 -14   45.73    9.83
   0  -7 -14   53.62   12.08
   0   7  15   13.16    4.43
   0   7 -15   13.64    5.15
   0  -7 -15   11.12    4.86
   0  -7 -15   17.68    5.50
   0   7 -16   16.43    5.67
   0  -7 -16   11.63    3.65
   0  -7 -16   14.55    5.67
   0   7 -17  124.44   31.39
   0  -7 -17   80.39   31.88
   0  -7 -17  102.52   28.32
   0   7 -18   20.57    8.18
   0  -7 -18   35.91   11.67
   0   7 -19    7.47    5.11
   0  -7 -19   15.18    9.14
   0   8   0  339.76   19.16
   0   8  -1  443.25   18.84
   0   8   1  411.11   17.39
   0   8  -2  650.01   25.58
   0   8   2  617.19   24.54
   0   8  -3  690.58   26.93
   0   8   3  659.02   25.87
   0   8   4   88.56   17.84
   0   8  -4   98.59   18.40
   0  -8  -4   92.06   16.14
   0   8  -5    3.43    5.30
   0   8   5    3.36    3.71
   0   8  -5   22.39   12.12
   0  -8  -5    8.98    4.07
   0   8  -6   29.19    8.16
   0   8   6   24.66    5.67
   0   8  -6   32.95    6.27
   0  -8  -6   30.39   13.24
   0  -8  -6   32.83    6.48
   0   8  -7   20.84    5.18
   0   8   7   27.25    5.98
   0   8  -7   20.69    5.64
   0  -8  -7   29.09    7.65
   0  -8  -7   22.70    6.68
   0   8  -8    6.23    3.24
   0   8   8   10.86    5.29
   0   8  -8   -0.54    3.50
   0  -8  -8    4.73    5.61
   0  -8  -8    6.23    5.55
   0   8  -9   57.16   13.70
   0   8   9   53.09    7.15
   0   8  -9   61.75    9.95
   0  -8  -9   67.74   20.83
   0  -8  -9   64.06   15.81
   0   8 -10    2.65    2.41
   0   8  10   -1.17    5.01
   0  -8 -10    8.55    7.86
   0  -8 -10    9.49    3.70
   0   8 -11  110.58   19.06
   0   8  11  122.99   12.15
   0  -8 -11  102.25   26.58
   0  -8 -11  114.01   17.81
   0   8 -12  172.02    7.69
   0   8  12  124.34   26.95
   0   8 -12  165.25   31.13
   0  -8 -12  148.66   28.09
   0  -8 -12  140.01   18.62
   0   8 -13  288.28   13.59
   0   8  13  281.82   32.44
   0   8 -13  238.36   11.82
   0  -8 -13  287.31   12.68
   0  -8 -13  263.45   24.91
   0   8 -14    3.33    2.51
   0   8  14    7.72    3.68
   0   8 -14   13.89    6.39
   0  -8 -14    5.66    4.45
   0  -8 -14    4.47    5.19
   0   8  15  219.76   24.42
   0   8 -15  259.11   12.39
   0  -8 -15  257.40   11.74
   0  -8 -15  280.89   24.16
   0   8 -16   41.55   11.52
   0  -8 -16   22.76    7.50
   0  -8 -16   49.64   13.41
   0   8 -17   17.64    5.22
   0  -8 -17   14.72    6.74
   0  -8 -17   16.43    8.62
   0   8 -18   11.67    4.34
   0  -8 -18   28.59    8.62
   0   8 -19   11.19    7.68
   0  -8 -19   14.28    4.96
   0   9   0    3.25    2.78
   0   9  -1   54.02   12.52
   0   9   1   61.87   16.51
   0   9  -2  519.85   23.77
   0   9   2  447.70   20.56
   0   9  -3  497.78   28.47
   0   9   3  444.41   21.94
   0   9   4   63.59   15.15
   0  -9  -4   50.77   10.30
   0   9   5  725.86   27.95
   0   9  -5  653.29   25.38
   0  -9  -5  782.75   59.81
   0   9   6   91.78   17.06
   0   9  -6   83.31   21.46
   0  -9  -6   91.75   17.38
   0  -9  -6   84.44   17.70
   0   9  -7  230.50   18.42
   0   9   7  252.53   14.27
   0   9  -7  246.84   14.19
   0  -9  -7  221.49   13.74
   0  -9  -7  227.83   16.09
   0   9  -8   15.76    5.42
   0   9   8   18.80    7.89
   0   9  -8   18.77    5.73
   0  -9  -8   18.48    7.71
   0  -9  -8   19.28    7.40
   0   9  -9   32.30    8.37
   0   9   9   48.60    7.70
   0   9  -9   52.79   12.28
   0  -9  -9   36.28   11.06
   0  -9  -9   25.35    8.39
   0   9 -10  226.28    9.65
   0   9  10  224.00   25.39
   0   9 -10  208.59   33.19
   0  -9 -10  200.78   36.26
   0  -9 -10  196.12   19.65
   0   9 -11   25.31    7.73
   0   9  11   31.67    8.61
   0  -9 -11   18.61    9.43
   0  -9 -11   31.55    7.28
   0   9 -12    2.98    2.51
   0   9  12    7.56    3.38
   0  -9 -12    2.57    2.71
   0  -9 -12   13.65    8.07
   0   9 -13    4.91    2.99
   0   9  13    7.19    4.41
   0  -9 -13    4.64    3.95
   0  -9 -13   10.79    3.46
   0   9 -14   63.98   15.37
   0   9  14   61.79   19.21
   0   9 -14   67.43   12.88
   0  -9 -14   67.46   19.28
   0  -9 -14   70.73   16.79
   0   9  15   17.09    7.47
   0   9 -15   31.92    7.25
   0  -9 -15    8.97    3.95
   0  -9 -15   33.96    9.06
   0   9 -16   10.96    4.39
   0  -9 -16    1.83    3.65
   0  -9 -16   12.56    6.65
   0   9 -17   20.09    8.93
   0  -9 -17   32.16    8.77
   0   9 -18    3.35    5.75
   0  -9 -18    4.29    5.27
   0  10   0   18.79    6.74
   0  10  -1    3.14    2.93
   0  10   1   12.10    6.30
   0  10  -2  306.57   15.19
   0  10   2  351.99   38.99
   0  10  -3  194.74   25.64
   0  10   3  195.91   45.61
   0  10  -4   33.86    7.52
   0  10   4   25.35    9.37
   0 -10  -4   15.96    5.50
   0  10   5  168.23   31.13
   0 -10  -5  184.37   13.70
   0  10   6  439.96   22.84
   0  10  -6  373.38   18.51
   0 -10  -6  409.24   20.55
   0 -10  -6  382.32   31.60
   0  10  -7   -1.34    5.81
   0  10   7   15.09    6.00
   0  10  -7    7.59    4.42
   0 -10  -7   13.62    6.10
   0 -10  -7    2.34    6.67
   0  10  -8    6.87    3.31
   0  10   8    1.73    4.79
   0  10  -8    9.60    7.08
   0 -10  -8    8.35    4.55
   0 -10  -8    9.81    4.12
   0  10  -9  211.42   30.44
   0  10   9  217.98   21.20
   0  10  -9  176.59   34.31
   0 -10  -9  141.43   21.96
   0 -10  -9  163.05   13.14
   0  10 -10  242.54   37.65
   0  10  10  238.86   16.74
   0  10 -10  262.16   36.62
   0 -10 -10  191.41   38.44
   0 -10 -10  229.37   45.30
   0  10 -11   52.22   17.25
   0  10  11   45.06   13.82
   0  10 -11   71.93   13.58
   0 -10 -11   51.22   18.81
   0 -10 -11   65.38   11.84
   0  10 -12    5.60    2.27
   0  10  12    8.42    2.85
   0  10 -12   -2.44    4.60
   0 -10 -12   -1.85    5.66
   0 -10 -12   19.51    4.88
   0  10 -13   15.26    6.60
   0  10  13    9.82    6.64
   0 -10 -13   15.26    6.40
   0 -10 -13   13.57    7.68
   0  10 -14    9.25    3.71
   0  10  14    1.32    3.26
   0 -10 -14   10.36    4.59
   0 -10 -14   13.08    7.27
   0  10  15    6.56    3.12
   0  10 -15   13.33    3.58
   0 -10 -15   14.13    5.44
   0 -10 -15   -1.82    5.68
   0  10 -16   10.33    3.03
   0 -10 -16   12.73    3.36
   0 -10 -16    8.03    6.52
   0  10 -17   15.61    6.52
   0 -10 -17   20.71    6.78
   0  11   0    4.70    3.95
   0  11  -1  241.36   14.31
   0  11   1  277.78   46.86
   0  11  -2  152.10   32.39
   0  11   2  120.99   24.83
   0  11  -3  327.68   47.84
   0  11   3  300.00   49.31
   0  11  -4    3.99    2.57
   0  11   4   -0.69    6.70
   0 -11  -4    6.25    5.80
   0  11   5   11.78    5.40
   0 -11  -5    6.42    3.71
   0  11   6   24.78    8.98
   0 -11  -6    3.36    3.20
   0 -11  -6   18.39    6.45
   0  11  -7   45.59   13.98
   0  11   7   61.81   13.36
   0  11  -7   71.15   17.58
   0 -11  -7   53.84   12.11
   0 -11  -7   56.95   15.67
   0  11  -8   39.80    9.79
   0  11   8   40.17   11.25
   0  11  -8   31.09    6.27
   0 -11  -8   45.39    9.78
   0 -11  -8   48.87    7.56
   0  11  -9    7.60    5.28
   0  11   9   15.56    5.96
   0  11  -9    6.48    3.60
   0 -11  -9   17.53    5.92
   0 -11  -9   11.56    5.98
   0  11 -10    5.50    5.06
   0  11  10   18.85    5.84
   0  11 -10   17.46    6.38
   0 -11 -10    9.83    8.50
   0 -11 -10   17.87    6.17
   0  11 -11   13.65    5.71
   0  11  11    7.80    4.18
   0  11 -11   12.80    4.77
   0 -11 -11    8.31    3.57
   0 -11 -11    9.24    5.49
   0  11 -12    9.65    2.74
   0  11  12   12.01    5.34
   0  11 -12    6.27    2.88
   0 -11 -12   11.23    4.37
   0 -11 -12   20.60    7.54
   0  11 -13   84.26   26.22
   0  11  13  109.91   15.98
   0  11 -13   97.21   25.94
   0 -11 -13   82.25   32.92
   0 -11 -13  114.01   35.63
   0  11 -14   31.20   10.56
   0  11  14   27.36   11.89
   0 -11 -14   29.95    8.49
   0 -11 -14   24.19   10.37
   0  11  15   30.69   13.06
   0 -11 -15   30.26   12.20
   0 -11 -15   47.08   12.27
   0  11 -16    6.61    3.58
   0 -11 -16    8.58    4.97
   0  11 -17   20.63    6.71
   0 -11 -17   14.07    4.94
   0  12   0  824.52   26.42
   0  12  -1   45.77    9.69
   0  12   1   31.83    9.16
   0  12  -2   12.90    7.23
   0  12   2   14.89    6.09
   0  12  -3   92.28   19.55
   0  12   3  103.93   21.12
   0  12  -4   17.15    7.34
   0  12   4   21.02    7.52
   0 -12  -4   17.21    6.41
   0  12  -5   11.43    5.43
   0  12   5   24.48    6.87
   0 -12  -5    9.26    4.77
   0  12   6    7.81    9.43
   0 -12  -6   -4.31    6.94
   0 -12  -6   -1.59    5.45
   0  12  -7   12.20    6.59
   0  12   7   11.09    4.02
   0 -12  -7    9.95    4.98
   0 -12  -7   16.44    8.31
   0  12  -8    7.82    3.55
   0  12   8    2.52    2.83
   0 -12  -8    7.54    7.33
   0 -12  -8    7.67    4.95
   0  12  -9  171.69   27.24
   0  12   9  186.47   27.78
   0  12  -9  167.40   39.41
   0 -12  -9  160.83   38.29
   0 -12  -9  163.82   36.46
   0  12 -10   28.40    6.75
   0  12  10   12.21    5.87
   0  12 -10   26.89    6.16
   0 -12 -10   29.23    6.53
   0 -12 -10   32.70    7.78
   0  12 -11    6.23    2.76
   0  12  11    9.49    3.48
   0  12 -11   17.85    6.96
   0 -12 -11   10.39    4.15
   0 -12 -11    4.36    4.31
   0  12 -12  339.77   13.42
   0  12  12  288.23   42.81
   0  12 -12  310.89   15.47
   0 -12 -12  272.31   46.00
   0 -12 -12  353.33   49.10
   0  12 -13    3.69    3.08
   0  12  13    1.40    2.03
   0  12 -13    6.13    5.37
   0 -12 -13    6.94    3.65
   0 -12 -13   10.73    8.91
   0  12 -14    6.10    2.87
   0  12  14    6.56    3.88
   0  12 -14    6.28    5.36
   0 -12 -14    4.56    3.31
   0 -12 -14   13.24    5.18
   0  12  15    4.92    4.35
   0 -12 -15    8.09    5.81
   0 -12 -15   15.21    7.54
   0 -12 -16   69.19   31.55
   0  13   0   -3.10    6.75
   0  13  -1   12.88    5.30
   0  13   1   26.92    8.42
   0  13  -2   65.80   15.34
   0  13   2   58.80   14.06
   0  13  -3   41.62    9.60
   0  13   3   53.74   12.23
   0  13  -4  357.73   58.57
   0  13   4  378.10   15.78
   0 -13  -4  400.29   45.71
   0  13  -5    5.90    5.20
   0  13   5    2.56    2.88
   0 -13  -5    5.81    4.82
   0  13   6   21.26    7.04
   0 -13  -6   24.12    8.00
   0 -13  -6   32.03   11.25
   0  13  -7   77.34   16.29
   0  13   7   86.36   22.27
   0 -13  -7   92.13   21.31
   0 -13  -7   82.97   26.96
   0  13  -8  266.39   14.19
   0  13   8  294.53   32.69
   0 -13  -8  327.66   17.19
   0 -13  -8  318.83   14.89
   0  13  -9   23.59    8.42
   0  13   9   17.11    7.38
   0 -13  -9    9.41    4.22
   0 -13  -9   11.60    4.44
   0  13 -10   12.61    5.09
   0  13  10   14.57    7.98
   0 -13 -10   16.55   10.07
   0 -13 -10   14.45    4.37
   0  13 -11   12.89    5.46
   0  13  11    6.44    4.63
   0 -13 -11    4.31    3.65
   0 -13 -11   10.06    5.57
   0  13 -12    3.79    2.80
   0  13  12    3.52    3.03
   0  13 -12   10.39    6.00
   0 -13 -12    8.08    4.41
   0 -13 -12    4.69    5.45
   0  13 -13   17.58    5.85
   0  13  13   18.90    6.40
   0  13 -13   13.68    9.45
   0 -13 -13    9.47    8.79
   0 -13 -13    9.72    4.10
   0  13  14    7.35    5.79
   0  13 -14    6.00    4.03
   0 -13 -14    9.43    6.08
   0 -13 -14    8.70    4.18
   0  13 -15   16.36    6.25
   0 -13 -15   11.16    5.76
   0  14   0   12.85    6.02
   0  14  -1   16.53    5.83
   0  14   1   30.80    7.83
   0  14  -2   71.67   26.24
   0  14   2   84.67   20.75
   0  14  -3   11.19    7.97
   0  14   3    7.60    4.95
   0 -14  -3   -6.81    6.00
   0  14  -4   34.60   12.86
   0  14   4   30.61    8.21
   0 -14  -4   24.70    6.91
   0  14  -5   92.52   19.43
   0  14   5  110.25   24.01
   0 -14  -5  114.48   32.35
   0  14   6  551.36   20.38
   0 -14  -6  512.90   20.83
   0 -14  -6  516.76   17.54
   0  14   7   54.00   19.15
   0 -14  -7   44.99   12.22
   0 -14  -7   36.07    7.32
   0  14  -8    8.82    4.73
   0  14   8    9.60    4.46
   0 -14  -8   14.42    5.13
   0 -14  -8    4.01    4.69
   0  14  -9   11.50    4.77
   0  14   9    5.98    4.65
   0 -14  -9   -0.33    4.52
   0 -14  -9   -1.09    6.42
   0  14 -10   40.94   11.91
   0  14  10   29.98   11.65
   0 -14 -10   35.56   16.89
   0 -14 -10   47.19   11.05
   0  14 -11   53.24   17.34
   0  14  11   70.58   28.33
   0 -14 -11   53.05   19.34
   0 -14 -11   62.53   23.66
   0  14 -12    8.11    3.84
   0  14  12    3.70    4.25
   0 -14 -12    6.70    4.10
   0 -14 -12   14.70    7.05
   0  14 -13    8.66    4.87
   0  14  13    4.06    4.33
   0 -14 -13   13.71    5.94
   0 -14 -13   18.21   10.41
   0  14  14    8.36    4.31
   0 -14 -14    0.01    4.94
   0 -14 -14    5.66    6.10
   0  15   0    6.13    5.78
   0  15  -1    8.03    4.21
   0  15   1   11.30    8.03
   0  15  -2  260.21   35.63
   0  15   2  236.25   40.07
   0  15  -3   26.81   11.51
   0  15   3   31.02   11.18
   0 -15  -3   32.84    9.16
   0  15  -4   11.45    8.12
   0  15   4   16.27    7.45
   0 -15  -4    0.43    6.44
   0  15  -5   80.11   19.77
   0  15   5   77.44   23.52
   0 -15  -5   69.85   21.23
   0  15  -6   23.81    6.46
   0  15   6   18.43    5.78
   0 -15  -6   11.80    8.10
   0 -15  -6    6.88    5.55
   0  15   7   54.64    7.78
   0 -15  -7   47.06   15.26
   0 -15  -7   37.58   13.44
   0  15  -8   -3.10    5.44
   0  15   8    6.54    4.25
   0 -15  -8    9.47    6.67
   0 -15  -8    4.72    4.58
   0  15  -9   16.91    5.96
   0  15   9   14.70    3.60
   0 -15  -9   16.14    9.27
   0 -15  -9   18.84    7.57
   0  15 -10   79.82   22.09
   0  15  10   79.19   25.70
   0 -15 -10   55.98   27.57
   0 -15 -10  101.98   23.94
   0  15 -11    7.20    4.18
   0  15  11    6.90    3.37
   0 -15 -11    3.33    8.99
   0 -15 -11    5.03    5.55
   0  15 -12    3.84    3.18
   0  15  12   -1.84    3.90
   0 -15 -12   13.74    5.06
   0 -15 -12   22.71   10.84
   0  16   0  100.12   20.74
   0  16  -1   50.16   15.53
   0  16   1   59.34   19.26
   0  16  -2   21.78   13.40
   0  16   2    4.98    3.36
   0  16  -3   23.83    6.34
   0  16   3   26.97    8.29
   0 -16  -3   20.08   12.71
   0  16  -4   63.87   13.29
   0  16   4   54.73   17.01
   0  16  -5   10.59    5.07
   0  16   5    6.16    4.70
   0 -16  -5    9.41    6.44
   0  16  -6    4.26    4.21
   0  16   6   11.58    5.72
   0 -16  -6    7.43    4.37
   0  16  -7    3.96    3.31
   0  16   7    6.39    4.77
   0 -16  -7    8.94    7.84
   0 -16  -7    6.40    4.71
   0  16  -8    6.54    3.67
   0  16   8    7.30    4.64
   0 -16  -8   11.80    5.28
   0 -16  -8   14.69    5.27
   0  16  -9   13.02    3.78
   0  16   9   15.68    7.94
   0 -16  -9   11.46    5.26
   0 -16  -9   10.70    6.58
   0  16 -10    4.64    2.80
   0  16  10    5.45    6.33
   0 -16 -10    5.45    4.90
   0 -16 -10    4.03    6.42
   0  17   0    1.85    5.51
   0  17  -1    5.59    4.35
   0  17   1    2.53    7.72
   0  17  -2    8.18    5.34
   0  17   2   14.92    5.74
   0  17  -3    7.60    5.37
   0  17   3    6.35    6.14
   0 -17  -3    4.58    3.02
   0  17  -4   41.72   18.01
   0  17   4   42.10   19.99
   0 -17  -4   30.13    9.96
   0  17  -5   21.31    6.62
   0  17   5   29.06    9.16
   0 -17  -5   15.98    9.08
   0  17  -6   14.78    3.56
   0  17   6   29.55   10.93
   0 -17  -6    8.80    5.35
   0  17  -7   12.28    5.66
   0  17   7   14.70    6.76
   0 -17  -7   14.96    7.33
   0 -17  -7    9.91    5.73
   0  17   8   68.79   29.85
   0 -17  -8   60.07   30.69
   0 -17  -8   64.62   18.20
   0  18   0   37.61   12.98
   0  18  -1   19.24    9.77
   0  18   1   15.63   10.84
   0  18  -2    8.20    6.21
   0  18   2    9.23    7.74
   0  18  -3   16.47    6.79
   0  18   3   15.04    7.81
   0 -18  -3   22.17    7.06
   0  18  -4   14.59    7.89
   0  18   4   20.62    7.06
   0 -18  -4    4.50    4.78
   0  18  -5   33.27   10.63
   0  18   5   33.79   16.74
   0 -18  -5   20.12   11.79
   1   0   1   -0.31    0.64
  -1   0  -1   -0.75    0.81
  -1   0   1    0.30    0.20
  -1   0   1   -0.20    0.85
  -1   0   1   -0.89    0.65
  -1   0  -1   -0.62    0.60
   1   0  -2   45.49    2.66
   1   0   2   42.17    3.08
   1   0  -2   43.64    2.61
  -1   0  -2   41.92    3.07
  -1   0  -2   43.73    2.69
  -1   0   2   47.65    6.06
   1   0  -2   42.94    4.01
  -1   0   2   47.40    4.79
   1   0   2   47.41    3.16
   1   0   3  131.14    9.23
  -1   0  -3  138.96    8.56
  -1   0  -3  145.09    8.16
   1   0   3  137.50    8.19
  -1   0   3  134.94    8.33
   1   0  -3  141.72    8.64
  -1   0   3  140.81    8.59
   1   0   3  138.59    8.39
   1   0   4 1715.89   24.19
  -1   0  -4 1715.37   22.13
   1   0   4 1724.40   21.69
  -1   0   4 1681.79   23.50
   1   0  -4 1685.81   24.78
   1   0   4 1691.09   23.31
   1   0   5  156.61   11.59
  -1   0  -5  165.90    9.85
  -1   0  -5  155.18   10.11
   1   0  -5  163.70   11.23
   1   0   5  148.13    8.85
  -1   0   5  139.85    9.11
   1   0  -5  157.93   15.88
  -1   0   5  152.53    9.95
   1   0   5  155.04   22.36
   1   0   6   10.47    2.99
  -1   0  -6   12.64    3.45
  -1   0  -6   14.23    4.25
   1   0  -6   14.90    5.20
   1   0   6   13.07    3.35
  -1   0   6   10.15    3.39
   1   0  -6   11.09    3.18
   1   0   7   61.23    4.40
   1   0   7   65.64    7.18
  -1   0  -7   63.56    8.74
   1   0  -7   78.95   15.70
   1   0   7   51.77    9.37
   1   0  -7   53.57   14.69
  -1   0  -7   80.99   16.52
   1   0   8   46.51    9.66
   1   0   8   56.08    7.66
  -1   0  -8   50.66    6.99
   1   0  -8   44.62    8.79
   1   0   8   42.41    6.57
   1   0  -8   54.24   13.08
  -1   0  -8   63.50   14.52
   1   0   9 1058.85   35.45
   1   0   9 1083.37   36.56
  -1   0  -9 1127.58   38.51
   1   0  -9 1093.44   38.38
   1   0  -9 1071.61   38.24
  -1   0  -9 1045.30   37.30
   1   0  10   26.86    5.65
   1   0  10   31.88    9.69
  -1   0 -10   29.77    5.11
   1   0 -10   31.32    9.47
   1   0 -10   36.49    7.91
  -1   0 -10   44.82   11.16
   1   0  11  262.47   11.00
   1   0  11  300.42   13.03
  -1   0 -11  318.40   15.78
   1   0 -11  336.74   16.39
   1   0 -11  290.78   14.88
  -1   0 -11  309.40   15.81
   1   0  12  125.95   11.24
   1   0  12  132.24    7.87
  -1   0 -12  147.04   22.87
   1   0 -12  154.13   29.01
   1   0 -12  121.10   28.67
  -1   0 -12  141.29   20.54
   1   0  13   70.87   10.83
   1   0  13   96.64   10.37
  -1   0 -13   96.57   17.95
   1   0 -13  107.53   20.30
   1   0 -13   96.72   21.51
  -1   0 -13  103.31   24.31
   1   0  14   85.25    5.56
  -1   0 -14   93.34   22.47
   1   0 -14   92.89   22.55
   1   0 -14  103.32   19.15
  -1   0 -14   86.14   20.65
  -1   0 -15   39.78   12.48
   1   0 -15   31.40    9.29
   1   0 -15   53.26   12.42
  -1   0 -15   49.87   11.88
  -1   0 -16    3.81    2.59
   1   0 -16    4.13    2.85
   1   0 -16   19.23    5.74
  -1   0 -16   10.40    3.90
  -1   0 -17    5.42    3.36
   1   0 -17   14.54    6.92
   1   0 -17    2.79    2.88
  -1   0 -17    5.08    2.71
  -1   0 -18   23.70    6.87
   1   0 -18   28.26    9.30
   1   0 -18   21.05    6.51
  -1   0 -18   24.23    8.71
   1   0 -19   12.94    4.99
   1   0 -19    6.08    3.54
  -1   0 -19   18.38    6.51
   1   0 -20   46.32   15.08
   1   0 -20   35.79   10.24
  -1   0 -20   57.93   11.37
   1   0 -21   19.97    8.09
  -1   0 -21   22.52    9.32
  -1   1   0    1.17    0.57
   1  -1   0   -1.80    0.93
  -1  -1   0   -2.35    1.06
   1   1   0   -0.36    0.54
  -1   1   1   -0.68    0.89
   1   1   1   -0.16    0.37
   1  -1  -1   -1.30    0.75
  -1   1  -2 2403.97   29.08
   1  -1   2 2406.88   29.09
  -1   1   2 2414.04   28.45
   1  -1  -2 2411.13   28.42
   1   1  -2 2394.22   28.11
  -1  -1   2 2393.00   28.16
   1   1   2 2400.62   29.31
  -1  -1  -2 2450.67   29.85
  -1   1  -2 2439.48   28.92
   1  -1   2 2393.91   28.42
  -1  -1   2 2354.17   29.56
  -1   1   2 2415.49   29.81
  -1  -1  -2 2392.31   27.65
  -1  -1   2 2348.40   28.77
  -1   1  -2 2401.14   28.51
   1  -1  -2 2342.13   28.48
   1  -1   2 2370.93   28.17
  -1   1   2 2348.79   28.53
  -1   1  -3   44.49   10.18
   1  -1   3   36.40    9.24
  -1   1   3   42.76    5.27
   1  -1  -3   38.85    4.42
   1   1  -3   33.92    3.84
  -1  -1   3   31.58    3.51
   1   1   3   42.16    6.83
  -1  -1  -3   38.47    5.20
  -1   1  -3   43.95    7.15
   1  -1   3   35.30    5.69
  -1  -1   3   36.18    6.15
  -1  -1  -3   34.45    2.83
  -1   1   3   39.54    7.04
   1   1   3   33.53    4.18
   1   1  -3   32.92    6.81
  -1  -1   3   35.48    6.77
  -1   1  -3   43.06    8.77
   1  -1  -3   38.52    5.56
   1  -1   3   37.75    7.95
  -1   1   3   37.74    5.31
   1   1   3   35.03    9.39
   1  -1   4   54.29    8.47
  -1   1   4   57.74    6.66
   1   1  -4   47.28    3.55
   1  -1  -4   51.92    5.19
  -1  -1   4   45.57    3.89
   1   1   4   58.90   13.03
  -1  -1  -4   50.78   10.73
   1  -1   4   56.58   13.25
  -1   1  -4   55.49    9.86
   1  -1   4   52.83    9.21
  -1  -1   4   53.40   10.27
  -1  -1  -4   51.95    7.38
   1  -1  -4   51.25   13.62
  -1   1   4   51.04    8.58
   1   1   4   45.73    3.77
   1   1  -4   58.09   10.80
  -1  -1   4   41.80    7.47
  -1   1  -4   62.47   12.06
   1  -1  -4   57.40   11.46
   1  -1   4   46.70    8.87
  -1   1   4   50.26   10.60
  -1  -1  -4   70.67   15.94
   1   1   4   46.68    8.01
   1  -1   5  844.27   13.90
   1   1  -5  812.11    9.92
  -1   1   5  857.09   11.00
  -1  -1   5  843.45   10.32
   1   1   5  891.26   13.92
  -1  -1  -5  815.44   12.54
   1  -1   5  847.13   13.08
   1  -1   5  838.32   12.70
  -1  -1   5  839.65   14.91
  -1  -1  -5  827.48   12.25
   1  -1  -5  860.74   16.84
  -1   1   5  801.47   13.99
   1   1   5  881.62   12.98
   1   1  -5  808.77   16.62
   1  -1  -5  845.30   15.14
   1  -1   5  820.98   14.18
  -1  -1  -5  816.72   17.15
   1  -1   6   16.62    3.70
  -1   1   6   22.94    3.58
  -1  -1   6   17.45    2.16
   1   1   6   26.14    5.72
   1  -1  -6   22.44    3.78
  -1  -1  -6   22.47    5.37
   1  -1   6   23.49    6.53
  -1  -1   6   20.01    2.29
  -1   1  -6   22.20    4.06
   1   1  -6   21.57    5.63
   1  -1   6   20.28    5.46
  -1  -1  -6   25.32    7.26
   1  -1  -6   23.52    6.13
  -1   1   6   19.14    3.74
   1   1   6   20.16    4.70
   1   1  -6   17.92    3.74
   1  -1  -6   19.47    3.94
  -1  -1  -6   32.03    8.35
   1  -1   7  677.45   19.98
  -1   1   7  684.08   19.21
   1   1   7  690.20   22.46
   1  -1  -7  691.02   19.44
   1  -1   7  672.76   20.71
  -1  -1  -7  669.10   19.99
  -1   1  -7  669.77   23.24
   1   1  -7  696.25   22.46
  -1  -1  -7  670.90   21.70
   1  -1   7  649.36   19.94
   1  -1  -7  672.18   21.78
   1   1   7  644.74   19.69
   1   1  -7  615.03   19.93
   1  -1  -7  680.87   22.32
  -1  -1  -7  691.09   22.36
   1  -1   8  157.77    8.42
  -1   1   8  156.14    7.71
   1   1   8  143.10   10.27
   1  -1   8  160.33    9.51
  -1  -1  -8  145.04    9.85
   1  -1  -8  158.99    7.99
  -1   1  -8  152.91    6.24
   1   1  -8  160.35   10.54
  -1  -1  -8  155.93   10.68
   1  -1   8  128.20   17.42
   1  -1  -8  136.93   13.77
   1   1   8  142.08    6.78
   1   1  -8  157.16   10.50
   1  -1  -8  149.50    9.06
  -1  -1  -8  157.49   10.73
  -1   1   9   32.86    1.76
   1  -1   9   29.61    6.26
  -1   1   9   34.31    2.66
   1  -1   9   35.39    4.88
  -1  -1  -9   25.54    7.14
  -1   1  -9   46.52   11.19
   1   1  -9   48.10   12.37
   1  -1  -9   50.83   12.38
   1   1   9   35.85   10.44
   1   1  -9   41.40    9.40
   1  -1  -9   48.70   11.17
  -1  -1  -9   46.04   10.08
   1  -1  10    3.63    2.21
   1   1  10   11.82    2.79
   1  -1  10    6.57    3.14
  -1  -1 -10    3.79    1.01
  -1   1 -10   10.35    4.10
   1   1 -10    5.02    3.78
  -1  -1 -10    6.32    2.07
   1  -1 -10    7.52    3.50
   1   1 -10    4.14    2.66
  -1   1 -10    6.46    5.01
   1  -1 -10   16.06    4.48
  -1  -1 -10    6.05    4.67
   1  -1  11 1029.47   37.42
   1   1  11 1083.83   39.65
   1  -1  11 1093.69   39.96
  -1   1 -11 1108.42   43.72
   1   1 -11 1121.95   44.30
  -1  -1 -11 1086.21   42.47
   1  -1 -11 1125.58   43.54
   1   1 -11 1042.03   41.56
  -1   1 -11 1047.91   41.57
   1  -1 -11  924.32   40.67
  -1  -1 -11 1112.74   44.11
   1  -1  12  219.33    8.76
   1   1  12  237.85    9.39
   1  -1  12  233.55    9.22
  -1   1 -12  230.59   10.61
   1   1 -12  254.95   12.77
  -1  -1 -12  248.78   11.44
   1  -1 -12  252.01   19.09
   1   1 -12  247.82   33.91
  -1   1 -12  238.41   13.34
   1  -1 -12  233.10   32.14
  -1  -1 -12  240.90   33.11
   1   1  13  268.50   14.12
   1  -1  13  284.48   14.64
   1   1  13  323.91    9.49
   1  -1  13  327.41    9.55
  -1   1 -13  323.46   12.20
   1   1 -13  309.45   13.38
  -1  -1 -13  303.17   13.92
   1  -1 -13  342.13   13.75
   1   1 -13  327.64   47.44
  -1   1 -13  317.34   13.62
   1  -1 -13  317.49   18.23
  -1  -1 -13  330.75   15.23
   1   1  14   75.91    6.87
   1  -1  14   96.26    6.21
  -1   1 -14   90.26   22.68
   1   1 -14   93.96   23.34
  -1  -1 -14   88.04   17.41
   1  -1 -14   91.97   20.92
   1   1 -14   96.63   16.50
  -1   1 -14   77.88   19.37
   1  -1 -14   87.46   14.64
  -1  -1 -14  112.09   20.72
  -1   1 -15   12.66    8.47
   1   1 -15   20.56    4.71
  -1  -1 -15   14.78    4.33
   1  -1 -15   29.23    7.45
   1   1 -15   13.80    6.85
  -1   1 -15   31.72   11.94
   1  -1 -15    8.13    4.24
  -1  -1 -15   23.41    7.15
  -1   1 -16   16.97    3.51
   1   1 -16    3.87    2.37
  -1  -1 -16    6.42    3.47
   1  -1 -16    7.62    2.56
   1   1 -16    5.12    2.81
  -1   1 -16   14.63    5.61
   1  -1 -16   14.47    5.88
  -1  -1 -16    4.05    3.57
  -1   1 -17  138.30    7.66
  -1  -1 -17  129.25   20.76
   1   1 -17  131.21   23.63
   1  -1 -17  108.70   32.28
   1   1 -17  145.78   34.16
  -1   1 -17  144.44   28.19
   1  -1 -17  134.09   22.67
  -1  -1 -17  147.36   27.16
  -1   1 -18    3.85    2.42
  -1  -1 -18    4.08    2.31
   1   1 -18    5.48    3.28
   1  -1 -18    3.64    3.11
   1   1 -18    6.08    7.65
  -1   1 -18    9.45    4.78
   1  -1 -18   12.69    4.75
  -1  -1 -18    3.21    2.89
   1   1 -19   37.17   14.11
   1  -1 -19   32.87   10.70
   1   1 -19   38.75    7.28
  -1   1 -19   53.28   12.12
   1  -1 -19   44.71   13.38
  -1  -1 -19   41.75    9.80
   1   1 -20    5.48    3.84
   1  -1 -20   -0.58    3.38
   1   1 -20    4.70    3.40
  -1   1 -20   -0.13    5.50
   1  -1 -20    3.67    6.09
  -1  -1 -20    5.91    2.52
   1   1 -21    8.95    4.88
  -1   1 -21    8.31    6.09
   1  -1 -21   15.44    7.20
  -1  -1 -21    7.66    4.38
  -1   2   0  184.94   11.46
   1  -2   0  153.52    9.10
  -1  -2   0  172.19    9.94
   1   2   0  173.77    9.95
  -1  -2   0  176.08    9.98
   1  -2   1 1445.66   18.84
  -1   2   1 1499.60   19.96
   1  -2  -1 1550.48   19.92
  -1  -2   1 1525.99   19.52
   1   2   1 1571.63   20.72
  -1  -2  -1 1485.10   19.64
   1   2   1 1575.82   19.72
  -1  -2  -1 1490.77   18.80
   1   2  -1 1482.50   19.38
  -1  -2   1 1540.76   19.84
   1  -2  -1 1582.93   19.50
   1  -2   2 2231.80   27.83
   1  -2  -2 2155.06   26.67
   1   2   2 2223.34   28.52
  -1  -2  -2 2252.39   28.48
   1  -2   2 2234.29   27.69
   1   2  -2 2264.20   28.73
  -1  -2   2 2149.95   27.21
  -1   2   2 2241.80   28.49
   1  -2   2 2223.65   26.63
   1  -2  -2 2136.58   26.67
  -1   2   2 2257.90   27.92
   1  -2   3  365.89    7.51
   1   2  -3  396.72   16.79
  -1  -2  -3  377.95    9.49
  -1   2  -4  150.10    9.32
   1  -2   4  115.39    7.19
  -1   2   4  121.16    9.16
   1   2  -4  115.79    8.34
   1  -2  -4  139.74    8.31
  -1  -2   4  135.51    9.16
   1   2   4  142.96    9.34
  -1  -2  -4  126.81   11.28
  -1   2  -4  149.12    9.24
   1  -2   4  119.35    9.59
  -1  -2   4  143.54   15.65
   1  -2  -4  152.47   11.63
  -1  -2  -4  122.64    7.83
  -1   2   4  117.01    8.19
  -1  -2   4  140.40    9.52
  -1   2  -4  128.52    8.48
   1  -2   4  118.93    7.57
   1  -2  -4  132.35    9.39
  -1   2   4  116.64    7.74
   1   2   4  125.30    9.46
  -1   2  -5   80.71    5.73
   1   2  -5   59.81    4.01
  -1   2   5   59.74    5.09
  -1  -2   5   80.99    5.06
   1  -2  -5   78.61    6.19
   1   2   5  109.05   14.95
  -1  -2  -5   55.46   10.15
  -1   2  -5   81.47    6.08
   1  -2   5   59.85   11.19
  -1  -2   5   83.49   18.22
   1  -2  -5   88.68   16.47
  -1  -2  -5   52.67    6.75
  -1   2   5   59.15   11.38
   1   2   5   80.07    5.42
   1   2  -5   75.10   13.80
  -1   2  -5   76.73    6.07
   1  -2   5   53.74   13.00
   1  -2  -5   93.76   11.86
  -1  -2  -5   79.24   15.66
  -1   2  -6  282.65   14.38
   1   2  -6  257.18   12.80
   1  -2   6  268.53   13.48
  -1   2   6  279.17   13.71
  -1  -2   6  275.96   13.39
   1  -2  -6  272.43   13.65
   1   2   6  285.68   15.65
  -1  -2  -6  259.49   15.67
  -1   2  -6  272.62   14.13
   1  -2   6  271.54   14.00
  -1  -2  -6  287.75   14.83
   1  -2  -6  307.69   16.81
   1   2   6  260.53   13.90
   1   2  -6  275.08   15.15
  -1   2  -6  283.96   18.68
   1  -2  -6  283.44   15.67
  -1  -2  -6  273.70   18.44
   1   2  -7  374.72   17.86
   1  -2   7  356.70   17.60
  -1   2   7  374.48   18.09
  -1  -2   7  296.35   14.22
   1   2   7  331.95   18.81
   1  -2  -7  325.24   15.88
  -1  -2  -7  378.11   27.43
   1  -2   7  369.95   18.30
  -1   2  -7  329.64   16.97
   1   2  -7  363.37   24.35
  -1  -2  -7  361.26   19.20
   1  -2  -7  354.56   19.06
   1   2   7  304.98   15.65
   1   2  -7  375.37   21.23
  -1   2  -7  319.40   17.10
   1  -2  -7  310.37   16.77
  -1  -2  -7  387.90   20.86
   1   2  -8  284.58   13.64
   1  -2   8  277.31   13.98
  -1   2   8  303.20   15.28
  -1  -2   8  250.88   12.44
   1   2   8  267.77   14.16
   1  -2  -8  269.42   14.10
  -1  -2  -8  272.35   14.01
   1  -2   8  305.44   15.75
  -1   2  -8  258.74   13.91
   1   2  -8  290.40   16.83
  -1  -2  -8  298.20   15.51
   1  -2  -8  273.51   15.48
   1   2   8  249.39   15.97
   1   2  -8  322.91   18.05
   1  -2  -8  267.19   15.03
  -1  -2  -8  298.63   18.44
   1  -2   9  220.96   11.33
  -1   2   9  242.18   12.18
  -1  -2   9  207.25   10.06
   1   2   9  222.91   12.15
  -1  -2  -9  214.36   11.46
  -1  -2   9  222.19   10.85
   1  -2   9  252.85   13.24
  -1   2  -9  221.17   12.36
   1   2  -9  231.73   15.46
  -1  -2  -9  250.20   15.13
   1  -2  -9  238.11   14.10
   1   2  -9  220.27   13.11
   1  -2  -9  258.66   33.44
  -1  -2  -9  246.05   15.03
   1  -2  10  298.60   12.49
  -1   2  10  313.58   11.98
   1   2  10  317.46   16.58
  -1  -2  10  296.29   10.70
  -1  -2  10  351.44   12.71
   1  -2 -10  324.75   12.47
   1  -2  10  303.90   12.86
  -1  -2 -10  253.62   19.96
  -1   2 -10  328.04   14.71
   1   2 -10  315.47   15.55
  -1  -2 -10  302.79   14.20
   1  -2 -10  356.10   16.64
   1   2 -10  314.59   36.91
   1  -2 -10  311.06   16.33
  -1  -2 -10  284.37   10.27
   1  -2  11   42.25    5.25
  -1   2  11   57.46    3.74
   1   2  11   55.51    7.43
   1  -2  11   55.64    7.66
  -1  -2 -11   42.97    9.72
   1  -2 -11   45.42    5.36
  -1   2 -11   56.40   14.71
   1   2 -11   58.75   14.08
  -1  -2 -11   66.56   15.41
   1  -2 -11   66.09   16.21
   1   2 -11   52.38   15.93
   1  -2 -11   64.25   13.46
  -1  -2 -11   73.58   14.51
  -1   2  12  168.19   25.00
   1  -2  12  148.51    4.63
   1   2  12  168.44   28.11
   1  -2  12  164.89    5.83
  -1  -2 -12  137.94    6.60
  -1   2 -12  151.34   15.44
   1   2 -12  180.10   30.66
  -1  -2 -12  155.35    7.47
   1  -2 -12  179.38   33.13
   1   2 -12  160.22   26.72
   1  -2 -12  179.13   29.14
  -1  -2 -12  163.98   33.99
   1  -2  13  354.65    9.79
   1   2  13  372.83   12.67
   1  -2  13  372.89   10.73
  -1   2 -13  363.88   22.35
   1   2 -13  364.02   15.02
  -1  -2 -13  400.90   13.97
   1  -2 -13  432.06   16.57
   1   2 -13  327.78   15.38
  -1   2 -13  362.21   25.91
   1  -2 -13  381.64   15.49
  -1  -2 -13  374.39   15.87
   1   2  14  230.50   16.01
   1  -2  14  270.81    6.21
  -1   2 -14  243.55    9.47
   1   2 -14  261.19   10.90
  -1  -2 -14  278.81   25.83
   1  -2 -14  245.12   11.59
   1   2 -14  234.26   27.26
  -1   2 -14  234.65   41.00
   1  -2 -14  204.17   39.40
  -1  -2 -14  233.49   16.64
   1   2  15    3.82    1.63
  -1   2 -15    5.84    2.80
   1   2 -15   13.63    5.26
  -1  -2 -15    7.64    4.16
   1  -2 -15    8.10    5.50
   1   2 -15    5.23    3.20
  -1   2 -15   12.20    6.59
   1  -2 -15   12.30    5.38
  -1  -2 -15   15.85    8.16
  -1   2 -16   13.10    3.35
   1   2 -16   10.05    3.55
  -1  -2 -16    9.52    3.67
   1  -2 -16    6.71    3.07
   1   2 -16   12.21    6.62
  -1   2 -16   10.03    6.78
   1  -2 -16    5.06    3.52
  -1  -2 -16   12.51    4.10
  -1   2 -17   21.34    6.91
   1   2 -17   25.45    9.15
  -1  -2 -17   31.22   11.64
   1  -2 -17   29.21   10.73
   1   2 -17   47.41    9.74
  -1   2 -17   30.49    8.15
   1  -2 -17   48.60   12.57
  -1  -2 -17   52.16   12.07
  -1   2 -18   30.21   10.67
   1   2 -18   28.95    9.09
  -1  -2 -18   32.43   11.05
   1  -2 -18   37.64   13.79
   1   2 -18   56.26   11.37
  -1   2 -18   32.98    9.40
   1  -2 -18   53.18   16.62
  -1  -2 -18   39.89   13.16
  -1   2 -19   48.85   13.68
   1   2 -19   60.29   21.52
   1  -2 -19   64.44   18.88
   1   2 -19   76.69   22.19
  -1   2 -19   58.62   18.25
   1  -2 -19   76.20   19.60
  -1  -2 -19   58.76   11.46
   1   2 -20   30.21   10.87
   1  -2 -20   24.70    6.75
   1   2 -20   34.58    9.43
  -1   2 -20   23.93    9.12
   1  -2 -20   27.82    7.37
  -1  -2 -20   19.93    8.00
   1   2 -21    7.49    5.69
   1   2 -21   15.35    4.80
  -1   2 -21   20.81    8.06
   1  -2 -21   15.42    9.42
  -1  -2 -21   14.34    8.35
  -1  -3   0 2499.95   31.90
   1   3   0 2599.60   33.20
  -1  -3   0 2541.24   32.29
  -1   3   1 2451.01   31.62
   1  -3   1 2339.78   30.24
  -1  -3   1 2383.20   30.63
  -1  -3  -1 2356.73   30.82
   1  -3   1 2354.82   30.29
  -1  -3  -1 2415.38   30.13
   1   3  -1 2442.76   31.68
  -1  -3   1 2459.88   31.30
   1  -3  -1 2444.13   31.15
   1  -3   2  288.82    7.44
  -1   3   2  312.70   10.69
   1  -3  -2  247.06   14.56
   1   3  -2  324.85   10.39
  -1  -3   2  243.20   14.41
   1   3   2  254.34   18.90
   1  -3   2  311.52    7.63
   1   3  -2  311.24   10.27
   1  -3  -2  255.29   15.77
  -1   3   2  299.94    6.91
  -1   3  -3  244.03   14.43
   1  -3   3  210.12   12.38
  -1   3   3  223.91   13.24
   1   3  -3  213.51   12.56
   1  -3  -3  243.05   14.18
  -1  -3   3  235.53   13.59
   1   3   3  270.27   15.97
  -1  -3  -3  226.92   21.48
   1  -3   3  201.20   13.66
   1   3  -3  229.77   14.71
  -1  -3   3  249.64   14.68
   1  -3   3  209.02   11.94
   1  -3  -3  247.49   14.69
  -1   3   3  197.36   11.97
  -1  -3  -3  216.74   14.22
  -1   3  -4  375.35    8.38
   1  -3   4  392.99    8.20
  -1   3   4  409.45    8.28
   1   3  -4  396.07    7.88
   1  -3  -4  365.62    7.74
   1   3   4  371.38    9.03
  -1  -3  -4  406.67    9.88
  -1   3  -4  382.13   12.23
   1  -3   4  379.41    8.39
   1  -3  -4  374.09   11.14
  -1   3   4  400.59    9.48
   1  -3   4  384.14    7.76
   1  -3  -4  375.34    9.86
  -1   3   4  395.25    8.57
  -1  -3  -4  418.02   17.33
  -1   3  -5  120.91    8.03
   1  -3   5  119.12    7.55
   1   3  -5  134.91    9.40
  -1   3   5  133.75    8.40
  -1  -3   5  113.39    7.15
   1  -3  -5  113.59   11.61
   1   3   5  124.73   14.85
  -1  -3  -5  109.54   19.25
  -1   3  -5  119.75    8.67
   1  -3   5  121.35   14.61
   1  -3  -5  125.77    9.73
  -1  -3  -5  133.64    9.48
  -1   3   5  121.75   10.20
  -1   3  -5  111.73    7.97
   1  -3   5  133.93    8.41
   1  -3  -5  120.36   11.73
  -1  -3  -5  135.67   13.23
  -1   3  -6 1265.66   36.85
   1   3  -6 1221.55   34.76
   1  -3   6 1093.08   31.74
  -1   3   6 1194.19   34.28
  -1  -3   6 1168.46   33.23
   1  -3  -6 1177.15   34.20
   1   3   6 1276.95   37.36
  -1  -3  -6 1139.54   34.43
  -1   3  -6 1262.73   37.01
   1  -3  -6 1253.43   38.79
  -1  -3  -6 1198.81   35.58
  -1   3  -6 1177.12   35.38
   1  -3  -6 1265.37   37.83
  -1  -3  -6 1184.34   35.84
  -1   3  -7    8.22    2.41
   1   3  -7    4.54    1.99
   1  -3   7    5.09    2.08
  -1   3   7    6.92    2.08
  -1  -3   7    5.53    1.60
   1   3   7   10.48    2.94
   1  -3  -7    9.56    3.01
  -1  -3  -7    7.01    3.41
  -1   3  -7   10.08    2.47
   1  -3  -7    7.91    3.00
  -1  -3  -7    6.51    2.57
   1   3   7    6.83    1.68
  -1   3  -7    9.49    3.52
   1  -3  -7   11.39    3.01
  -1  -3  -7    5.73    3.42
  -1   3  -8  130.23    7.59
   1   3  -8  116.99    3.59
   1  -3   8   91.61    8.28
  -1   3   8  116.21    4.06
  -1  -3   8  135.01   11.53
   1   3   8  147.84   13.94
   1  -3  -8  136.36    7.75
  -1  -3  -8   98.37    6.33
  -1   3  -8  140.80   18.01
   1   3  -8  112.93    6.21
  -1  -3  -8  117.13    5.28
   1  -3  -8  142.35   12.37
   1   3   8  114.44    4.79
   1   3  -8  141.62   23.74
  -1   3  -8  131.45   10.06
   1  -3  -8  153.04   28.35
  -1  -3  -8  105.50   22.29
   1   3  -9   27.67    5.74
   1  -3   9   19.09    5.88
  -1   3   9   33.54    7.52
  -1  -3   9   24.38    3.11
   1   3   9   29.22   10.41
   1  -3  -9   25.05    6.44
  -1  -3  -9   27.19    8.22
  -1   3  -9   21.88    7.07
   1   3  -9   38.55    7.81
  -1  -3  -9   35.58    6.46
   1  -3  -9   30.31    6.64
   1   3  -9   36.62    8.13
  -1   3  -9   41.01    9.03
   1  -3  -9   31.42    7.21
  -1  -3  -9   36.26    8.50
   1   3 -10  241.32    9.97
   1  -3  10  222.12   10.63
  -1   3  10  240.17   10.13
   1   3  10  219.34    9.76
  -1  -3  10  210.27    7.79
   1  -3 -10  215.25    8.67
   1  -3  10  235.10   10.68
  -1   3 -10  254.86   12.15
   1   3 -10  212.84   12.16
  -1  -3 -10  247.02   14.37
   1  -3 -10  206.74   20.64
   1   3 -10  242.07   12.82
   1  -3 -10  243.18   36.66
  -1  -3 -10  236.28   19.68
  -1   3  11  596.10   20.34
   1   3  11  603.33   20.84
  -1  -3  11  515.62   16.22
   1  -3 -11  522.53   17.43
   1  -3  11  619.70   21.14
  -1  -3  11  594.40   18.68
  -1   3 -11  568.68   20.99
   1   3 -11  585.22   22.17
  -1  -3 -11  555.41   20.35
   1  -3 -11  575.30   22.16
   1   3 -11  594.28   23.84
   1  -3 -11  571.97   30.22
  -1  -3 -11  558.57   23.37
  -1   3  12  254.50    9.55
   1  -3  12  200.14   13.85
   1   3  12  245.58   10.64
  -1  -3  12  243.41    8.45
   1  -3 -12  221.97    8.88
   1  -3  12  228.80   16.80
  -1   3 -12  251.58   12.54
   1   3 -12  256.08   14.40
  -1  -3 -12  247.11   15.11
   1  -3 -12  255.45   13.66
   1   3 -12  213.76   12.95
   1  -3 -12  271.35   38.10
  -1  -3 -12  250.98   30.25
  -1   3  13  129.06    7.51
   1   3  13  126.01    9.69
   1  -3  13  124.92   11.11
   1  -3 -13  110.92    5.65
  -1   3 -13  114.79   13.55
   1   3 -13  138.18   21.30
  -1  -3 -13  152.79   24.23
   1  -3 -13  120.81   25.59
   1   3 -13  160.70   28.17
   1  -3 -13  125.91   31.28
  -1  -3 -13  147.21   38.99
   1   3  14    2.27    1.57
   1  -3  14    4.90    2.52
  -1   3 -14    4.35    3.62
   1   3 -14    0.96    2.28
  -1  -3 -14    5.08    2.61
   1  -3 -14   -4.23    4.98
   1   3 -14   17.23    7.27
   1  -3 -14    3.98    3.62
  -1  -3 -14   -1.69    6.97
   1   3  15   45.65    7.42
  -1   3 -15   63.56   19.16
   1   3 -15   86.11   16.87
  -1  -3 -15   77.54   19.88
   1  -3 -15   61.60   12.78
   1   3 -15   82.22   14.13
   1  -3 -15   52.89   13.39
  -1  -3 -15   75.77   21.57
  -1   3 -16   45.67   14.82
   1   3 -16   83.27   15.72
  -1  -3 -16   56.73   13.03
   1  -3 -16   57.70    8.84
   1   3 -16   71.29   13.48
  -1   3 -16   57.92   11.82
   1  -3 -16   55.80   12.73
  -1  -3 -16   65.50   24.66
  -1   3 -17   37.12    9.76
   1   3 -17   32.78   10.76
  -1  -3 -17   28.40    9.28
   1  -3 -17   25.50    6.30
   1   3 -17   63.41   18.41
  -1   3 -17   37.05    6.74
   1  -3 -17   53.41   10.33
  -1  -3 -17   43.93   13.15
  -1   3 -18   34.70   11.09
   1   3 -18   37.95   12.28
   1  -3 -18   42.80   14.88
   1   3 -18   68.85   20.78
  -1   3 -18   47.79   12.18
   1  -3 -18   61.14   13.45
  -1  -3 -18   48.06   17.29
  -1   3 -19    3.14    3.09
   1  -3 -19    9.60    6.05
   1   3 -19   16.58    7.24
  -1   3 -19    9.68    5.90
   1  -3 -19   16.27    6.46
  -1  -3 -19    5.84    6.28
   1   3 -20   30.92    9.53
  -1   3 -20   36.43   16.30
   1  -3 -20   37.61   10.21
  -1  -3 -20   35.79    8.07
  -1   4   0   11.51    2.67
   1  -4   0    5.40    5.09
   1   4   0   10.29    5.53
  -1  -4   0   -0.58    4.38
   1   4   0    8.49    2.86
  -1  -4   0    7.99    1.90
  -1   4  -1  115.57    8.15
  -1   4   1   99.12    7.40
   1  -4   1   82.89   13.09
   1  -4  -1  111.82   16.29
   1   4   1  109.48    8.63
  -1  -4   1  102.75    7.43
  -1  -4  -1  102.44   12.80
   1  -4   1   96.57    7.08
  -1  -4  -1   83.06   11.68
   1   4  -1   85.01    6.87
  -1  -4   1  114.17    7.88
  -1   4   2  758.01   13.94
   1  -4   2  731.07   13.07
   1  -4  -2  696.69   12.46
   1   4   2  759.17   14.01
  -1  -4  -2  695.90   13.39
  -1  -4  -2  750.81   12.29
   1  -4   2  705.33   12.78
   1   4  -2  751.00   13.71
   1  -4  -2  717.58   12.22
  -1   4   3  485.06   10.26
   1   4  -3  515.90   10.77
   1  -4  -3  515.91   10.06
  -1  -4   3  526.06   10.20
  -1  -4  -3  478.85   10.12
  -1   4  -4  213.91   13.14
   1  -4   4  234.31   13.93
  -1   4   4  252.89   15.03
   1   4  -4  248.67   14.71
   1  -4  -4  178.62   16.51
   1   4   4  204.48   13.08
   1   4  -4  242.76   15.35
   1  -4   4  232.53   13.47
   1  -4  -4  210.94   13.32
  -1  -4  -4  242.00   15.37
  -1   4  -5  384.42   19.50
   1  -4   5  413.64   20.56
   1   4  -5  468.48   23.11
  -1   4   5  450.95   22.49
  -1  -4   5  357.92   17.84
   1  -4  -5  360.60   18.18
   1   4   5  390.51   20.14
  -1   4  -5  398.94   20.49
   1   4  -5  443.14   22.70
   1  -4  -5  391.47   20.96
  -1  -4  -5  429.84   23.16
   1  -4   5  424.45   21.08
   1  -4  -5  414.63   21.57
  -1  -4  -5  427.05   22.14
  -1   4  -6  283.56   15.50
   1   4  -6  267.77   13.90
  -1   4   6  283.78   14.88
  -1  -4   6  230.85   12.06
   1   4   6  258.46   14.26
   1  -4  -6  247.26   12.94
  -1   4  -6  261.16   14.48
   1   4  -6  253.34   14.46
   1  -4  -6  269.80   15.62
  -1  -4  -6  276.32   14.78
   1  -4  -6  260.68   14.69
  -1  -4  -6  261.03   14.75
  -1   4  -7 1447.65   42.12
   1   4  -7 1479.05   42.34
  -1   4   7 1452.00   44.07
  -1  -4   7 1333.72   38.26
   1   4   7 1513.48   45.29
   1  -4  -7 1352.38   39.07
  -1   4  -7 1479.90   47.38
   1  -4  -7 1489.78   44.67
  -1  -4  -7 1468.29   43.27
  -1   4  -7 1385.54   43.71
   1  -4  -7 1418.91   46.36
  -1  -4  -7 1411.38   42.91
  -1   4  -8  384.87   14.79
   1   4  -8  369.66    7.01
  -1   4   8  399.98   15.40
  -1  -4   8  338.44   16.65
   1   4   8  374.88   17.25
   1  -4  -8  334.96   24.51
  -1   4  -8  382.74   15.69
   1  -4  -8  378.71   16.28
  -1  -4  -8  371.02    8.67
  -1   4  -8  373.19   10.68
   1  -4  -8  375.64   16.07
  -1  -4  -8  377.02   17.01
  -1   4  -9  261.46   10.75
   1   4  -9  214.21   11.39
  -1   4   9  232.58   10.91
  -1  -4   9  206.70    9.94
   1   4   9  255.05   11.24
   1  -4  -9  242.79    9.84
  -1   4  -9  252.89   13.22
  -1  -4  -9  236.17   10.75
   1  -4  -9  244.96   19.70
  -1   4  -9  256.51   12.26
   1  -4  -9  277.97   12.30
  -1  -4  -9  231.05   12.70
  -1   4 -10   54.25    9.96
   1   4 -10   63.41   11.26
  -1   4  10   74.80    8.70
   1   4  10   67.99    5.25
  -1  -4  10   39.83   11.03
   1  -4 -10   48.07    7.64
  -1   4 -10   63.75   11.61
   1   4 -10   78.71   16.10
  -1  -4 -10   74.15   18.19
   1  -4 -10   58.32   17.64
  -1   4 -10   71.99   21.60
   1  -4 -10   62.61   15.89
  -1  -4 -10   87.19   17.62
   1   4 -11   28.25    7.57
  -1   4  11   26.70    8.00
   1   4  11   29.86   10.42
  -1  -4  11   17.86    4.98
   1  -4 -11   19.75    5.92
   1  -4  11   29.00   10.49
  -1   4 -11   30.49    7.05
  -1  -4 -11   34.37    8.81
   1  -4 -11   34.10    9.09
  -1   4 -11   37.73    7.07
   1  -4 -11   38.92    7.04
  -1  -4 -11   37.00    9.27
  -1   4  12  147.19   11.30
   1   4  12  127.37   16.02
  -1  -4  12  103.31    3.58
   1  -4 -12   83.82   11.16
   1  -4  12  135.86   14.97
  -1  -4  12  116.15    7.62
  -1   4 -12  138.66   28.68
   1   4 -12  138.56   30.22
  -1  -4 -12  125.93    7.30
   1  -4 -12  133.20   25.63
   1  -4 -12  134.33   28.37
  -1  -4 -12  110.85   21.83
  -1   4  13  173.88   14.17
   1   4  13  153.43   13.61
  -1  -4  13  184.55    5.84
   1  -4  13  163.39   15.41
  -1   4 -13  179.97   25.02
   1   4 -13  174.99   27.43
  -1  -4 -13  161.67    8.80
   1  -4 -13  162.05    9.93
   1  -4 -13  204.80   44.27
  -1  -4 -13  187.69   43.97
  -1   4  14    3.67    1.99
   1   4  14    2.82    1.10
   1  -4  14    0.82    1.44
  -1   4 -14   -0.37    3.71
   1   4 -14   -1.57    4.20
  -1  -4 -14   -0.80    3.36
   1  -4 -14    2.98    3.61
   1  -4 -14   -0.13    6.96
  -1  -4 -14    7.59    5.08
   1   4  15  102.08   14.09
  -1   4 -15  111.59   25.49
   1   4 -15  106.51   24.62
  -1  -4 -15  112.79   18.51
   1  -4 -15  125.87   19.57
   1  -4 -15  128.46   19.21
  -1  -4 -15  104.36   19.71
  -1   4 -16   59.27   19.04
   1   4 -16   51.94   11.78
  -1  -4 -16   33.94   13.85
   1  -4 -16   63.41   11.36
   1  -4 -16   43.63   11.84
  -1  -4 -16   36.57   11.64
  -1   4 -17    8.06    1.93
   1   4 -17   11.79    5.72
  -1  -4 -17    6.58    4.69
   1  -4 -17   11.66    4.81
   1  -4 -17   16.61    6.02
  -1   4 -18    6.61    3.49
   1   4 -18   12.04    4.97
   1  -4 -18   15.79    6.31
   1  -4 -18   10.20    5.15
  -1  -4 -18   15.73    6.64
  -1   4 -19   46.71   14.56
   1   4 -19   40.95   18.26
   1  -4 -19   34.92   14.49
  -1   4 -19   12.67    5.47
   1  -4 -19   73.67   18.46
  -1  -4 -19   34.86   17.93
   1   4 -20   13.39    4.55
  -1   4 -20   22.48    7.13
   1  -4 -20   31.43    9.90
  -1  -4 -20   43.11    9.00
  -1   5   0  298.84    9.78
   1   5   0  312.50    9.31
   1   5   0  312.11    8.89
  -1   5  -1  146.41    9.80
  -1   5   1  139.14    9.72
   1   5  -1  130.82    8.82
   1   5   1  130.58    9.37
   1   5  -1  154.61   18.12
  -1   5   2  482.15   17.45
   1   5   2  442.26   11.12
  -1  -5  -2  458.99   10.49
   1   5  -2  465.72   10.89
   1  -5  -2  446.33    9.70
  -1   5   3  547.43   18.38
   1   5  -3  535.19   19.20
   1   5   3  518.48   17.91
  -1   5  -3  516.52   17.34
   1   5  -3  539.20   18.11
   1  -5  -3  540.61   17.59
  -1   5  -4  949.15   29.05
  -1   5   4  918.12   28.90
   1   5  -4  906.44   27.53
   1   5   4  905.95   28.20
   1   5  -4  932.51   28.76
   1  -5   4  852.96   25.22
   1  -5  -4  889.93   27.60
  -1  -5  -4  882.14   27.81
  -1   5  -5  259.33   14.29
   1   5  -5  230.78   12.65
  -1   5   5  238.54   13.38
   1   5   5  245.17   13.70
   1   5  -5  218.31   12.61
   1  -5  -5  244.86   14.82
  -1  -5  -5  234.21   13.01
   1  -5  -5  253.71   14.73
  -1  -5  -5  226.46   13.45
  -1   5  -6  187.03   11.02
   1   5  -6  172.06   10.31
  -1   5   6  187.05   22.20
   1   5   6  202.61   17.43
   1   5  -6  155.15   10.45
   1  -5  -6  157.28   19.35
  -1  -5  -6  166.32   10.48
   1  -5  -6  174.97   13.68
  -1  -5  -6  174.13   12.24
  -1   5  -7  648.32   23.70
   1   5  -7  677.99   24.58
  -1   5   7  673.32   25.03
   1   5   7  690.56   28.26
  -1   5  -7  642.14   24.28
   1   5  -7  663.96   25.16
   1  -5  -7  662.18   25.73
  -1  -5  -7  670.38   24.70
   1  -5  -7  647.59   25.08
  -1  -5  -7  672.53   25.75
  -1   5  -8  466.10   17.87
   1   5  -8  520.64   19.13
  -1   5   8  519.47   21.94
   1   5   8  471.77   18.71
  -1   5  -8  523.60   20.77
   1  -5  -8  438.46   18.78
  -1  -5  -8  517.21   20.23
   1  -5  -8  467.38   20.26
  -1  -5  -8  493.38   20.63
  -1   5  -9   91.93    6.13
   1   5  -9   96.58   15.45
  -1   5   9  111.89   11.01
   1   5   9  111.21    8.63
  -1   5  -9  109.06   25.32
   1  -5  -9  110.33   27.03
  -1  -5  -9  110.72    8.13
   1  -5  -9  101.82   27.20
  -1  -5  -9  118.45   23.99
  -1   5 -10  356.81   14.18
   1   5 -10  355.16   15.42
  -1   5  10  355.92   13.60
   1   5  10  413.44   29.20
  -1   5 -10  372.80   15.88
  -1  -5 -10  363.74   15.51
   1  -5 -10  390.02   18.12
   1  -5 -10  359.43   22.42
  -1  -5 -10  405.28   47.91
  -1   5 -11   29.83    6.87
   1   5 -11   28.42    5.75
  -1   5  11   25.04    9.80
   1   5  11   39.96    7.79
  -1  -5  11   18.78    5.66
  -1   5 -11   38.11    7.86
   1   5 -11   44.15   10.47
  -1  -5 -11   30.55   13.14
   1  -5 -11   42.13    8.91
   1  -5 -11   38.42    8.80
  -1  -5 -11   34.98    7.06
   1   5 -12  407.54   11.53
  -1   5  12  421.26   12.76
   1   5  12  444.90   14.38
  -1   5 -12  425.01   16.10
   1   5 -12  413.93   16.82
  -1  -5 -12  415.94   14.69
   1  -5 -12  413.47   17.07
   1  -5 -12  496.46   48.42
  -1  -5 -12  403.43   17.32
  -1   5  13    3.51    1.67
   1   5  13    3.03    2.30
   1  -5  13    3.56    1.55
  -1   5 -13    6.65    3.74
   1   5 -13    4.70    2.82
  -1  -5 -13    2.83    2.58
   1  -5 -13    6.08    3.54
   1  -5 -13   -5.38    6.42
  -1  -5 -13   12.57    6.33
  -1   5  14   47.07   15.49
   1   5  14   52.35    7.42
   1  -5  14   62.31   12.76
  -1   5 -14   67.97   15.17
   1   5 -14   67.67   14.47
  -1  -5 -14   56.22   12.62
   1  -5 -14   58.49    9.14
   1  -5 -14   54.83   11.27
  -1  -5 -14   69.38   14.97
   1   5  15   16.45    7.08
  -1   5 -15   24.18    4.67
   1   5 -15   16.97    4.94
  -1  -5 -15   15.16    3.27
   1  -5 -15   10.58    4.02
   1  -5 -15   24.41    5.52
  -1  -5 -15   24.67    9.62
  -1   5 -16  185.52    9.32
   1   5 -16  143.49   29.41
  -1  -5 -16  153.37   22.70
   1  -5 -16  158.65   37.48
   1  -5 -16  170.00   31.25
  -1  -5 -16  147.90   27.02
  -1   5 -17   32.32    7.91
   1   5 -17   30.93    7.42
  -1  -5 -17   16.47    9.50
   1  -5 -17   23.56    8.94
   1  -5 -17   24.35    5.71
  -1  -5 -17   24.28    6.23
  -1   5 -18   17.81    4.35
   1   5 -18    5.68    5.13
   1  -5 -18   21.38    6.12
   1  -5 -18   22.94    6.90
  -1  -5 -18    9.80    5.86
  -1   5 -19   12.19    5.20
   1   5 -19    9.58    5.81
   1  -5 -19    3.27    3.87
   1  -5 -19   21.22    7.85
  -1  -5 -19   13.16    5.95
   1   5 -20   18.79    7.91
   1  -5 -20   26.59    9.48
  -1  -5 -20   21.54    9.26
  -1   6   0   38.45    7.49
   1   6   0   34.20    8.93
  -1   6  -1  149.52    7.80
  -1   6   1  150.84   11.19
   1   6  -1  148.05    8.73
   1   6   1  164.65   24.31
   1   6  -1  150.69    8.06
  -1   6  -2    9.95    6.10
  -1   6   2   20.82    5.86
   1   6  -2   24.33    5.95
  -1   6   3  596.08   20.16
   1   6   3  627.14   21.51
   1   6  -3  578.44   19.64
   1  -6  -3  636.23   20.71
  -1   6   4  364.29   19.71
   1   6  -4  362.28   19.03
   1   6   4  321.73   17.98
  -1   6  -4  308.82   17.15
   1   6  -4  346.92   18.82
   1  -6  -4  317.80   17.36
  -1  -6  -4  351.77   19.24
  -1   6  -5    5.54    3.59
   1   6  -5    1.16    1.87
  -1   6   5   -0.64    4.21
   1   6   5   -0.19    2.32
  -1   6  -5   -1.56    4.53
   1   6  -5    8.66    4.73
   1  -6  -5   -0.21    3.53
  -1  -6  -5   13.26    6.84
  -1   6  -6 1225.03   42.54
   1   6  -6 1233.11   43.35
  -1   6   6 1271.82   44.25
   1   6   6 1212.15   42.34
   1   6  -6 1196.19   42.53
   1  -6  -6 1208.93   43.15
  -1  -6  -6 1221.61   42.49
   1  -6  -6 1237.68   44.36
  -1  -6  -6 1212.78   42.97
  -1   6  -7  245.90   14.01
   1   6  -7  255.68   14.27
  -1   6   7  275.48   27.97
   1   6   7  245.19   14.44
   1   6  -7  266.91   16.05
   1  -6  -7  261.38   19.58
  -1  -6  -7  246.51   14.49
   1  -6  -7  258.56   17.04
  -1  -6  -7  245.07   15.32
  -1   6  -8   26.48    7.60
   1   6  -8   31.82    6.94
  -1   6   8   35.17   11.32
   1   6   8   38.69    8.77
  -1   6  -8   43.65    7.35
   1   6  -8   36.42    8.29
   1  -6  -8   36.11   10.18
  -1  -6  -8   40.62    9.39
   1  -6  -8   37.87    9.57
  -1  -6  -8   47.30   14.64
  -1   6  -9  238.88   11.20
   1   6  -9  277.03   11.79
  -1   6   9  270.54   15.31
   1   6   9  249.02   33.14
  -1   6  -9  244.00   12.69
   1  -6  -9  232.96   15.12
  -1  -6  -9  280.47   13.22
   1  -6  -9  251.03   28.76
  -1  -6  -9  311.59   35.06
  -1   6 -10  127.21   19.44
   1   6 -10  144.49    6.15
  -1   6  10  141.85   15.16
   1   6  10  120.28   12.02
  -1   6 -10   95.68   18.62
   1  -6 -10  127.64   25.17
  -1  -6 -10  157.56   26.08
   1  -6 -10  149.34   23.68
  -1  -6 -10  174.10   24.36
  -1   6 -11   54.45   11.29
   1   6 -11   50.62   11.93
  -1   6  11   61.61    7.33
   1   6  11   55.91    8.55
  -1   6 -11   64.34   18.57
  -1  -6 -11   64.00   20.10
   1  -6 -11   54.76   14.14
   1  -6 -11   59.02   17.33
  -1  -6 -11   64.30   17.00
  -1   6 -12   66.60   17.79
   1   6 -12   63.78   13.08
  -1   6  12   66.89    7.55
   1   6  12   55.02   16.59
  -1   6 -12   76.08   20.59
   1   6 -12   59.61   14.46
  -1  -6 -12   69.65   20.10
   1  -6 -12   51.76   17.58
   1  -6 -12   66.04   18.51
  -1  -6 -12   67.26   10.79
  -1   6 -13   29.00    9.15
   1   6 -13   36.51    8.19
  -1   6  13   32.66   11.27
   1   6  13   40.34    9.40
  -1   6 -13   48.20    7.98
   1   6 -13   44.72   15.87
  -1  -6 -13   40.08   12.19
   1  -6 -13   32.15    8.05
   1  -6 -13   28.04    8.16
  -1  -6 -13   40.75   13.68
   1   6 -14   26.97    8.42
  -1   6  14   30.10    8.27
   1   6  14   35.28   12.79
   1  -6  14   31.22    8.99
  -1   6 -14   52.46   11.49
   1   6 -14   53.59   12.07
  -1  -6 -14   36.28    9.68
   1  -6 -14   34.01   10.17
   1  -6 -14   49.27   11.37
  -1  -6 -14   31.71    7.59
   1   6  15   90.21   12.95
  -1   6 -15  100.99   26.07
   1   6 -15  109.89   21.82
  -1  -6 -15   77.74   20.37
   1  -6 -15   85.99   17.86
   1  -6 -15   90.55   18.81
  -1  -6 -15  101.86   20.87
  -1   6 -16   27.41    8.25
   1   6 -16   40.63   12.77
  -1  -6 -16   35.36    8.13
   1  -6 -16   29.23   12.53
   1  -6 -16   18.75    4.35
  -1  -6 -16   24.45   11.15
  -1   6 -17   38.14   12.37
   1   6 -17   31.37    9.42
   1  -6 -17   34.52    9.11
   1  -6 -17   42.84   16.82
  -1  -6 -17   31.41    7.45
  -1   6 -18   61.85   17.92
   1   6 -18   69.63   25.64
   1  -6 -18   61.85   25.93
   1  -6 -18   75.01   19.21
  -1  -6 -18   71.24   22.70
  -1   6 -19   16.37    6.09
   1   6 -19   10.31    5.36
  -1  -6 -19   14.70    5.11
  -1   6 -20    3.36    2.88
   1   6 -20    1.86    3.11
   1  -6 -20   21.82    5.83
  -1   7   0  688.97   22.94
   1   7   0  710.76   24.32
  -1   7  -1  374.69   20.20
  -1   7   1  367.55   20.22
   1   7  -1  330.02   19.42
   1   7   1  324.30   21.12
   1   7  -1  345.53   20.46
  -1   7  -2  994.21   35.07
  -1   7   2  913.45   29.49
   1   7  -2  909.30   34.22
   1   7   2  976.39   31.35
   1   7  -2  894.35   28.51
  -1   7  -3  118.29   19.07
  -1   7   3  116.45    6.84
   1   7   3  118.50   14.92
   1   7  -3  110.28   18.82
   1  -7  -3  103.53   17.59
  -1   7   4  381.85   18.10
   1   7  -4  351.49   18.83
   1   7   4  347.51   23.04
   1   7  -4  322.16   18.12
   1  -7  -4  363.82   11.54
  -1   7  -5  185.65   11.82
   1   7  -5  187.95   11.98
  -1   7   5  170.17   10.96
   1   7   5  198.80   31.58
  -1   7  -5  169.28   10.78
   1   7  -5  183.43   34.63
   1  -7  -5  174.77   17.75
  -1  -7  -5  194.59   31.03
  -1   7  -6  452.51   20.44
   1   7  -6  452.72   18.37
  -1   7   6  478.30   19.68
   1   7   6  476.71   19.90
  -1   7  -6  453.28   19.40
   1   7  -6  475.52   20.65
   1  -7  -6  443.32   18.88
  -1  -7  -6  467.63   19.37
   1  -7  -6  444.59   18.78
  -1  -7  -6  446.09   19.26
  -1   7  -7  105.34   17.69
   1   7  -7   94.28   20.37
  -1   7   7   93.19   24.84
   1   7   7  106.71   11.69
   1   7  -7   71.90   17.95
   1  -7  -7  104.66   20.83
  -1  -7  -7   83.63   17.06
   1  -7  -7   94.32   20.26
  -1  -7  -7   98.62   25.25
  -1   7  -8  403.29   16.25
   1   7  -8  371.23   14.92
  -1   7   8  390.16   15.87
   1   7   8  399.32   16.99
   1   7  -8  344.85   15.44
   1  -7  -8  384.77   35.62
  -1  -7  -8  363.47   15.89
   1  -7  -8  386.07   20.40
  -1  -7  -8  394.80   18.99
  -1   7  -9  123.43    7.46
   1   7  -9  135.08    7.03
  -1   7   9  149.68   18.11
   1   7   9  145.32   12.77
  -1   7  -9  145.01   22.57
   1   7  -9  128.10   23.47
   1  -7  -9  111.43   18.02
  -1  -7  -9  134.96   30.36
   1  -7  -9  106.40   12.85
  -1  -7  -9  130.29   34.27
  -1   7 -10  422.40   17.65
   1   7 -10  415.00   16.84
  -1   7  10  479.64   34.67
   1   7  10  465.12   20.35
  -1   7 -10  409.37   18.25
   1   7 -10  400.68   19.60
   1  -7 -10  421.12   19.75
  -1  -7 -10  399.50   18.16
   1  -7 -10  405.61   19.37
  -1  -7 -10  424.17   20.45
  -1   7 -11   33.68   13.85
   1   7 -11   58.44   13.56
  -1   7  11   43.88   14.78
   1   7  11   43.79   11.99
  -1   7 -11   61.96   11.71
   1  -7 -11   43.95   11.88
  -1  -7 -11   57.93   12.54
   1  -7 -11   48.29   10.28
  -1  -7 -11   58.31   14.16
  -1   7 -12  181.57    7.99
   1   7 -12  168.18   25.65
  -1   7  12  171.63   21.58
   1   7  12  182.30   20.89
  -1   7 -12  177.75   35.99
  -1  -7 -12  173.14    9.41
   1  -7 -12  162.26   34.41
   1  -7 -12  194.59   31.61
  -1  -7 -12  174.32   32.08
  -1   7 -13    6.68    1.58
   1   7 -13    7.66    3.70
  -1   7  13    4.57    1.93
   1   7  13    8.11    4.43
  -1   7 -13   10.29    3.15
   1   7 -13   10.46    4.53
  -1  -7 -13    8.29    5.22
   1  -7 -13   -0.14    5.58
   1  -7 -13   -0.02    5.77
  -1  -7 -13   12.40    3.53
  -1   7 -14  173.54   22.40
   1   7 -14  199.78   18.61
  -1   7  14  191.80    7.79
   1   7  14  193.81   11.22
  -1   7 -14  197.40   39.78
   1   7 -14  201.29   26.52
  -1  -7 -14  135.41   25.38
   1  -7 -14  204.65   11.18
   1  -7 -14  254.64   20.34
  -1  -7 -14  165.77   36.45
   1   7  15   20.90    5.19
  -1   7 -15   26.15    6.13
   1   7 -15   40.94   11.13
  -1  -7 -15   30.11    5.65
   1  -7 -15   34.17   11.74
   1  -7 -15   36.39   11.86
  -1  -7 -15   40.34   13.43
  -1   7 -16   90.02   20.85
   1   7 -16   78.46   27.12
  -1  -7 -16   70.95   23.59
   1  -7 -16   67.93   18.09
   1  -7 -16   95.41   29.09
  -1  -7 -16   92.06   19.56
  -1   7 -17    8.56    4.69
   1   7 -17    7.27    3.80
   1  -7 -17    5.15    4.10
   1  -7 -17    6.74    6.87
  -1  -7 -17    8.48    4.23
  -1   7 -18   27.59    9.69
   1   7 -18   26.64   11.25
   1  -7 -18   23.80   11.50
   1  -7 -18   37.06   13.65
  -1  -7 -18   18.75   11.48
  -1   7 -19    7.51    5.92
   1   7 -19   15.19    6.62
   1  -7 -19   10.58    8.76
  -1  -7 -19   14.39    8.03
  -1   8   0  226.84   22.00
   1   8   0  236.55   15.30
  -1   8  -1  275.52   16.25
  -1   8   1  306.85   17.71
   1   8  -1  288.27   17.39
   1   8   1  300.29   23.26
  -1   8  -2  217.82   19.89
  -1   8   2  211.18   13.34
   1   8  -2  194.52   16.11
   1   8   2  219.30   14.25
   1   8  -2  198.17   14.41
  -1   8  -3  507.15   21.54
  -1   8   3  456.87   19.94
   1   8   3  493.98   21.29
   1   8  -3  442.18   21.91
   1  -8  -3  457.97   25.33
  -1   8   4  447.98   21.23
   1   8   4  430.33   18.81
   1   8  -4  419.96   19.43
   1  -8  -4  403.62   17.12
   1   8  -5  179.28   13.32
  -1   8   5  208.89   30.43
   1   8   5  200.81   11.10
   1   8  -5  155.11   31.36
   1  -8  -5  214.23   19.33
  -1  -8  -5  224.28   23.22
  -1   8  -6  156.87   31.21
   1   8  -6  138.60   24.56
  -1   8   6  122.85   19.30
   1   8   6  139.70   17.06
  -1   8  -6  152.77   32.81
   1   8  -6  118.44   25.86
   1  -8  -6  142.23   36.14
  -1  -8  -6  127.72   20.53
   1  -8  -6  148.70   18.06
  -1  -8  -6  117.83   16.09
  -1   8  -7  232.01   37.55
   1   8  -7  210.58   11.41
  -1   8   7  258.53   29.95
   1   8   7  251.82   25.69
  -1   8  -7  200.94   10.31
   1   8  -7  214.75   14.36
   1  -8  -7  221.07   17.47
  -1  -8  -7  197.98   10.16
   1  -8  -7  193.37   25.09
  -1  -8  -7  216.13   22.49
  -1   8  -8  112.26   24.32
   1   8  -8  136.39   21.64
  -1   8   8  146.13   19.20
   1   8   8  130.73   17.91
   1   8  -8  135.88   20.12
   1  -8  -8  123.79   20.92
  -1  -8  -8  131.17   30.73
   1  -8  -8  126.12   19.64
  -1  -8  -8  155.94   33.82
  -1   8  -9  295.92   14.27
   1   8  -9  299.72   13.92
  -1   8   9  328.67   24.39
   1   8   9  292.90   26.15
   1   8  -9  268.16   44.79
   1  -8  -9  268.33   50.69
  -1  -8  -9  256.45   14.21
   1  -8  -9  294.19   16.22
  -1  -8  -9  290.94   35.42
  -1   8 -10   37.36    8.54
   1   8 -10   44.43    8.91
  -1   8  10   52.80   11.32
   1   8  10   35.92    7.56
   1   8 -10   38.17    8.59
   1  -8 -10   27.67    9.44
  -1  -8 -10   42.15   11.58
   1  -8 -10   27.31   13.48
  -1  -8 -10   50.80   10.39
  -1   8 -11   27.86    7.54
   1   8 -11   11.50    2.97
  -1   8  11   17.45    7.28
   1   8  11   13.30    4.16
  -1   8 -11   24.16    7.20
   1   8 -11   24.58    6.74
   1  -8 -11   29.06    6.26
  -1  -8 -11   19.53    6.97
   1  -8 -11   23.42    5.93
  -1  -8 -11   21.75    7.53
  -1   8 -12   77.97   17.76
   1   8 -12   46.13   15.38
  -1   8  12   53.70   14.02
   1   8  12   73.45   21.39
  -1   8 -12   82.18   16.84
   1  -8 -12   68.09   18.37
  -1  -8 -12   59.78   21.26
   1  -8 -12   65.90   26.28
  -1  -8 -12   68.59   14.37
  -1   8 -13   10.09    3.70
   1   8 -13    5.47    3.08
  -1   8  13    5.72    2.24
   1   8  13    7.46    3.18
  -1   8 -13   10.78    3.52
  -1  -8 -13    4.20    5.67
   1  -8 -13    7.64    5.54
   1  -8 -13   15.59    6.99
  -1  -8 -13    8.16    7.02
  -1   8 -14   41.12   13.37
   1   8 -14   31.49   11.86
  -1   8  14   41.73   12.67
   1   8  14   40.48   13.78
  -1   8 -14   59.97   13.20
   1   8 -14   50.18   12.90
  -1  -8 -14   33.20    7.71
   1  -8 -14   38.77    8.84
   1  -8 -14   56.17   11.63
  -1  -8 -14   47.70   12.61
   1   8  15   28.55    9.30
  -1   8 -15   39.47    7.83
   1   8 -15   37.02   12.72
  -1  -8 -15   30.44   11.81
   1  -8 -15   33.02   17.08
   1  -8 -15   51.16   12.84
  -1  -8 -15   29.12   13.54
  -1   8 -16   42.87   14.29
   1   8 -16   54.93   13.44
  -1  -8 -16   35.83   10.49
   1  -8 -16   40.79    8.81
   1  -8 -16   53.08   11.44
  -1  -8 -16   57.27   12.87
  -1   8 -17    3.59    2.90
   1   8 -17    7.29    5.03
   1  -8 -17    8.97    6.53
   1  -8 -17   11.62    8.96
  -1  -8 -17   11.04    6.89
   1   8 -18   42.47   10.21
   1  -8 -18   30.11   15.20
   1  -8 -18   65.38   18.67
  -1  -8 -18   69.09   17.84
   1   8 -19   25.31    7.60
   1  -8 -19   29.00   11.07
  -1  -8 -19   20.64    6.95
  -1   9   0    7.38    2.85
   1   9   0    3.09    2.69
  -1   9  -1  747.09   31.45
  -1   9   1  644.83   27.07
   1   9  -1  727.10   30.83
   1   9   1  683.32   30.48
  -1   9  -2  102.13   19.36
  -1   9   2   88.33   17.88
   1   9  -2   71.08   23.15
   1   9   2   75.04   16.29
  -1   9  -3   42.69    9.56
  -1   9   3   48.11   10.40
   1   9  -3   55.28   10.85
   1   9   3   43.68   12.09
   1   9  -3   58.17   12.25
   1  -9  -3   35.42    9.79
  -1   9  -4  859.90   35.41
  -1   9   4  856.36   35.27
   1   9   4  914.81   37.74
   1   9  -4  855.09   34.24
   1  -9  -4  911.25   36.13
   1   9  -5  167.80   31.72
  -1   9   5  166.77   13.94
   1   9   5  188.80   22.65
   1   9  -5  141.40   28.30
   1  -9  -5  163.12   13.54
  -1  -9  -5  165.60   39.05
  -1   9  -6   55.59    7.95
   1   9  -6   39.27    7.48
  -1   9   6   47.01    7.81
   1   9   6   35.06    6.83
   1   9  -6   38.80    9.78
   1  -9  -6   49.73   11.39
   1  -9  -6   53.22   12.36
  -1  -9  -6   50.72   11.39
  -1   9  -7    9.87    3.59
   1   9  -7    6.61    4.26
  -1   9   7   18.80    4.90
   1   9   7   17.60    4.98
  -1   9  -7   22.17    8.69
   1   9  -7   13.97    9.71
  -1  -9  -7   12.36    3.76
   1  -9  -7   10.68    3.71
  -1  -9  -7   11.22    3.70
  -1   9  -8  111.66   17.71
   1   9  -8   82.35   20.85
  -1   9   8  101.10   14.90
   1   9   8  122.30   27.90
  -1   9  -8  104.70   25.11
   1   9  -8   82.24   20.10
   1  -9  -8  100.14   22.51
  -1  -9  -8   67.98   14.83
   1  -9  -8  123.40   31.00
  -1  -9  -8   70.79   12.23
  -1   9  -9   15.02    5.97
   1   9  -9   17.19    4.60
  -1   9   9   15.36    4.61
   1   9   9   20.35    8.90
   1   9  -9    8.54    3.83
   1  -9  -9   32.41   10.87
  -1  -9  -9    9.62    5.40
   1  -9  -9   15.43    5.30
  -1  -9  -9   24.69    7.54
  -1   9 -10  113.52   20.09
   1   9 -10  143.66   26.10
  -1   9  10  135.28   18.96
   1   9  10  141.99   20.61
   1   9 -10  106.41   18.01
   1  -9 -10  125.95   27.39
  -1  -9 -10   95.20   20.04
   1  -9 -10  129.81   17.81
  -1  -9 -10  125.56   25.32
  -1   9 -11  133.87   25.05
   1   9 -11  157.76    8.12
  -1   9  11  168.03   21.03
   1   9  11  125.54   33.15
   1   9 -11  143.09   23.63
   1  -9 -11  112.92   27.33
  -1  -9 -11  129.47   27.80
   1  -9 -11  129.84   22.74
  -1  -9 -11  156.61   32.66
  -1   9 -12   19.04    3.92
   1   9 -12   27.80    6.88
  -1   9  12   24.42    8.56
   1   9  12   22.09   12.65
  -1   9 -12   31.72    7.36
   1   9 -12   24.91   14.39
   1  -9 -12   32.98    8.52
  -1  -9 -12   26.89    5.22
   1  -9 -12   22.75   10.70
  -1  -9 -12   37.07    9.60
  -1   9 -13  103.41   18.10
   1   9 -13   67.02   17.66
  -1   9  13   90.92   21.13
   1   9  13   86.43   21.22
  -1   9 -13   97.80   27.39
  -1  -9 -13   86.32   28.06
   1  -9 -13   62.60   12.82
   1  -9 -13   86.12   28.54
  -1  -9 -13   93.27   30.47
  -1   9 -14   30.52    9.27
   1   9 -14   29.40   11.20
  -1   9  14   35.73    8.10
   1   9  14   48.10   13.69
  -1   9 -14   44.96    7.45
  -1  -9 -14   31.97   11.36
   1  -9 -14   31.28   12.24
   1  -9 -14   42.89   11.47
  -1  -9 -14   44.12   13.04
   1   9  15   61.35   10.83
  -1   9 -15   49.52   12.35
   1  -9 -15   39.75   11.14
   1  -9 -15   59.02   18.65
  -1  -9 -15   53.36   18.73
  -1   9 -16   60.30   14.48
   1   9 -16   71.11   16.37
   1  -9 -16   37.90   12.25
   1  -9 -16   40.57   11.96
  -1  -9 -16   63.72   22.94
  -1   9 -17   20.82   10.83
   1   9 -17   20.09    9.90
   1  -9 -17   17.51    7.66
   1  -9 -17   23.65    9.51
  -1  -9 -17   29.51    7.68
  -1   9 -18   15.21    9.57
   1   9 -18   11.66    4.52
   1  -9 -18    5.79    2.71
  -1  -9 -18   13.11    6.44
  -1  10   0  207.64   25.54
   1  10   0  184.23   20.19
  -1  10  -1  124.31   26.35
  -1  10   1  127.76   17.78
   1  10  -1  125.44   37.66
   1  10   1  140.75   25.50
  -1  10  -2  302.70   15.45
  -1  10   2  305.60   16.57
   1  10  -2  287.05   14.84
   1  10   2  294.78   15.64
  -1  10  -3  106.77   27.15
  -1  10   3  105.36   21.70
   1  10  -3  109.93   22.62
   1  10   3   96.54   18.55
   1 -10  -3   86.88   16.46
  -1  10  -4  341.61   16.55
  -1  10   4  347.14   26.60
   1  10   4  375.38   18.87
   1  10  -4  317.42   22.65
   1 -10  -4  351.43   41.84
  -1  10   5  108.21   20.72
   1  10   5   95.97   22.21
   1  10  -5   97.33   17.87
   1 -10  -5   89.86   19.64
  -1 -10  -5  101.11   17.75
   1  10  -6  125.66   24.07
  -1  10   6  134.25   25.33
   1  10   6  138.11   26.64
   1  10  -6   90.72   19.72
   1 -10  -6  126.02   28.05
  -1 -10  -6  130.87   26.83
  -1  10  -7   87.03   16.69
   1  10  -7   88.36   21.44
  -1  10   7   86.92   14.60
   1  10   7   92.34   25.64
   1  10  -7   80.44   17.90
   1 -10  -7   79.61   16.04
  -1 -10  -7   81.60   24.62
   1 -10  -7   83.34   16.01
  -1 -10  -7   74.82   15.76
  -1  10  -8   68.33   11.70
   1  10  -8   87.26   14.99
  -1  10   8  108.20   16.07
   1  10   8   81.83   16.58
  -1  10  -8   95.99   18.44
   1  10  -8   61.66   17.34
   1 -10  -8   77.14   14.74
  -1 -10  -8   71.30   17.11
   1 -10  -8   86.36   17.16
  -1 -10  -8   81.34   20.08
  -1  10  -9   27.65   11.98
   1  10  -9   39.65    5.35
  -1  10   9   36.40    6.97
   1  10   9   49.92   14.12
  -1  10  -9   39.14   12.29
   1  10  -9   33.09   11.02
   1 -10  -9   45.70    9.82
  -1 -10  -9   28.40    7.84
   1 -10  -9   34.53    9.98
  -1 -10  -9   38.50    8.90
  -1  10 -10   89.73   22.53
   1  10 -10   97.86   19.39
  -1  10  10  102.60   16.04
   1  10  10   87.68   24.28
  -1  10 -10   87.23   19.81
   1  10 -10  106.43   23.73
   1 -10 -10   89.14   27.19
  -1 -10 -10   92.12   22.42
   1 -10 -10  126.06   24.77
  -1 -10 -10   97.84   26.78
  -1  10 -11   22.51    6.93
   1  10 -11   34.77    7.74
  -1  10  11   36.64    8.66
   1  10  11   27.55    6.24
   1  10 -11   34.09    7.93
   1 -10 -11   32.46    7.90
  -1 -10 -11   28.87   10.68
   1 -10 -11   35.25    6.87
  -1 -10 -11   40.24    7.04
  -1  10 -12    4.56    2.04
   1  10 -12   11.10    5.17
  -1  10  12   15.36    4.47
   1  10  12   10.61    6.70
   1  10 -12    4.59    3.63
   1 -10 -12   21.95    5.35
  -1 -10 -12   11.33    5.72
   1 -10 -12    9.11    5.51
  -1 -10 -12   14.03    5.61
  -1  10 -13   52.68   12.29
   1  10 -13   66.54   24.25
  -1  10  13   59.47   20.73
   1  10  13   63.05   21.25
  -1  10 -13   55.88   13.32
   1  10 -13   82.73   16.24
   1 -10 -13   46.84   14.66
  -1 -10 -13   49.19   15.03
   1 -10 -13   72.64   23.10
  -1 -10 -13   79.53   32.99
   1  10 -14   72.41   16.31
  -1  10  14   66.24   22.07
   1  10  14   96.06   15.08
  -1  10 -14   75.92   24.39
   1 -10 -14   74.23   17.49
  -1 -10 -14   74.41   27.01
   1 -10 -14   95.54   24.75
  -1 -10 -14   92.89   21.42
   1  10  15   12.45    4.52
  -1  10 -15    9.25    6.33
  -1 -10 -15    5.32    4.33
   1 -10 -15    4.67    3.22
   1 -10 -15   14.58    5.49
  -1 -10 -15   26.51    5.98
  -1  10 -16   25.96    7.42
   1  10 -16   26.67   10.05
   1 -10 -16    7.80    4.82
   1 -10 -16   20.68    4.89
  -1 -10 -16   15.95    6.59
  -1  10 -17   14.49    6.52
   1  10 -17    6.73    3.76
   1 -10 -17    9.03    5.44
   1 -10 -17   18.73    6.90
  -1 -10 -17   15.14    7.78
  -1  11   0  145.17   47.20
   1  11   0  163.17   35.93
  -1  11  -1  217.57   40.78
  -1  11   1  263.25   43.11
   1  11  -1  204.54   17.32
   1  11   1  228.46   39.75
  -1  11  -2   56.46   11.97
  -1  11   2   84.04   14.50
   1  11  -2  104.44    9.48
   1  11   2   87.45   16.11
  -1  11  -3  131.22   19.80
  -1  11   3  154.52   35.38
   1  11  -3  149.69   36.74
   1  11   3  182.00   37.84
   1 -11  -3  125.18   13.69
  -1  11  -4   29.64    9.88
  -1  11   4   22.94    8.90
   1  11  -4   14.46    5.69
   1  11   4   31.24    9.30
   1 -11  -4   13.81    6.76
  -1  11  -5  125.78   30.92
  -1  11   5  142.71   27.56
   1  11   5  137.54   34.04
   1  11  -5  131.30   27.15
   1 -11  -5  141.51   31.95
  -1 -11  -5  154.47   24.30
   1  11  -6   14.57   11.21
  -1  11   6    7.44    3.49
   1  11   6    2.32    4.49
   1  11  -6   19.41    8.80
   1 -11  -6   18.42    8.03
  -1 -11  -6    8.45    4.81
  -1  11  -7   22.02    6.97
   1  11  -7   38.56   11.84
  -1  11   7   40.19   12.81
   1  11   7   25.41    7.91
   1  11  -7   40.01   15.41
   1 -11  -7   37.95    7.73
  -1 -11  -7   33.07    8.74
   1 -11  -7   45.21   11.70
  -1 -11  -7   46.21    8.21
  -1  11  -8   28.80    8.76
   1  11  -8   41.84   12.59
  -1  11   8   42.22    9.19
   1  11   8   35.34    9.33
   1  11  -8   48.35   13.31
   1 -11  -8   27.32    6.74
  -1 -11  -8   25.10    6.33
   1 -11  -8   32.65    7.16
  -1 -11  -8   47.63   11.10
  -1  11  -9  105.14   23.84
   1  11  -9  111.32   20.02
  -1  11   9   92.77   17.20
   1  11   9  129.26   28.92
   1  11  -9   84.88   23.66
   1 -11  -9   76.76   17.15
  -1 -11  -9  116.07   26.94
   1 -11  -9   99.19   22.46
  -1 -11  -9  130.81   26.51
  -1  11 -10   47.16   14.45
   1  11 -10   54.60   15.52
  -1  11  10   42.17    9.81
   1  11  10   51.82   11.16
  -1  11 -10   34.70   11.31
   1  11 -10   53.24   13.38
   1 -11 -10   54.13   10.40
  -1 -11 -10   50.83   16.48
   1 -11 -10   55.51   13.48
  -1 -11 -10   44.18    8.69
  -1  11 -11  129.57   28.82
   1  11 -11  126.22   34.48
  -1  11  11  138.58   33.98
   1  11  11  157.72   32.82
  -1  11 -11  148.32   34.55
   1  11 -11  140.20   27.59
   1 -11 -11  105.58   29.21
  -1 -11 -11  104.58   22.94
   1 -11 -11  127.49   36.40
  -1 -11 -11  137.02   28.37
  -1  11 -12   48.97   13.36
   1  11 -12   38.03   16.66
  -1  11  12   50.99    8.63
   1  11  12   46.72   20.22
   1  11 -12   48.48   10.77
   1 -11 -12   44.91   18.24
  -1 -11 -12   54.59   14.92
   1 -11 -12   61.28   17.29
  -1 -11 -12   43.99   11.36
  -1  11 -13   22.84    6.06
   1  11 -13   24.64    5.90
  -1  11  13   24.80    8.33
   1  11  13   24.92   10.04
   1  11 -13   21.21    7.86
   1 -11 -13   27.33    7.30
  -1 -11 -13   20.65   10.09
   1 -11 -13   34.47   10.65
  -1 -11 -13   24.53    9.60
  -1  11 -14   40.07   16.10
   1  11 -14   35.09   12.12
  -1  11  14   31.25   18.61
   1  11  14   44.05   13.66
  -1  11 -14   36.15   12.22
   1  11 -14   41.71   14.87
   1 -11 -14   27.10   14.53
  -1 -11 -14   33.44   12.20
   1 -11 -14   47.20   14.02
  -1 -11 -14   27.09   19.51
   1  11  15    7.84    5.70
  -1  11 -15    8.07    6.13
   1  11 -15   11.71    6.16
  -1 -11 -15   14.51    7.40
   1 -11 -15    7.47    5.95
   1 -11 -15   15.26    7.01
  -1 -11 -15   18.38    7.37
  -1  11 -16   -1.04    4.17
   1 -11 -16    7.44    6.69
   1 -11 -16   16.69    6.99
  -1 -11 -16   15.80    9.54
  -1  11 -17   53.62   21.62
   1  11 -17   57.18   24.46
   1 -11 -17   81.96   30.68
  -1 -11 -17   55.75   27.41
  -1  12   0    8.07    9.39
   1  12   0   13.37    5.60
  -1  12  -1  119.19   23.56
  -1  12   1  144.32   22.93
   1  12  -1  104.56   19.18
   1  12   1  128.40   23.07
  -1  12  -2   30.39    8.68
  -1  12   2   36.94   12.44
   1  12  -2   42.11    8.04
   1  12   2   24.53    7.82
  -1  12  -3  132.98   30.66
  -1  12   3  127.45   17.27
   1  12  -3  141.43   35.94
   1  12   3  145.78   18.23
   1 -12  -3  121.75   24.72
  -1  12  -4  254.79   49.74
  -1  12   4  285.39   29.25
   1  12  -4  256.00   46.77
   1  12   4  240.88   33.58
   1 -12  -4  286.74   20.16
  -1  12  -5    9.02    3.23
  -1  12   5   23.58    7.95
   1  12   5   24.72    6.04
   1 -12  -5   18.19    5.37
  -1 -12  -5   14.40    6.03
   1  12  -6   23.52    7.37
  -1  12   6   16.08    4.89
   1  12   6   17.61    7.66
   1 -12  -6   12.73    3.10
  -1 -12  -6   13.37    5.96
  -1  12  -7  102.74   25.96
   1  12  -7  122.98   26.92
  -1  12   7  122.34   17.15
   1  12   7  129.70   18.20
   1  12  -7  115.42   31.41
   1 -12  -7   89.23   21.92
  -1 -12  -7  103.84   23.96
   1 -12  -7  112.34   17.29
  -1 -12  -7  113.48   19.43
  -1  12  -8  166.12   35.46
   1  12  -8  173.50   30.60
  -1  12   8  220.12   22.93
   1  12   8  171.92   32.60
   1  12  -8  172.47   41.84
   1 -12  -8  158.55   35.69
  -1 -12  -8  164.10   41.44
   1 -12  -8  189.55   37.35
  -1 -12  -8  193.28   29.58
  -1  12  -9   42.87   13.44
   1  12  -9   30.98   10.33
  -1  12   9   43.64   10.99
   1  12   9   54.35   14.03
   1  12  -9   53.47   18.56
   1 -12  -9   47.33   11.36
  -1 -12  -9   43.05   15.54
   1 -12  -9   36.05   10.30
  -1 -12  -9   30.87    7.99
  -1  12 -10   28.02    7.46
   1  12 -10   30.98    9.93
  -1  12  10   37.59   10.87
   1  12  10   25.25    7.24
   1  12 -10   27.03    8.98
   1 -12 -10   33.87   12.74
  -1 -12 -10   20.30    4.38
   1 -12 -10   29.93    9.17
  -1 -12 -10   45.76   11.79
  -1  12 -11   24.45    6.67
   1  12 -11   26.90    8.02
  -1  12  11   31.06    6.28
   1  12  11   29.40   12.02
   1  12 -11   28.18    8.59
   1 -12 -11   10.38    6.91
  -1 -12 -11   20.37    5.19
   1 -12 -11   26.57    9.53
  -1 -12 -11   34.85   12.76
  -1  12 -12   15.65    6.23
   1  12 -12   14.07    6.07
  -1  12  12   17.86    5.95
   1  12  12   19.44    4.58
   1  12 -12   17.79    5.68
   1 -12 -12    2.94    5.11
  -1 -12 -12   11.99    3.88
   1 -12 -12   13.18    5.77
  -1 -12 -12   10.84    4.59
  -1  12 -13    9.33    3.12
   1  12 -13    5.67    3.31
  -1  12  13   16.19    7.83
   1  12  13    7.17    5.41
   1  12 -13   14.84    5.01
   1 -12 -13   14.05    5.37
  -1 -12 -13   14.41    8.34
   1 -12 -13    8.37    6.88
  -1 -12 -13    9.29    7.39
  -1  12 -14   15.16    6.09
  -1  12  14   15.20    6.73
   1  12  14   13.75    7.07
   1  12 -14   21.77    9.64
   1 -12 -14   10.23    6.56
  -1 -12 -14    4.77    3.15
   1 -12 -14   28.46   10.90
  -1 -12 -14    4.59    4.97
   1  12  15   22.04    8.18
  -1  12 -15   23.34    9.18
   1  12 -15   35.65   10.86
   1 -12 -15   26.65   14.62
   1 -12 -15   36.51   10.89
  -1 -12 -15   56.21   10.66
  -1  12 -16    7.60    6.22
   1  12 -16    8.78    4.15
   1 -12 -16   15.90    6.82
   1 -12 -16   11.23    5.79
  -1 -12 -16   13.67    5.24
  -1  13   0   64.63   20.74
   1  13   0   75.08   11.89
  -1  13  -1  236.62   50.07
  -1  13   1  249.75   39.61
   1  13  -1  232.68   13.88
   1  13   1  261.41   51.11
  -1  13  -2   34.34    8.84
  -1  13   2   24.52    6.89
   1  13  -2   30.45    7.92
   1  13   2   14.76    5.12
  -1  13  -3   17.38    7.34
  -1  13   3   42.61   12.29
   1  13  -3   22.47    8.33
   1  13   3   23.22   10.79
   1 -13  -3   11.87    6.93
  -1  13  -4   15.52    5.99
  -1  13   4   14.05    6.36
   1  13  -4   18.83    5.54
   1  13   4   26.41    7.52
   1 -13  -4   10.91    4.88
  -1  13  -5  216.54   42.39
   1  13  -5  247.44   48.60
  -1  13   5  231.48   35.02
   1  13   5  224.51   39.63
   1 -13  -5  210.12   19.34
  -1 -13  -5  221.32   22.78
  -1  13  -6   20.15    4.32
  -1  13   6   21.10    5.92
   1  13   6    5.30    5.38
   1 -13  -6    7.98    4.35
  -1 -13  -6   17.43    5.90
   1  13  -7  193.46   41.29
  -1  13   7  203.43   26.16
   1  13   7  187.36   34.29
   1 -13  -7  172.70   33.98
  -1 -13  -7  195.23   37.82
   1 -13  -7  172.39   38.02
  -1 -13  -7  171.87   44.47
  -1  13  -8   48.07   11.06
   1  13  -8   43.00    8.14
  -1  13   8   42.45    7.84
   1  13   8   68.70   16.55
   1 -13  -8   54.31   14.68
  -1 -13  -8   53.39   13.71
   1 -13  -8   53.81   15.33
  -1 -13  -8   31.39   12.38
  -1  13  -9    6.51    3.26
   1  13  -9    3.70    5.56
  -1  13   9    7.84    4.50
   1  13   9   10.04    4.89
   1  13  -9    3.82    4.75
   1 -13  -9   12.90    6.87
  -1 -13  -9   10.17    6.35
   1 -13  -9   13.65    5.98
  -1 -13  -9    5.35    4.40
  -1  13 -10   18.61    9.97
   1  13 -10   14.14    8.50
  -1  13  10   13.57    7.09
   1  13  10   23.84    8.45
   1  13 -10   19.44    6.62
   1 -13 -10   29.22   10.26
  -1 -13 -10   32.30   10.73
   1 -13 -10   32.26    9.43
  -1 -13 -10   16.41    5.89
  -1  13 -11   89.36   22.79
   1  13 -11   86.88   25.39
  -1  13  11   76.45   27.36
   1  13  11  113.02   17.99
   1  13 -11   71.99   14.43
   1 -13 -11   83.12   28.07
  -1 -13 -11   60.35   20.62
   1 -13 -11   94.59   28.22
  -1 -13 -11   88.91   32.81
  -1  13 -12   40.60   17.08
   1  13 -12   35.49   13.23
  -1  13  12   46.18   18.67
   1  13  12   40.31   17.04
   1  13 -12   49.02   16.00
   1 -13 -12   34.24   11.79
  -1 -13 -12   53.97   15.66
   1 -13 -12   37.47   12.03
  -1 -13 -12   51.84   16.87
  -1  13 -13   31.46    8.87
   1  13 -13   24.43    7.68
  -1  13  13   22.10    6.21
   1  13  13   20.17    8.61
   1  13 -13   20.36    7.90
   1 -13 -13   16.60    5.33
  -1 -13 -13   21.97    6.67
   1 -13 -13   21.10   12.89
  -1 -13 -13   27.06    7.16
  -1  13 -14    7.57    4.16
  -1  13  14    6.39    3.53
   1  13  14    5.74    3.80
   1  13 -14   -1.59    5.10
   1 -13 -14    8.52    4.81
  -1 -13 -14    6.40    2.78
   1 -13 -14    9.13    3.44
  -1 -13 -14    5.68    4.01
   1  13  15   10.86    8.38
   1  13 -15   12.03    6.51
   1 -13 -15    4.77    5.52
   1 -13 -15   10.33    5.25
  -1 -13 -15   13.88    4.13
  -1  14   0   10.60    4.82
   1  14   0    3.93    4.31
  -1  14  -1   71.09   16.64
  -1  14   1   67.50   15.82
   1  14  -1   87.96   19.94
   1  14   1   85.42   23.04
  -1  14  -2  141.74   34.22
  -1  14   2  187.76   30.38
   1  14  -2  172.03   28.89
   1  14   2  143.40   38.09
   1 -14  -2  124.44   23.04
  -1  14  -3  143.31   23.41
  -1  14   3  151.87   25.71
   1  14  -3  165.98   26.13
   1  14   3  148.21   34.72
   1 -14  -3  158.04   20.07
  -1  14  -4   19.90    6.45
   1  14  -4    7.17    6.68
  -1  14   4   12.32   10.00
   1  14   4   15.41    4.18
   1 -14  -4    8.62    6.99
  -1 -14  -4   18.02    6.60
  -1  14  -5   47.17   13.28
   1  14  -5   46.92   12.71
  -1  14   5   78.15   17.45
   1  14   5   67.39   17.28
   1 -14  -5   56.39   19.07
  -1 -14  -5   50.63   17.45
  -1  14  -6   85.94   18.14
  -1  14   6  106.21   25.53
   1  14   6  115.14   19.20
   1 -14  -6   92.26   23.93
  -1 -14  -6  103.54   19.14
   1  14  -7   66.15   22.66
  -1  14   7   74.21   23.16
   1  14   7   57.51   12.76
  -1 -14  -7   49.13   18.25
   1 -14  -7   63.59   24.27
  -1 -14  -7   64.15   17.45
  -1  14  -8   20.31    9.45
   1  14  -8   23.29    9.28
  -1  14   8    5.07    5.59
   1  14   8    8.38    7.25
   1 -14  -8   19.91    8.14
  -1 -14  -8   15.17    6.81
   1 -14  -8    7.42    5.83
  -1 -14  -8    3.95    5.88
  -1  14  -9   67.43   23.93
   1  14  -9   82.68   18.48
  -1  14   9   86.47   17.79
   1  14   9   87.53   19.28
   1 -14  -9   74.93   26.06
  -1 -14  -9   75.37   19.71
   1 -14  -9   78.50   27.60
  -1 -14  -9   93.18   30.76
  -1  14 -10   27.26    8.95
   1  14 -10   28.04    9.42
  -1  14  10   28.40    9.65
   1  14  10   32.13   10.32
   1 -14 -10   18.23    6.83
  -1 -14 -10   22.57    8.73
   1 -14 -10   29.26    9.30
  -1 -14 -10   12.63    7.85
  -1  14 -11   40.61   10.06
   1  14 -11   24.99   10.43
  -1  14  11   27.40    9.10
   1  14  11   27.42   15.11
   1 -14 -11   16.66    4.91
  -1 -14 -11   16.91    9.29
   1 -14 -11   17.20    4.59
  -1 -14 -11   40.58   15.75
  -1  14 -12   18.99    5.64
   1  14 -12    7.17    5.67
  -1  14  12    6.28    6.08
   1  14  12    7.01    7.06
   1  14 -12    8.18    4.69
   1 -14 -12    7.29    8.60
  -1 -14 -12   11.54    8.99
   1 -14 -12    7.39    4.76
  -1 -14 -12    3.68    4.50
  -1  14 -13   27.94   10.47
   1  14 -13   28.04   11.05
   1  14  13   10.56    5.24
   1  14 -13   43.94   11.31
   1 -14 -13   19.02   10.34
  -1 -14 -13   27.08    8.01
   1 -14 -13   34.63    9.77
  -1 -14 -13   27.39   11.05
  -1  15   0   16.13   10.09
   1  15   0   17.42    5.02
  -1  15  -1   72.00   20.36
  -1  15   1   64.09   21.95
   1  15  -1   85.20   20.20
   1  15   1   57.03   15.94
  -1  15  -2   23.15    9.44
  -1  15   2    9.56    4.39
   1  15  -2    9.61    7.84
   1  15   2   14.50    7.29
   1 -15  -2   19.76    4.36
  -1  15  -3    3.43    3.61
  -1  15   3   20.47    7.43
   1  15  -3   22.22    6.08
   1  15   3   21.76    7.35
   1 -15  -3   14.95    6.06
  -1  15  -4   68.67   22.61
   1  15  -4   72.17   19.57
  -1  15   4   71.12   17.14
   1  15   4   65.95   20.66
   1 -15  -4   53.67   20.43
  -1 -15  -4   58.53   28.68
  -1  15  -5   73.22   19.73
   1  15  -5   60.21   20.38
  -1  15   5   40.09   14.00
   1  15   5   45.22   11.03
   1 -15  -5   56.86   19.45
  -1 -15  -5   77.52   15.18
  -1  15  -6  121.83   39.68
   1  15  -6  132.38   29.86
  -1  15   6  149.19   30.18
   1  15   6  133.80   27.77
   1 -15  -6  130.50   29.92
  -1 -15  -6  125.41   24.16
  -1  15  -7    8.16    7.21
  -1  15   7   33.38    7.60
   1  15   7   24.59   11.23
  -1 -15  -7   30.22    7.92
   1 -15  -7   32.40    8.36
  -1 -15  -7   28.04    9.57
   1  15  -8   26.34    6.25
  -1  15   8   28.29   11.72
   1  15   8   33.79   10.19
   1 -15  -8   22.58   11.36
  -1 -15  -8   23.18   11.46
   1 -15  -8   31.07   10.71
  -1 -15  -8   31.73   10.50
  -1  15  -9    5.81    3.46
   1  15  -9   -0.02    4.87
  -1  15   9    9.99    5.62
   1  15   9    4.24    4.07
   1 -15  -9   19.05    9.10
  -1 -15  -9   13.49    5.26
   1 -15  -9   10.95    5.63
  -1 -15  -9    5.16    3.51
  -1  15 -10   27.00   11.61
   1  15 -10   34.15   12.11
  -1  15  10   26.38    8.21
   1  15  10   26.43    9.34
   1 -15 -10   30.92   12.34
  -1 -15 -10   22.46    7.86
   1 -15 -10   32.66    7.53
  -1 -15 -10   34.34   10.52
  -1  15 -11   52.39   20.14
   1  15 -11   50.43   22.45
  -1  15  11   59.32   19.49
   1  15  11   65.12   32.48
   1 -15 -11   56.31   24.55
  -1 -15 -11   39.85   14.20
   1 -15 -11   56.99   29.37
  -1 -15 -11   54.83   19.97
   1  15 -12    8.77    3.12
  -1  15  12   19.59    5.64
   1 -15 -12    6.00    5.92
   1 -15 -12    5.44    5.18
  -1 -15 -12   21.93   10.04
  -1  16   0   26.43   11.80
   1  16   0   45.18   11.19
  -1  16  -1   24.24   10.01
  -1  16   1   21.12   14.26
   1  16  -1   21.78   14.50
   1  16   1   27.25    9.44
  -1  16  -2   10.08    5.77
  -1  16   2   11.57    9.86
   1  16  -2    4.78    5.23
   1  16   2   -0.13    4.33
   1 -16  -2    4.54    3.08
  -1  16  -3   69.02   18.22
  -1  16   3   74.11   21.28
   1  16  -3   65.52   21.76
   1  16   3   55.92   23.53
   1 -16  -3   52.26   12.93
  -1  16  -4   12.24    6.57
   1  16  -4   13.52   11.21
  -1  16   4   22.61    6.38
   1  16   4   16.09    7.60
   1 -16  -4   14.37    7.35
  -1 -16  -4   15.83    4.68
  -1  16  -5   28.66   14.51
   1  16  -5   34.61   11.93
  -1  16   5   37.89   10.67
   1  16   5   34.94   12.99
   1 -16  -5   25.99   12.38
   1 -16  -5   26.38    7.61
  -1 -16  -5   33.55   10.91
  -1  16  -6   14.38    6.16
   1  16  -6   10.71    3.89
  -1  16   6   13.70    4.71
   1  16   6   14.08    6.28
  -1 -16  -6   15.27    4.89
  -1  16  -7   46.41   16.86
  -1  16   7   40.90   21.75
   1  16   7   58.05   16.05
  -1 -16  -7   55.53   12.36
   1 -16  -7   46.81   17.23
  -1 -16  -7   65.75   20.41
   1  16  -8   14.25    7.57
  -1  16   8   11.87    7.93
   1  16   8   17.57    8.11
   1 -16  -8   13.32    6.40
  -1 -16  -8   25.81   11.48
   1 -16  -8   23.94    9.12
  -1 -16  -8   14.97    4.59
  -1  16  -9   32.76   11.33
   1  16  -9   24.76    9.32
  -1  16   9   14.81    5.22
   1  16   9   15.27    9.59
   1 -16  -9   31.21   14.27
  -1 -16  -9   24.61    8.41
   1 -16  -9   33.52   10.00
  -1 -16  -9   21.38    8.94
  -1  16 -10    5.34    2.78
   1  16 -10    5.74    5.73
  -1  16  10    0.62    6.66
   1  16  10   10.19    6.09
   1 -16 -10   -0.65    6.92
  -1 -16 -10   16.14    8.11
  -1 -16 -10    3.47    4.79
  -1  17   0   82.37   29.68
   1  17   0   96.00   37.48
  -1  17  -1   31.76   11.78
  -1  17   1   21.68    9.03
   1  17  -1   26.60   12.07
   1  17   1    8.03   10.96
   1 -17  -1   15.79    5.38
  -1  17  -2   13.73    7.96
  -1  17   2   19.94   10.05
   1  17  -2   29.37   11.00
   1  17   2   13.83    4.83
   1 -17  -2   11.43    5.99
  -1  17  -3    7.93    5.60
  -1  17   3    2.71    3.99
   1  17  -3   25.80    7.66
   1  17   3   21.44    7.23
   1 -17  -3    7.51    4.96
  -1 -17  -3   10.40    7.02
  -1  17  -4   12.24    3.23
  -1  17   4   32.39   11.28
   1  17  -4   27.29    5.98
   1  17   4   16.65    6.17
   1 -17  -4   27.22    8.40
  -1 -17  -4   28.18   10.14
  -1  17  -5   17.72    5.95
   1  17  -5   18.55    8.06
  -1  17   5   20.54    8.74
   1  17   5   16.33    5.86
   1 -17  -5    8.61    5.43
   1 -17  -5   21.84   10.78
  -1 -17  -5   22.13   11.33
  -1  17  -6    7.97    5.69
   1  17  -6   14.41    4.16
  -1  17   6   28.53   17.37
   1  17   6   24.02    9.16
   1 -17  -6   36.29   19.35
  -1 -17  -6   21.61   10.33
   1 -17  -6   27.71   11.02
  -1 -17  -6   24.48   10.30
  -1  17  -7   20.86   10.18
  -1  17   7   14.12    8.85
   1  17   7   33.25    9.24
  -1 -17  -7    0.80    8.07
   1 -17  -7   13.48    6.58
  -1 -17  -7   15.39    8.31
   1  17  -8    8.96    6.62
  -1  17   8    9.14    7.61
   1  17   8   15.06    6.28
   1 -17  -8    9.66    8.87
  -1 -17  -8    7.22    4.77
   1 -17  -8    7.06    6.13
  -1 -17  -8    5.81    5.89
  -1  18   0   20.81    7.18
   1  18   0   41.26   13.91
   1 -18   0   18.63    6.61
  -1  18  -1   32.75   19.87
  -1  18   1   34.82   14.80
   1  18  -1   35.33   17.07
   1  18   1   31.39   15.90
   1 -18  -1   16.07   13.85
  -1  18  -2   13.88    5.72
  -1  18   2   11.27   10.49
   1  18  -2   21.45    9.63
   1  18   2   14.41   10.75
   1 -18  -2    8.35    5.14
  -1 -18  -2    9.83    4.69
  -1  18  -3   19.70    8.41
  -1  18   3   31.78    9.07
   1  18  -3   26.95   10.60
   1  18   3   19.50   10.32
  -1 -18  -3   25.48    7.22
  -1  18  -4    4.60    5.14
   1  18  -4   20.60    7.70
  -1  18   4    7.61    7.69
   1  18   4   16.73    9.25
   1 -18  -4   -0.29    2.57
  -1 -18  -4    7.51    3.10
  -1  18  -5   10.67    4.61
   1  18  -5   13.29    9.64
  -1  18   5    6.62    4.69
   1  18   5   15.10    8.28
   1 -18  -5    1.00    4.82
   1 -18  -5    8.52    5.41
  -1 -18  -5    7.93    4.18
  -2   0   0   24.55    4.21
   2   0   0   25.07    2.76
  -2   0   0   27.98    3.40
   2   0   1    6.52    1.38
   2   0  -1    7.29    1.54
  -2   0  -1    3.54    1.89
  -2   0   1    6.32    1.86
   2   0  -1    6.78    3.38
  -2   0   1    2.91    1.36
   2   0   1    6.28    1.54
  -2   0  -1    4.60    1.29
   2   0   2  664.78   11.70
   2   0  -2  652.55    9.63
  -2   0  -2  632.53   10.30
  -2   0   2  634.09    9.33
   2   0  -2  651.27   10.93
  -2   0   2  617.24    9.45
  -2   0  -2  640.46    9.61
   2   0  -3   48.21    4.33
   2   0  -3   57.11   11.41
   2   0   3   59.32   15.21
  -2   0  -3   51.15    8.84
   2   0   3   46.01    2.98
   2   0  -3   59.34   12.92
  -2   0   3   44.60    7.40
   2   0  -3   55.21    9.93
  -2   0  -3   55.69   10.97
   2   0   3   50.45   11.97
   2   0  -4    1.44    0.98
   2   0  -4    2.67    1.40
   2   0   4   -2.88    3.74
  -2   0  -4    3.16    2.85
  -2   0  -4    3.24    1.31
   2   0   4    2.15    1.38
   2   0  -4    3.21    2.12
  -2   0   4   -3.60    4.28
   2   0  -4    4.61    1.72
  -2   0   4    2.93    3.28
  -2   0  -4   11.10    3.72
   2   0   4    3.82    2.38
   2   0  -5 2502.02   28.90
   2   0  -5 2399.64   27.86
   2   0   5 2491.72   32.57
  -2   0  -5 2347.77   30.38
  -2   0  -5 2511.50   30.05
   2   0   5 2445.92   29.45
   2   0  -5 2349.69   32.07
   2   0   5 2417.63   32.02
   2   0   6  546.22   17.38
  -2   0  -6  529.98   25.94
  -2   0  -6  570.29   17.50
   2   0   6  542.04   16.10
   2   0  -6  561.99   18.68
   2   0   7  290.16   16.34
  -2   0  -7  264.88   13.64
  -2   0  -7  287.69   14.29
   2   0   7  263.98   13.82
   2   0  -7  293.72   16.21
   2   0   8    3.59    4.70
   2   0   8    2.52    1.08
  -2   0  -8   -1.75    1.86
   2   0  -8    3.92    1.94
   2   0   8    1.28    2.04
   2   0  -8    1.04    1.89
   2   0   9   70.04    9.21
   2   0   9   87.50   12.88
  -2   0  -9   90.33   13.49
   2   0  -9   99.91   19.23
   2   0   9   71.71    8.03
   2   0  -9   92.53   17.61
   2   0  10  472.18   20.56
   2   0  10  513.50   20.62
  -2   0 -10  532.24   22.65
   2   0 -10  513.63   22.39
   2   0 -10  496.12   22.40
   2   0  11  156.51   17.69
  -2   0 -11  144.07   18.95
   2   0 -11  139.83   25.86
   2   0 -11  131.12   14.52
  -2   0 -11  133.09   14.71
   2   0  12    3.04    2.02
  -2   0 -12    1.96    2.04
   2   0 -12    4.19    4.11
   2   0 -12    9.30    3.87
  -2   0 -12    9.32    4.45
   2   0  13   19.08    6.38
  -2   0 -13   19.99    6.97
   2   0 -13   24.20    9.86
   2   0 -13   34.83    7.53
  -2   0 -13   15.22    6.78
   2   0  14   68.63   10.33
  -2   0 -14   66.60   16.98
   2   0 -14   62.75   12.88
   2   0 -14   68.08   10.94
  -2   0 -14   81.30   19.11
   2   0  15   10.32    4.37
  -2   0 -15    1.52    2.00
   2   0 -15   14.77    6.74
   2   0 -15    9.36    6.32
  -2   0 -15   -2.00    5.46
  -2   0 -16    0.37    2.20
   2   0 -16    2.54    3.79
   2   0 -16   14.01    6.51
  -2   0 -16   -2.56    5.80
  -2   0 -17   35.76   11.50
   2   0 -17   30.62   16.76
   2   0 -17   44.41    9.96
  -2   0 -17   29.85   10.02
   2   0 -18  238.54   11.62
   2   0 -18  221.52   35.18
  -2   0 -18  235.96   36.07
   2   0 -19   30.98    9.24
   2   0 -19   37.38   11.54
  -2   0 -19   43.12   12.55
   2   0 -20   24.83    7.91
   2   0 -20   17.04    5.40
  -2   0 -20   32.83   16.68
   2   0 -21   12.65    6.51
   2   0 -21   13.72    5.92
  -2   0 -21   28.03    8.28
   2  -1   0  657.58   10.06
  -2  -1   0  651.32   10.18
   2   1   0  650.25    9.43
  -2  -1   0  642.08    9.32
   2  -1   0  644.61   10.03
  -2   1   0  652.68    9.97
   2  -1  -1  702.64   10.42
   2   1  -1  726.19   11.29
   2   1   1  665.13   10.66
  -2  -1   1  680.85   10.25
   2   1   1  672.45    8.84
  -2  -1   1  662.89   10.28
   2  -1  -1  670.30   11.02
   2  -1   1  729.89   10.44
   2  -1  -1  677.42    9.48
  -2   1   1  731.22    9.85
   2  -1   2 2103.59   27.10
  -2   1   2 2134.79   26.49
   2  -1  -2 2188.04   26.84
   2   1  -2 2089.98   26.21
   2   1   2 2176.11   28.31
  -2  -1   2 2211.44   27.35
  -2  -1  -2 2048.51   26.67
  -2  -1  -2 2097.86   24.19
  -2  -1   2 2223.25   28.74
   2  -1  -2 2200.68   29.09
  -2   1   2 2038.76   27.26
   2  -1  -2 2201.12   27.39
  -2   1  -2 2222.91   26.65
   2  -1   2 2056.42   24.86
   2  -1  -3  310.72    5.77
   2   1  -3  248.96   15.35
   2   1   3  325.62    9.31
  -2  -1   3  308.12   10.41
  -2  -1  -3  241.31   14.58
   2  -1   3  252.38   17.54
  -2  -1   3  313.03   10.80
  -2   1   3  241.71   15.14
  -2  -1   3  304.78    7.87
   2  -1  -3  312.66    7.67
   2  -1   4  275.62   15.83
  -2   1   4  275.91   15.51
   2  -1  -4  285.61    9.52
   2   1  -4  271.29   15.07
   2   1   4  273.71   16.30
  -2  -1   4  279.43    9.85
  -2  -1  -4  265.39   15.45
   2  -1   4  285.78   11.04
  -2   1  -4  280.32    9.91
   2  -1   4  275.42   15.32
  -2  -1  -4  284.92    8.95
   2   1  -4  287.70    9.09
  -2  -1   4  266.60   16.07
  -2   1   4  247.50   18.67
   2   1   4  278.63    8.96
  -2  -1   4  264.19   15.54
   2  -1  -4  273.92   16.22
  -2   1   4  270.16   15.81
  -2   1  -4  294.58    6.98
   2  -1   4  278.11   10.36
   2   1   4  268.34   15.77
   2  -1   5  106.82    7.71
  -2   1   5  104.97    6.49
   2  -1  -5   84.81    5.35
   2   1  -5   96.43    5.63
   2   1   5   99.63   10.75
  -2  -1   5   77.51    5.47
  -2  -1  -5  106.40    9.39
   2  -1   5  127.74   15.04
  -2   1  -5   77.42    5.24
   2  -1   5   99.05    7.41
  -2  -1  -5  100.50    5.89
   2   1  -5   90.80    6.99
   2   1   5   82.03    5.37
   2   1  -5   96.91    7.53
   2  -1  -5   80.31   19.31
  -2   1  -5   80.72    6.24
   2  -1   5   97.69   15.76
  -2   1   6  388.14   18.48
   2  -1   6  356.49   17.90
   2   1  -6  341.81   16.01
   2  -1  -6  352.95   16.74
   2   1   6  375.99   19.19
  -2  -1  -6  352.81   17.79
   2  -1   6  378.38   19.53
  -2  -1   6  344.14   16.17
  -2   1  -6  369.27   18.11
   2  -1   6  369.10   18.06
  -2  -1  -6  377.91   18.15
   2   1   6  377.35   18.23
   2   1  -6  331.30   19.81
   2  -1  -6  327.99   17.32
  -2   1  -6  380.41   19.75
  -2   1   7  405.64   19.03
   2  -1   7  383.51   19.09
   2  -1  -7  430.61   20.22
   2   1   7  426.51   21.54
   2  -1   7  410.58   20.69
  -2  -1  -7  379.62   20.07
  -2   1  -7  443.97   21.97
  -2  -1  -7  406.08   19.69
   2  -1   7  386.17   19.04
   2   1   7  420.17   20.34
   2   1  -7  384.13   20.04
   2  -1  -7  395.20   22.63
  -2   1  -7  436.74   25.69
   2  -1   8   34.26    8.12
   2   1   8   45.20   11.79
   2  -1   8   45.63   11.53
  -2  -1  -8   30.62    8.82
  -2   1  -8   46.60    9.10
  -2  -1  -8   34.84    8.20
   2  -1   8   32.72    7.19
   2  -1  -8   53.05   12.33
   2   1   8   35.13    5.09
   2   1  -8   35.71    9.41
   2  -1  -8   44.49   12.75
  -2   1  -8   45.82    8.81
  -2  -1  -8   45.14   10.58
   2  -1   9  561.42   21.80
   2   1   9  680.49   24.54
   2  -1   9  630.15   23.05
  -2  -1  -9  571.10   20.35
  -2   1  -9  637.52   23.55
  -2  -1  -9  607.79   21.75
   2   1  -9  622.66   24.27
   2  -1  -9  670.09   25.76
   2  -1   9  577.28   20.71
   2   1   9  625.19   22.08
   2   1  -9  574.52   30.42
   2  -1  -9  630.11   24.45
  -2  -1  -9  615.03   25.26
   2  -1  10  265.31   10.50
   2   1  10  224.92    9.97
   2  -1  10  262.77   10.93
  -2   1 -10  227.69   15.22
  -2  -1 -10  272.59   11.24
   2   1 -10  283.08   12.85
   2  -1 -10  223.33   17.83
   2   1 -10  240.10   12.88
  -2  -1 -10  270.96   13.58
   2   1  11  128.33   15.62
   2  -1  11  138.42   11.07
  -2   1 -11  138.96    7.92
  -2  -1 -11  143.74    5.74
   2   1 -11  160.51   24.28
   2  -1 -11  133.62   33.07
   2   1 -11  132.13   27.28
   2  -1 -11  107.16   25.50
  -2  -1 -11  142.83   24.26
   2   1  12   16.84    4.96
   2  -1  12   17.05    6.51
  -2   1 -12   17.64    5.58
  -2  -1 -12   22.24    5.65
   2   1 -12   11.02    6.17
   2  -1 -12   16.94    6.58
   2   1 -12   20.35    7.33
   2  -1 -12   20.45    5.37
  -2  -1 -12    9.71    4.16
   2   1  13  280.56   10.12
   2  -1  13  293.74   10.38
  -2   1 -13  288.16   12.12
  -2  -1 -13  292.01   13.01
   2   1 -13  334.20   15.54
   2  -1 -13  297.03   14.49
   2   1 -13  279.31   41.33
   2  -1 -13  309.01   26.49
  -2  -1 -13  288.48   13.26
   2   1  14  235.73    7.19
   2  -1  14  206.68    9.86
  -2   1 -14  238.58    8.06
  -2  -1 -14  210.05    7.71
   2   1 -14  174.67   35.77
   2  -1 -14  253.91   11.58
   2   1 -14  191.67   38.82
   2  -1 -14  234.25   33.11
  -2   1 -14  238.50   34.66
  -2  -1 -14  218.94   20.96
   2   1  15   10.01    3.13
   2  -1  15    6.12    2.49
  -2   1 -15   12.32    3.80
  -2  -1 -15    8.70    2.56
   2   1 -15   12.84    6.44
   2  -1 -15    9.41    6.41
   2   1 -15    4.04    7.09
   2  -1 -15   15.42    5.11
  -2   1 -15   12.24    3.86
  -2  -1 -15   12.99    4.18
  -2   1 -16   57.25   16.04
  -2  -1 -16   47.71   15.97
   2   1 -16   55.39   18.21
   2  -1 -16   59.50   20.07
   2   1 -16   76.06   12.61
   2  -1 -16   58.42   20.33
  -2   1 -16   70.68   18.51
  -2  -1 -16   66.34   15.73
  -2   1 -17    9.88    3.36
  -2  -1 -17    6.46    3.90
   2   1 -17    6.79    3.00
   2  -1 -17   16.84    5.39
   2   1 -17    3.48    3.61
   2  -1 -17    3.62    3.81
  -2   1 -17   12.22    4.66
  -2  -1 -17   14.71    5.76
   2   1 -18   44.69   14.12
   2  -1 -18   40.31   13.60
   2   1 -18   47.98   10.62
   2  -1 -18   38.09   11.74
  -2   1 -18   36.57   13.85
  -2  -1 -18   52.68   13.48
   2   1 -19  127.96   26.09
   2  -1 -19   96.26   29.59
   2   1 -19  114.09   40.26
   2  -1 -19  128.92   30.64
  -2   1 -19  108.13   18.31
  -2  -1 -19  117.89   30.11
   2   1 -20   13.83    4.65
   2  -1 -20   10.78    5.62
   2   1 -20   12.44    4.98
   2  -1 -20   20.17    6.88
  -2   1 -20   10.60    3.91
  -2  -1 -20   11.19    4.31
  -2   2   0  312.49    6.77
   2  -2   0  315.59    8.47
  -2  -2   0  305.80    7.50
   2   2   0  311.53    6.33
  -2  -2   0  327.22    6.28
   2  -2   0  315.98    7.11
   2  -2   0  322.82    4.28
  -2   2   0  311.56    4.20
  -2   2   1 5726.52   67.61
   2  -2   1 5698.10   67.51
   2  -2  -1 5583.33   65.77
  -2  -2   1 5792.13   68.38
   2   2   1 5683.80   65.79
  -2  -2  -1 5693.76   65.82
   2   2  -1 5811.21   68.58
  -2  -2   1 5743.10   67.70
   2  -2  -1 5612.79   66.77
  -2   2   1 5662.29   67.14
   2  -2  -1 5710.50   65.59
   2  -2   2  503.33    9.95
  -2   2   2  488.40    9.25
   2  -2  -2  496.71    8.83
   2   2  -2  521.05   10.26
   2   2   2  534.71   18.86
  -2  -2  -2  495.73    7.39
   2   2  -2  513.34   13.97
  -2  -2   2  543.04   11.77
  -2   2   2  502.75   11.12
  -2   2  -2  507.24    7.22
   2  -2  -2  518.81    9.03
   2  -2   2  497.88    7.25
  -2   2   2  502.30    8.80
   2  -2   3  284.02   10.68
  -2   2   3  281.47   10.73
   2  -2  -3  275.20   15.66
   2   2  -3  299.86    7.04
  -2  -2   3  273.72   15.67
   2   2   3  284.22   11.78
  -2  -2  -3  282.60   11.24
  -2  -2  -3  298.02    4.82
   2  -2   3  300.27    6.46
   2   2  -3  283.20   11.27
  -2  -2   3  291.27    8.06
   2  -2  -3  300.92    9.20
  -2   2   3  286.88    8.30
  -2   2  -3  274.33   15.41
   2  -2  -3  265.56   15.40
   2  -2   3  290.22    5.84
  -2   2   3  288.29    6.98
  -2   2  -4  171.27   10.80
   2  -2   4  186.49   11.24
  -2   2   4  201.51   12.16
   2  -2  -4  153.76   10.08
   2   2  -4  195.92   11.40
  -2  -2   4  163.60    9.70
   2   2   4  168.83   13.18
  -2  -2  -4  192.83   21.09
  -2   2  -4  177.80   12.94
   2  -2   4  195.78   11.35
   2   2  -4  208.24   13.32
  -2  -2   4  160.17   10.53
  -2   2   4  206.12   13.46
  -2  -2  -4  207.22   12.11
  -2   2  -4  160.50    9.76
   2  -2  -4  167.92   10.63
   2  -2   4  200.19   11.65
  -2   2   4  188.64   11.48
  -2  -2  -4  199.12   12.76
  -2   2  -5  220.04   13.65
   2  -2   5  230.71   13.60
  -2   2   5  212.67   12.18
   2  -2  -5  187.25   10.79
   2   2  -5  201.86   12.38
  -2  -2   5  197.11   11.32
   2   2   5  200.65   15.62
  -2  -2  -5  192.44   11.84
  -2   2  -5  219.54   13.28
   2  -2   5  208.26   12.15
   2   2  -5  226.06   14.23
  -2  -2  -5  212.93   12.50
  -2   2  -5  199.29   14.84
   2  -2  -5  198.36   12.81
   2  -2   5  217.12   12.88
  -2  -2  -5  213.19   13.45
   2  -2   6   11.96    3.98
  -2   2   6   17.48    4.37
   2   2  -6   19.59    4.23
   2  -2  -6   12.27    2.50
   2   2   6   17.00    4.57
  -2  -2   6   12.37    3.21
  -2  -2  -6   12.82    3.02
   2  -2   6   15.14    3.44
  -2   2  -6   14.50    4.19
   2  -2   6   16.85    5.12
   2   2  -6   17.16    4.08
  -2  -2  -6   16.28    4.47
   2   2   6   15.55    3.75
  -2   2  -6   18.49    4.35
   2  -2  -6   12.58    3.13
  -2  -2  -6   18.99    4.78
   2  -2   7  371.67   18.99
  -2   2   7  387.49   18.88
   2   2  -7  385.81   18.38
   2  -2  -7  389.64   18.95
   2   2   7  390.35   21.63
  -2  -2   7  396.20   18.84
  -2  -2  -7  351.45   29.10
   2  -2   7  396.75   20.17
  -2   2  -7  394.77   19.76
   2  -2   7  376.41   18.79
  -2  -2  -7  395.21   19.57
   2  -2  -7  400.77   21.81
   2   2   7  392.81   19.14
   2   2  -7  395.73   21.08
  -2   2  -7  394.37   22.10
   2  -2  -7  391.14   20.72
  -2  -2  -7  371.82   20.72
   2   2  -8   14.31    2.88
   2  -2   8   11.85    3.03
  -2   2   8   17.56    3.71
   2  -2  -8   16.04    3.47
   2   2   8   21.70    5.62
  -2  -2   8   14.52    3.16
   2  -2   8   17.95    4.47
  -2   2  -8   17.83    4.11
   2  -2   8   15.31    3.70
  -2  -2  -8   16.15    4.49
   2  -2  -8   11.08    3.76
   2   2   8   13.69    3.19
   2   2  -8   16.48    5.36
  -2   2  -8   14.03    4.24
   2  -2  -8   19.23    5.94
  -2  -2  -8   14.32    4.05
  -2   2   9   49.19    3.84
   2   2   9   52.04   11.61
   2  -2  -9   52.62    6.04
   2  -2   9   49.79    9.01
  -2   2  -9   66.58   10.81
  -2  -2  -9   42.44    8.60
   2  -2  -9   56.30   12.24
   2   2   9   36.39    9.12
   2   2  -9   52.77    9.73
  -2   2  -9   58.15   19.45
   2  -2  -9   66.34   15.09
  -2  -2  -9   50.90   10.69
  -2   2  10    7.26    2.16
   2   2  10    2.86    2.08
   2  -2 -10    5.52    1.36
   2  -2  10    7.63    3.00
  -2   2 -10   11.27    3.64
   2   2 -10   16.47    5.59
  -2  -2 -10   11.01    2.71
   2  -2 -10   20.83    6.49
   2   2  10    2.31    2.70
   2   2 -10   16.53    6.07
  -2   2 -10    4.53    6.23
   2  -2 -10    4.33    2.42
  -2  -2 -10    5.42    4.31
   2   2  11  133.31   14.32
   2  -2  11  162.18    8.81
  -2   2 -11  134.69    6.37
   2   2 -11  160.91   30.14
  -2  -2 -11  149.10   18.53
   2  -2 -11  151.50   26.95
   2   2 -11  158.05   27.32
  -2   2 -11  114.43   27.76
   2  -2 -11  155.25   16.96
  -2  -2 -11  149.61   20.96
   2   2  12  685.42   24.68
   2  -2  12  669.51   24.04
  -2   2 -12  668.83   24.54
   2   2 -12  653.04   25.69
  -2  -2 -12  662.68   27.80
   2  -2 -12  685.59   26.93
   2   2 -12  626.32   28.46
   2  -2 -12  620.57   25.28
  -2  -2 -12  642.43   26.48
   2   2  13  770.24   20.29
   2  -2  13  842.21   21.64
  -2   2 -13  780.98   21.34
   2   2 -13  766.61   36.36
  -2  -2 -13  796.52   23.17
   2  -2 -13  794.96   24.80
   2   2 -13  748.84   40.24
   2  -2 -13  792.18   25.76
  -2  -2 -13  775.31   25.50
   2   2  14    2.36    1.58
   2  -2  14    2.52    3.10
  -2   2 -14    7.01    2.69
   2   2 -14   11.93    3.51
  -2  -2 -14    8.78    3.61
   2  -2 -14    3.83    4.28
   2   2 -14   10.37    6.45
   2  -2 -14   -5.30    6.33
  -2  -2 -14    4.40    6.86
   2   2  15   93.07    9.60
   2  -2  15  100.83    9.69
  -2   2 -15  106.37   23.13
   2   2 -15   97.42   19.18
  -2  -2 -15  126.10   15.78
   2  -2 -15  113.65   21.18
   2   2 -15  135.19   22.33
   2  -2 -15  102.70   21.47
  -2  -2 -15  126.69   26.08
  -2   2 -16   71.47   12.79
   2   2 -16   86.47   17.86
  -2  -2 -16   74.72   15.50
   2  -2 -16   66.34   21.02
   2   2 -16   77.63   16.89
   2  -2 -16   78.83   19.60
  -2  -2 -16   78.84   14.26
  -2   2 -17    6.05    2.73
   2   2 -17   14.39    4.87
   2  -2 -17    8.42    3.55
   2   2 -17    8.49    4.59
  -2   2 -17   12.37    4.57
   2  -2 -17   16.83    5.82
  -2  -2 -17    9.80    5.47
  -2   2 -18   15.61    4.63
   2   2 -18   12.88    5.43
   2  -2 -18   25.73    6.31
   2   2 -18   27.18    7.33
  -2   2 -18   14.79    6.31
   2  -2 -18   21.79    7.49
  -2  -2 -18   15.87    4.49
   2   2 -19   -0.79    4.33
   2  -2 -19    2.63    2.79
   2   2 -19    2.99    4.26
  -2   2 -19    9.90    6.19
   2  -2 -19    4.39    4.50
  -2  -2 -19    4.00    3.07
   2   2 -20    5.22    2.57
   2  -2 -20    4.91    3.98
   2   2 -20    3.81    4.71
  -2   2 -20    9.97    4.29
   2  -2 -20   12.70    6.08
  -2  -2 -20    3.79    2.35
  -2   3   0   66.42   15.11
   2  -3   0   58.13    8.66
   2   3   0   81.37   17.06
  -2  -3   0   55.98   10.90
   2   3   0   66.70   12.18
  -2  -3   0   63.27    5.90
   2  -3   0   67.06    4.78
  -2   3  -1 2331.26   30.97
   2  -3   1 2482.33   32.73
   2  -3  -1 2284.76   29.89
   2   3   1 2369.11   32.02
   2   3   1 2423.33   30.91
  -2  -3   1 2278.08   29.61
   2  -3  -1 2354.85   32.08
   2  -3  -1 2437.82   30.15
  -2   3   1 2435.67   29.55
   2  -3   2  683.64   12.30
  -2   3   2  743.46   12.86
   2  -3  -2  706.46   12.13
   2   3  -2  754.49   13.55
   2   3   2  757.23   14.75
  -2  -3   2  699.23   12.15
  -2  -3  -2  729.57   13.88
  -2  -3  -2  735.14   12.14
   2   3  -2  711.92   12.70
  -2  -3   2  746.67   12.81
   2  -3  -2  742.45   14.68
   2  -3   2  718.19    9.69
   2  -3  -2  752.08   11.74
  -2   3   2  717.13   11.10
   2  -3   3  570.31   10.97
  -2   3   3  603.99   10.96
   2  -3  -3  550.04   10.04
   2   3  -3  605.93   10.87
   2   3   3  587.00   16.90
  -2  -3  -3  599.58   12.26
  -2  -3  -3  602.39   10.27
   2  -3   3  571.11   10.20
   2   3  -3  605.26   12.44
   2  -3  -3  577.07   13.03
  -2   3   3  595.62   14.02
   2  -3   3  610.81    9.31
   2  -3  -3  562.32   10.26
  -2   3   3  579.44   10.34
  -2   3   4  712.72   12.51
   2  -3  -4  767.30   12.36
   2   3  -4  704.09   11.90
  -2  -3   4  775.71   12.58
  -2  -3  -4  702.54   13.46
   2  -3   4  709.50   12.26
   2   3  -4  706.38   13.66
   2  -3   4  712.57   11.32
   2  -3  -4  768.01   13.47
  -2  -3  -4  695.41   13.70
  -2   3  -5  608.16   19.24
  -2   3   5  570.03   17.54
   2  -3  -5  558.15   17.58
   2   3  -5  575.90   17.53
  -2  -3   5  551.65   17.70
   2   3   5  617.45   20.23
  -2   3  -5  621.67   19.20
   2  -3   5  579.55   18.02
   2   3  -5  583.70   19.28
  -2  -3  -5  566.58   17.97
  -2   3  -5  597.62   18.40
   2  -3   5  570.40   17.63
   2  -3  -5  612.72   19.87
  -2  -3  -5  562.21   19.93
  -2   3  -6  377.20   19.31
  -2   3   6  339.89   17.85
   2   3  -6  352.42   17.35
   2  -3  -6  346.53   17.14
  -2  -3   6  355.37   17.47
   2   3   6  378.74   19.97
  -2   3  -6  366.47   18.54
   2  -3   6  351.96   17.77
   2   3  -6  357.34   19.43
  -2  -3  -6  381.51   18.80
  -2   3  -6  357.02   18.23
   2  -3  -6  377.95   20.06
  -2  -3  -6  363.27   20.40
  -2   3  -7  155.04   11.84
  -2   3   7  140.91    7.11
   2   3  -7  148.90    5.98
   2  -3  -7  136.90    5.75
   2   3   7  165.73   18.14
  -2  -3   7  144.74    5.96
  -2   3  -7  154.03    9.19
   2   3  -7  152.56    8.75
  -2  -3  -7  160.07    9.10
   2  -3  -7  162.46   19.42
  -2   3  -7  164.66   11.53
   2  -3  -7  162.37   22.00
  -2  -3  -7  139.18    8.78
  -2   3  -8  956.36   33.32
  -2   3   8  995.75   33.99
   2   3  -8  971.71   32.57
   2  -3  -8  882.32   30.46
   2   3   8  949.66   34.66
  -2  -3   8  867.00   29.00
  -2   3  -8  942.35   32.77
  -2  -3  -8  990.30   33.56
   2  -3  -8  940.95   34.33
  -2   3  -8  923.35   34.10
   2  -3  -8  913.78   33.22
  -2  -3  -8  970.46   35.10
  -2   3   9  118.55    8.19
   2   3   9  147.96   11.65
   2  -3  -9  134.39   13.33
  -2  -3   9  139.63    7.30
   2  -3   9  131.51   14.56
  -2   3  -9  156.95    9.57
  -2  -3  -9  119.04    5.95
   2  -3  -9  154.65   11.72
   2   3   9  144.33    9.85
  -2   3  -9  144.54   25.85
   2  -3  -9  167.66   18.27
  -2  -3  -9  137.80   28.14
   2   3 -10    1.17    0.99
  -2   3  10    1.68    0.72
   2   3  10    3.29    4.05
   2  -3 -10    2.12    2.83
  -2  -3  10    2.84    1.36
   2  -3  10    1.61    1.85
  -2   3 -10   -1.36    3.72
  -2  -3 -10   -0.31    2.73
   2  -3 -10    2.96    5.50
   2   3  10    1.20    1.68
  -2   3 -10    3.20    2.39
   2  -3 -10    4.99    3.83
  -2  -3 -10    2.76    5.84
  -2   3  11   55.24    8.17
   2   3  11   71.93    8.83
   2  -3 -11   51.37    6.89
   2  -3  11   74.81    8.13
  -2   3 -11   67.75   10.89
   2   3 -11   70.51   15.63
  -2  -3 -11   50.71   15.10
   2  -3 -11   65.38   13.48
   2   3 -11   56.05   11.31
   2  -3 -11   66.41   13.97
  -2  -3 -11   75.33   14.68
  -2   3  12   93.84    2.97
   2   3  12  116.36   14.39
   2  -3 -12   96.30    8.07
   2  -3  12   95.19   11.06
  -2   3 -12  111.87   22.14
  -2  -3 -12  103.06   14.82
   2  -3 -12  118.95   32.99
   2   3 -12  100.45   15.96
   2  -3 -12  124.34   25.74
  -2  -3 -12  115.34   23.62
   2   3  13  106.92   16.04
   2  -3  13  148.30   10.41
  -2   3 -13  113.59   26.07
   2   3 -13  154.37   23.83
  -2  -3 -13  138.69   20.39
   2  -3 -13  119.92   25.95
   2   3 -13  164.99   32.89
  -2   3 -13  123.25   29.26
   2  -3 -13  127.66   16.59
  -2  -3 -13  137.64   29.02
   2   3  14   55.48   19.18
   2  -3  14   44.21   12.75
  -2   3 -14   47.64   13.22
   2   3 -14   58.87    9.43
  -2  -3 -14   47.06    9.34
   2  -3 -14   60.02   18.11
   2   3 -14   55.39   12.22
  -2   3 -14   51.41   13.94
   2  -3 -14   57.17    9.46
  -2  -3 -14   43.89   10.61
   2   3  15   91.39    5.03
   2  -3  15   97.13   12.71
  -2   3 -15  116.14   18.88
   2   3 -15  100.68   28.41
  -2  -3 -15   96.92   15.87
   2  -3 -15   82.30   24.93
   2   3 -15   98.80   20.60
   2  -3 -15  109.25   24.58
  -2  -3 -15  125.21   25.07
  -2   3 -16   50.29   16.08
   2   3 -16   54.45   17.76
  -2  -3 -16   35.10    8.10
   2  -3 -16   56.92   16.22
   2   3 -16   77.61   14.62
   2  -3 -16   56.64   10.59
  -2  -3 -16   53.81   12.76
  -2   3 -17   71.38   19.88
   2   3 -17   82.83   17.31
   2  -3 -17   61.05   24.14
   2  -3 -17   61.35   14.11
  -2  -3 -17   69.59   17.03
  -2   3 -18    6.81    3.76
   2   3 -18   -0.14    2.93
   2  -3 -18   10.43    6.11
   2  -3 -18   10.84    4.73
  -2  -3 -18    2.66    3.43
   2   3 -19    8.55    5.65
   2  -3 -19    4.48    2.69
   2  -3 -19    8.63    3.21
  -2  -3 -19    1.61    4.20
   2   3 -20   33.87   12.87
   2  -3 -20   32.73   17.24
   2  -3 -20   43.44   18.69
  -2  -3 -20   37.62   15.22
  -2   4   0  185.47   12.53
   2  -4   0  154.96   10.18
   2   4   0  160.70   11.14
  -2  -4   0  134.39   25.02
   2   4   0  160.83   10.06
  -2  -4   0  143.00   18.38
  -2   4  -1  176.64   15.96
  -2   4   1  179.30   12.47
   2  -4  -1  149.48   17.70
   2   4   1  160.30   11.28
  -2  -4   1  148.65   10.01
   2   4   1  180.06   10.96
  -2  -4  -1  177.18   15.28
  -2  -4   1  164.23   10.16
   2  -4  -1  169.16   10.06
  -2   4  -2   84.30   19.43
  -2   4   2   81.08   14.07
   2  -4  -2   61.71    9.28
   2   4  -2   74.41   15.32
   2   4   2   81.78   15.27
  -2  -4   2   61.95   12.46
   2  -4   2   52.36   14.83
  -2  -4  -2   63.59    5.58
   2   4  -2   70.97   13.61
   2  -4  -2   84.24   17.45
   2  -4  -2   74.99    9.58
  -2   4   3  127.28   13.22
   2  -4  -3   73.40   11.65
   2   4  -3  115.44   10.29
   2   4   3   80.53   13.58
  -2  -4   3   72.54   14.52
  -2  -4  -3  104.37   12.65
   2   4  -3  101.66    7.67
   2  -4  -3   86.79   22.81
   2  -4   3  105.71    6.51
   2  -4  -3   80.96    5.91
  -2   4   3   91.72   14.85
  -2   4  -4  570.28   18.72
  -2   4   4  522.01   16.97
   2  -4  -4  530.78   16.80
   2   4  -4  528.72   16.86
   2   4   4  586.57   22.23
  -2  -4   4  541.55   17.16
   2   4  -4  456.33   23.25
   2  -4   4  514.95   15.67
   2  -4  -4  562.60   18.22
  -2   4  -5  323.68   17.96
  -2   4   5  277.12   14.93
   2   4  -5  275.29   15.11
   2  -4  -5  305.56   15.55
   2   4   5  320.00   17.57
  -2  -4   5  305.69   15.63
  -2   4  -5  326.65   17.03
   2   4  -5  272.97   15.11
  -2  -4  -5  276.94   15.98
   2  -4   5  287.29   14.78
   2  -4  -5  326.78   17.61
  -2  -4  -5  282.72   15.78
  -2   4  -6 1534.31   44.75
  -2   4   6 1650.74   48.29
   2   4  -6 1611.57   46.64
   2   4   6 1568.86   46.47
  -2  -4   6 1440.19   41.26
  -2   4  -6 1596.65   46.55
   2   4  -6 1567.97   46.60
  -2  -4  -6 1615.86   47.75
  -2   4  -6 1545.43   44.76
   2  -4  -6 1556.02   46.04
  -2  -4  -6 1612.54   48.00
  -2   4  -7  386.79   15.34
  -2   4   7  416.56   15.60
   2   4  -7  404.27   14.85
   2  -4  -7  331.35   16.57
   2   4   7  397.72   17.19
  -2  -4   7  347.68   17.24
  -2   4  -7  379.07   15.16
   2   4  -7  412.06   17.41
   2  -4  -7  380.41   17.91
  -2  -4  -7  393.09   16.12
  -2   4  -7  363.73    8.73
   2  -4  -7  373.16   11.47
  -2   4  -8  835.69   29.79
  -2   4   8  841.06   31.28
   2   4  -8  872.84   29.68
   2  -4  -8  725.68   25.13
   2   4   8  840.93   30.55
  -2  -4   8  751.73   25.78
  -2   4  -8  833.75   29.88
   2   4  -8  866.95   32.00
   2  -4  -8  842.93   31.73
  -2  -4  -8  852.66   29.57
  -2   4  -8  811.96   29.95
   2  -4  -8  810.23   31.94
  -2  -4  -8  849.73   31.81
  -2   4  -9  129.28   15.40
   2   4  -9  139.26    6.21
  -2   4   9  148.16    6.84
   2   4   9  136.89   12.28
   2  -4  -9  101.80   12.60
  -2  -4   9  113.14    5.27
  -2   4  -9  133.31   11.77
  -2  -4  -9  132.73    6.90
   2  -4  -9  134.40   29.02
  -2   4  -9  121.79   17.66
   2  -4  -9  132.77   13.25
  -2  -4  -9  135.94   25.18
   2   4 -10   36.73    5.96
  -2   4  10   43.29    4.97
   2   4  10   52.56   11.53
  -2  -4  10   27.71    7.90
   2  -4 -10   35.27    9.58
  -2   4 -10   38.07   11.08
  -2  -4 -10   43.74   10.02
   2  -4 -10   52.70   11.19
  -2   4 -10   52.98    9.87
   2  -4 -10   57.99   12.24
  -2  -4 -10   38.87    6.97
   2   4 -11  253.30    8.94
  -2   4  11  256.11    9.94
   2   4  11  248.06   16.34
  -2  -4  11  211.27    7.78
   2  -4 -11  232.79    9.33
   2  -4  11  223.25   10.41
  -2   4 -11  228.00   19.47
  -2  -4 -11  258.91   13.28
   2  -4 -11  238.10   24.11
  -2   4 -11  238.13   14.11
   2  -4 -11  265.79   44.24
  -2  -4 -11  255.96   32.97
  -2   4  12   17.57    4.94
   2   4  12   20.68    4.38
  -2  -4  12    6.06    1.86
   2  -4 -12   12.22    3.73
   2  -4  12   26.43    5.84
  -2   4 -12   22.13    5.26
   2   4 -12   15.89    4.44
  -2  -4 -12   16.83    4.88
   2  -4 -12   17.18    6.61
  -2   4 -12   13.26    3.98
   2  -4 -12   16.18    7.46
  -2  -4 -12   16.29    5.46
  -2   4  13   17.02    6.08
   2   4  13   22.84    7.03
   2  -4  13   23.44    6.78
  -2   4 -13   32.08    6.07
   2   4 -13   18.39    5.45
  -2  -4 -13   38.55    9.77
   2  -4 -13   28.12    6.95
  -2   4 -13   33.94    7.49
   2  -4 -13   34.68    6.85
  -2  -4 -13   27.11    5.73
   2   4  14   27.28    9.06
   2  -4  14   24.68    7.70
  -2   4 -14   23.18    5.82
   2   4 -14   30.80    8.13
  -2  -4 -14   31.18    8.05
   2  -4 -14   37.02    9.22
  -2   4 -14   40.22    7.60
   2  -4 -14   36.92   11.38
  -2  -4 -14   52.71   15.04
   2   4  15    8.08    2.54
   2  -4  15    6.95    3.59
  -2   4 -15    4.13    3.18
   2   4 -15   15.41    4.43
  -2  -4 -15    9.79    5.51
   2  -4 -15   10.70    3.95
  -2   4 -15    7.91    3.13
   2  -4 -15   10.48    6.09
  -2  -4 -15   12.11    4.89
  -2   4 -16  149.75   25.22
   2   4 -16  218.19   11.80
  -2  -4 -16  183.20   20.84
   2  -4 -16  161.01   36.99
  -2   4 -16  200.96   33.20
   2  -4 -16  144.58   22.01
  -2  -4 -16  189.82   43.93
  -2   4 -17   72.33   11.51
   2   4 -17   70.12   17.61
   2  -4 -17   68.18   20.84
  -2   4 -17   70.09   17.17
   2  -4 -17   76.31   15.71
  -2  -4 -17   61.32   18.91
  -2   4 -18   16.63    4.37
   2   4 -18   16.38    7.10
   2  -4 -18    6.99    5.68
  -2   4 -18    8.44    3.63
   2  -4 -18   16.11    6.04
  -2  -4 -18   15.61    4.15
   2   4 -19   39.18   15.46
   2  -4 -19   37.43   15.84
  -2   4 -19   50.73   11.69
   2  -4 -19   27.60    6.15
  -2  -4 -19   34.74   12.12
   2   4 -20   15.22    8.12
   2  -4 -20   20.23    7.70
   2  -4 -20   42.50   14.51
  -2  -4 -20   44.93   11.94
  -2   5   0  312.24    9.03
   2   5   0  321.30    9.27
   2   5   0  309.17    9.11
  -2   5  -1  155.00   10.10
  -2   5   1  118.42    7.11
   2   5  -1   97.37   12.72
   2   5   1  162.88   10.50
   2   5   1  153.08    9.02
   2   5  -1  107.97    7.55
   2  -5  -1  140.07    7.14
  -2   5  -2 1548.33   47.97
  -2   5   2 1572.71   46.42
   2   5   2 1564.86   46.10
  -2  -5  -2 1492.56   42.93
   2   5  -2 1525.91   47.64
   2  -5  -2 1563.26   44.60
  -2   5   3  305.23   18.52
   2   5  -3  313.03   16.83
   2   5   3  298.46   16.96
  -2  -5  -3  280.48   14.42
   2   5  -3  283.54   15.25
   2  -5  -3  281.54   15.96
   2  -5  -3  311.96   16.29
  -2   5   4  196.33   23.90
   2   5  -4  166.84   10.44
   2   5   4  177.12   15.86
  -2  -5  -4  157.39   12.60
   2   5  -4  158.82   11.18
   2  -5  -4  139.67   12.11
   2  -5   4  145.40    6.50
   2  -5  -4  182.21   10.73
  -2   5  -5  639.14   21.01
  -2   5   5  666.57   21.65
   2   5  -5  686.39   25.07
   2   5   5  672.58   23.51
  -2   5  -5  690.47   22.33
   2   5  -5  645.34   21.27
   2  -5   5  616.40   18.88
   2  -5  -5  662.70   21.63
  -2  -5  -5  665.49   22.20
  -2   5  -6  291.16   16.09
  -2   5   6  315.84   16.74
   2   5  -6  309.46   16.52
   2   5   6  291.65   16.51
  -2   5  -6  298.40   16.46
   2   5  -6  318.64   17.79
  -2  -5  -6  319.31   18.31
   2  -5  -6  315.48   17.27
  -2  -5  -6  318.89   18.22
  -2   5  -7  620.53   23.18
  -2   5   7  662.44   24.19
   2   5  -7  630.36   22.40
   2   5   7  633.42   27.91
  -2   5  -7  682.36   25.20
   2   5  -7  611.15   26.39
   2  -5  -7  637.29   25.43
  -2  -5  -7  623.92   23.56
   2  -5  -7  659.30   25.12
  -2  -5  -7  596.57   23.70
  -2   5  -8  160.67    8.72
  -2   5   8  188.60    8.85
   2   5  -8  179.48    8.04
   2   5   8  174.30   19.67
  -2   5  -8  175.35   27.88
   2   5  -8  196.65   12.59
   2  -5  -8  188.82   31.60
  -2  -5  -8  192.64    9.39
   2  -5  -8  158.09   32.30
  -2  -5  -8  210.24   33.84
  -2   5  -9   86.48   21.08
   2   5  -9   74.44   10.64
  -2   5   9  100.13   11.43
   2   5   9   77.95   18.94
  -2  -5   9   52.70    8.93
  -2   5  -9   70.16   19.11
   2   5  -9   81.46   16.95
   2  -5  -9   79.20   21.34
  -2  -5  -9   79.99   22.24
   2  -5  -9   76.22   14.03
  -2  -5  -9   88.92   19.53
  -2   5 -10  290.72   15.67
   2   5 -10  288.51   11.07
  -2   5  10  303.98   14.44
   2   5  10  298.15   22.04
  -2   5 -10  277.74   19.45
   2   5 -10  256.15   13.72
  -2  -5 -10  291.51   12.29
   2  -5 -10  287.34   15.68
  -2   5 -10  298.92   14.21
   2  -5 -10  294.95   28.32
  -2  -5 -10  275.34   26.13
  -2   5 -11  260.35   19.95
   2   5 -11  287.63   11.45
   2   5  11  269.19   13.32
  -2  -5  11  218.87    8.99
  -2   5 -11  258.57   12.70
  -2  -5 -11  290.68   15.35
   2  -5 -11  232.05   22.83
  -2   5 -11  209.23   23.12
   2  -5 -11  261.52   37.51
   2   5 -12  201.83    6.89
  -2   5  12  221.10   15.24
   2   5  12  181.18   12.03
   2  -5  12  168.91   17.32
  -2   5 -12  183.59    9.60
  -2  -5 -12  176.62    8.67
   2  -5 -12  180.77   29.52
  -2   5 -12  186.01   31.77
   2  -5 -12  194.35   29.55
  -2  -5 -12  207.57   38.72
   2   5 -13   22.96    7.02
  -2   5  13   30.67    7.47
   2   5  13   32.98    9.15
   2  -5  13   31.05    8.26
  -2   5 -13   37.96    7.30
   2   5 -13   35.37   10.30
  -2  -5 -13   28.71    9.59
   2  -5 -13   36.46    8.72
  -2   5 -13   31.04    7.74
   2  -5 -13   33.91    9.29
  -2  -5 -13   48.98   10.57
   2   5  14  150.88   12.87
   2  -5  14  141.08    9.24
  -2   5 -14  149.38   31.28
   2   5 -14  127.85   26.66
  -2  -5 -14  141.14   16.46
   2  -5 -14  157.41   31.44
  -2   5 -14  153.12   25.56
   2  -5 -14  154.03   36.90
  -2  -5 -14  130.88   27.97
   2   5  15   48.73   12.09
   2  -5  15   33.97   14.43
  -2   5 -15   57.58   14.57
   2   5 -15   37.72    9.54
  -2  -5 -15   39.14   10.39
   2  -5 -15   37.78   13.95
  -2   5 -15   47.15   15.81
   2  -5 -15   49.74   15.16
  -2  -5 -15   42.40    9.61
  -2   5 -16   63.33   18.20
   2   5 -16   63.91   16.97
   2  -5 -16   69.51   15.11
  -2   5 -16   71.74   24.08
   2  -5 -16   80.57   27.49
  -2  -5 -16   83.68   15.51
  -2   5 -17   33.61   10.60
   2   5 -17   41.84   12.33
   2  -5 -17   26.09    9.30
  -2   5 -17   37.41    6.93
   2  -5 -17   36.58    8.63
  -2  -5 -17   35.50   17.01
  -2   5 -18   45.24    9.45
   2   5 -18   39.65   12.41
   2  -5 -18   36.06   15.67
   2  -5 -18   63.68   24.45
  -2  -5 -18   35.28   12.88
  -2   5 -19    8.77    3.59
   2   5 -19    8.32    4.04
   2  -5 -19    1.74    4.67
   2  -5 -19    6.05    4.80
  -2  -5 -19    6.85    5.89
   2   5 -20   14.08    6.26
   2  -5 -20    7.70    5.56
   2  -5 -20   10.23    3.35
  -2  -5 -20    8.06    5.54
  -2   6   0  171.17   10.94
   2   6   0  188.26   18.42
   2   6   0  154.14   10.32
  -2   6  -1  525.00   18.19
  -2   6   1  534.83   23.08
   2   6  -1  523.97   18.37
   2   6   1  537.66   21.34
   2   6  -1  523.09   18.13
  -2   6  -2  844.59   27.09
  -2   6   2  930.47   29.39
   2   6   2  851.34   27.67
   2   6  -2  897.74   28.39
   2  -6  -2  800.82   26.42
  -2   6  -3  186.56   12.15
  -2   6   3  170.12   26.55
   2   6  -3  147.11    8.49
   2   6   3  181.48   11.98
   2   6  -3  152.24   12.22
   2  -6  -3  181.58   15.68
   2  -6  -3  156.85    9.73
  -2   6   4   47.63   11.95
   2   6  -4   49.12    9.60
   2   6   4   62.25   12.12
   2   6  -4   37.42    8.87
   2  -6  -4   44.23   12.68
   2  -6   4   32.53    6.04
   2  -6  -4   56.37   11.68
  -2   6  -5  206.71   12.64
  -2   6   5  170.56   11.29
   2   6  -5  166.27   15.40
   2   6   5  210.41   12.62
   2   6  -5  190.02   18.70
   2  -6   5  155.06    8.59
   2  -6  -5  195.33   12.32
  -2  -6  -5  232.64   15.62
  -2   6  -6  306.58   16.97
  -2   6   6  345.82   18.65
   2   6  -6  317.46   16.92
   2   6   6  326.75   22.04
  -2   6  -6  340.50   18.76
   2   6  -6  328.75   20.07
  -2  -6  -6  330.32   17.40
   2  -6  -6  342.32   18.56
  -2  -6  -6  357.85   20.35
  -2   6  -7  342.02   18.52
  -2   6   7  375.97   15.60
   2   6  -7  360.63   15.55
   2   6   7  339.07   19.08
  -2   6  -7  342.09   19.44
   2   6  -7  359.00   12.93
   2  -6  -7  372.64   14.42
  -2  -6  -7  362.85   17.41
   2  -6  -7  352.90   19.72
  -2   6  -8    5.66    6.52
  -2   6   8   23.19    5.85
   2   6  -8   16.45    4.19
   2   6   8   23.17    5.65
  -2   6  -8    7.43    4.52
   2   6  -8   15.25    4.55
   2  -6  -8    7.93    7.03
  -2  -6  -8   15.83    6.83
   2  -6  -8   25.72   13.20
  -2  -6  -8   13.25    3.71
  -2   6  -9  105.71   18.28
   2   6  -9  107.93   15.33
  -2   6   9  113.68    8.96
   2   6   9  135.17   26.32
  -2   6  -9  119.83   19.99
   2   6  -9  123.15   24.73
   2  -6  -9  103.06   24.68
  -2  -6  -9  101.64   17.42
   2  -6  -9  141.11   20.65
  -2  -6  -9  127.70   24.92
  -2   6 -10  262.84   12.56
   2   6 -10  262.14   12.17
  -2   6  10  287.48   18.74
   2   6  10  292.45   14.22
  -2   6 -10  255.38   14.82
   2   6 -10  263.55   14.55
   2  -6 -10  243.66   44.40
  -2  -6 -10  241.94   16.15
   2  -6 -10  295.78   32.35
  -2  -6 -10  271.64   16.01
  -2   6 -11  424.99   18.42
   2   6 -11  472.53   13.85
  -2   6  11  475.53   16.22
   2   6  11  409.06   25.63
  -2   6 -11  425.09   15.56
   2   6 -11  440.01   25.67
  -2  -6 -11  426.30   18.59
   2  -6 -11  429.59   19.12
   2  -6 -11  434.57   18.31
  -2  -6 -11  450.08   18.80
  -2   6 -12   10.54    7.18
   2   6 -12   17.02    4.46
  -2   6  12   20.29    6.35
   2   6  12   13.59    7.23
  -2   6 -12   17.47    8.43
  -2  -6 -12    9.33    4.04
   2  -6 -12   12.05    4.91
   2  -6 -12   17.57    8.71
  -2  -6 -12   19.49    6.64
   2   6 -13   44.44   11.10
  -2   6  13   59.80   13.73
   2   6  13   42.59   17.54
   2  -6  13   53.75   15.07
  -2   6 -13   55.68   16.33
  -2  -6 -13   44.17   13.98
   2  -6 -13   54.49   16.07
   2  -6 -13   50.44   10.37
  -2  -6 -13   64.17   15.14
  -2   6  14  168.15   19.33
   2   6  14  157.11   16.24
   2  -6  14  173.95    9.70
  -2   6 -14  139.92   26.39
  -2  -6 -14  172.68   14.32
   2  -6 -14  159.11   35.91
   2  -6 -14  169.76   25.43
  -2  -6 -14  137.39   18.40
   2   6  15  131.14    9.77
   2  -6  15  105.82   14.80
  -2   6 -15  111.60   21.47
   2   6 -15   99.42   24.62
  -2  -6 -15  119.55   15.80
   2  -6 -15  112.39   31.46
   2  -6 -15  120.25   32.34
  -2  -6 -15  121.16   22.57
  -2   6 -16   36.91   14.15
   2   6 -16   30.64   11.44
   2  -6 -16   31.60    8.83
   2  -6 -16   60.84   13.18
  -2  -6 -16   39.75   10.41
  -2   6 -17   32.02    6.98
   2   6 -17   37.64   12.29
   2  -6 -17   30.09    6.99
   2  -6 -17   26.92   10.74
  -2  -6 -17   44.98   13.70
  -2   6 -18    6.06    3.80
   2   6 -18   11.27    6.86
   2  -6 -18    9.48    3.87
   2  -6 -18   17.47    9.95
  -2  -6 -18   13.75    4.54
  -2   6 -19    6.12    2.63
   2   6 -19   14.18    6.95
   2  -6 -19   10.59    4.02
   2  -6 -19   16.05    4.24
  -2  -6 -19   16.85    6.95
  -2   7   0    5.93    4.10
   2   7   0   -4.85    5.52
   2   7   0    7.92    3.94
  -2   7  -1  278.64   16.86
  -2   7   1  253.58   16.63
   2   7  -1  237.37   17.88
   2   7   1  268.48   23.56
   2   7  -1  225.54   13.15
  -2   7  -2  573.50   22.87
  -2   7   2  531.61   20.89
   2   7  -2  503.69   20.30
   2   7   2  534.42   21.80
   2   7  -2  502.01   19.84
   2  -7  -2  540.41   20.79
  -2   7  -3  311.44   17.72
  -2   7   3  268.66   15.58
   2   7   3  316.53   18.75
   2   7  -3  268.05   32.89
   2  -7  -3  299.38   20.15
  -2   7   4  564.65   24.29
   2   7  -4  554.60   22.16
   2   7   4  532.73   28.63
   2   7  -4  553.18   22.19
   2  -7  -4  599.24   24.69
   2  -7  -4  539.07   25.49
  -2   7   5  756.80   31.81
   2   7  -5  738.17   27.31
   2   7   5  709.28   30.54
   2   7  -5  672.77   26.58
   2  -7  -5  782.97   29.10
  -2  -7  -5  744.84   29.07
  -2   7  -6  364.82   17.77
  -2   7   6  410.04   38.13
   2   7  -6  349.91   25.90
   2   7   6  390.03   39.44
   2   7  -6  353.22   19.99
   2  -7  -6  363.77   16.83
  -2  -7  -6  364.54   17.80
  -2   7  -7  427.61   19.64
  -2   7   7  463.65   20.27
   2   7  -7  469.05   20.07
   2   7   7  449.65   22.47
   2   7  -7  467.09   21.89
  -2  -7  -7  464.31   20.26
   2  -7  -7  419.26   19.65
  -2  -7  -7  473.03   22.36
  -2   7  -8  192.27    8.98
  -2   7   8  206.57   18.37
   2   7  -8  198.43    7.84
   2   7   8  215.54   28.27
  -2   7  -8  212.91   11.66
   2   7  -8  211.95   12.55
   2  -7  -8  184.41   11.84
  -2  -7  -8  184.97   30.80
   2  -7  -8  199.01   19.15
  -2  -7  -8  205.61   17.71
  -2   7  -9   25.94    7.73
   2   7  -9   43.37    9.42
  -2   7   9   49.92   10.99
   2   7   9   24.10    6.20
  -2   7  -9   38.67    7.41
   2   7  -9   38.89   13.05
   2  -7  -9   37.06   12.64
  -2  -7  -9   36.93    9.12
   2  -7  -9   30.99    7.40
  -2  -7  -9   31.47    8.78
  -2   7 -10  222.59   12.67
   2   7 -10  185.35    9.67
  -2   7  10  200.60   11.19
   2   7  10  179.64   15.02
  -2   7 -10  198.72   11.79
   2   7 -10  176.12   38.11
   2  -7 -10  187.35   41.31
  -2  -7 -10  188.39   30.03
   2  -7 -10  227.09   22.89
  -2  -7 -10  214.86   22.76
  -2   7 -11   83.12   14.13
   2   7 -11   67.40   13.46
  -2   7  11   75.45   11.89
   2   7  11   74.67   23.43
  -2   7 -11   73.41   15.84
   2   7 -11  103.50   25.18
   2  -7 -11   76.24   21.18
  -2  -7 -11   68.27   18.44
   2  -7 -11   82.39   24.19
  -2  -7 -11   94.15   23.23
  -2   7 -12   13.68    4.71
   2   7 -12    7.03    3.37
  -2   7  12   10.54    4.65
   2   7  12   10.85    5.00
  -2   7 -12   11.23    6.79
   2   7 -12   10.02    4.67
  -2  -7 -12    4.69    1.63
   2  -7 -12    4.69    3.56
   2  -7 -12   11.10    5.30
  -2  -7 -12   10.65    5.75
  -2   7 -13   39.03   12.28
   2   7 -13   36.34    9.13
  -2   7  13   36.13    9.00
   2   7  13   41.92    9.99
  -2   7 -13   44.27   12.67
  -2  -7 -13   38.93   12.28
   2  -7 -13   37.44    9.88
   2  -7 -13   42.29   16.29
  -2  -7 -13   42.34   12.21
  -2   7  14   54.30    6.56
   2   7  14   53.74   17.76
   2  -7  14   44.96   13.94
  -2   7 -14   80.30   13.25
  -2  -7 -14   60.16   14.60
   2  -7 -14   76.02   15.91
   2  -7 -14   66.11   20.19
  -2  -7 -14   60.45   13.83
   2   7  15   13.68    4.68
   2  -7  15    7.30    5.29
  -2   7 -15    8.66    3.22
   2   7 -15   21.88    9.39
  -2  -7 -15   10.68    5.86
   2  -7 -15    9.95    3.72
   2  -7 -15   26.92    9.78
  -2  -7 -15    9.32    3.84
  -2   7 -16   34.67    5.91
   2   7 -16   40.12   10.12
   2  -7 -16   21.24    5.74
   2  -7 -16   35.27    7.89
  -2  -7 -16   34.15    9.54
  -2   7 -17   36.31    9.08
   2   7 -17   31.12   11.43
   2  -7 -17   32.92   11.62
   2  -7 -17   41.15    6.90
  -2  -7 -17   43.13   13.71
  -2   7 -18   58.56   10.77
   2   7 -18   57.63   19.58
   2  -7 -18   55.34   22.31
   2  -7 -18   78.06   17.92
  -2  -7 -18   59.46   16.25
  -2   7 -19   12.79    6.63
   2  -7 -19   14.83    9.86
   2  -7 -19   15.23    7.86
  -2  -7 -19   13.26    7.16
  -2   8   0    4.21    3.67
   2   8   0    7.78    6.28
  -2   8  -1   30.15    7.32
  -2   8   1   27.20    5.98
   2   8  -1   31.95    6.30
   2   8   1   25.65    6.24
   2   8  -1   30.18    5.75
  -2   8  -2  153.42   26.88
  -2   8   2  125.30   16.26
   2   8  -2  119.32   28.94
   2   8   2  138.46   22.34
   2   8  -2  116.27   19.29
   2  -8  -2  124.08   10.65
  -2   8  -3  559.58   22.49
  -2   8   3  558.70   22.96
   2   8   3  538.88   22.01
   2   8  -3  539.98   21.69
   2  -8  -3  586.76   22.31
  -2   8  -4  542.06   26.42
  -2   8   4  551.08   23.31
   2   8  -4  562.84   24.19
   2   8   4  552.13   24.53
   2   8  -4  566.36   24.63
   2  -8  -4  540.28   25.19
   2  -8  -4  550.32   25.51
  -2   8   5  624.52   30.42
   2   8  -5  615.40   25.82
   2   8   5  593.33   26.29
   2   8  -5  600.22   26.04
   2  -8  -5  596.18   26.51
   2  -8  -5  601.24   25.03
  -2  -8  -5  594.93   28.76
  -2   8  -6  397.64   18.84
  -2   8   6  525.62   40.52
   2   8  -6  421.61   19.32
   2   8   6  413.29   20.13
   2   8  -6  414.28   20.06
   2  -8  -6  384.22   18.16
  -2  -8  -6  414.62   19.87
  -2   8  -7  142.29   22.40
  -2   8   7  157.57   21.88
   2   8  -7  138.39   14.55
   2   8   7  150.46   29.11
   2   8  -7  120.35   23.45
  -2  -8  -7  145.57   24.75
   2  -8  -7  170.49   16.25
  -2  -8  -7  148.23   27.83
  -2   8  -8  344.09   21.80
  -2   8   8  411.55   28.56
   2   8  -8  338.13   15.11
   2   8   8  368.61   17.59
   2   8  -8  312.14   16.61
  -2  -8  -8  338.55   15.86
   2  -8  -8  364.62   46.92
  -2  -8  -8  402.74   43.01
  -2   8  -9  128.84   25.17
   2   8  -9  158.98   28.41
  -2   8   9  154.72   26.30
   2   8   9  138.49   16.52
   2   8  -9  138.82   26.17
   2  -8  -9  139.58   22.34
  -2  -8  -9  129.32   28.61
   2  -8  -9  150.77   18.79
  -2  -8  -9  160.99   28.97
  -2   8 -10   30.90    7.76
   2   8 -10   42.18   10.86
  -2   8  10   38.15    8.55
   2   8  10   29.26   10.06
  -2   8 -10   32.20    9.90
   2   8 -10   55.82   16.74
   2  -8 -10   31.23    8.77
  -2  -8 -10   33.52    8.31
   2  -8 -10   40.79   10.43
  -2  -8 -10   55.43   10.34
  -2   8 -11   24.69    6.79
   2   8 -11   25.66    8.03
  -2   8  11   16.08    5.20
   2   8  11   16.54    7.66
  -2   8 -11   21.70    7.76
   2   8 -11   30.62    6.76
   2  -8 -11   22.44    8.17
  -2  -8 -11    9.69    4.13
   2  -8 -11   13.44    5.29
  -2  -8 -11   31.62    9.66
  -2   8 -12   51.00   13.18
   2   8 -12   39.79   13.84
  -2   8  12   44.06   12.26
   2   8  12   45.73   11.47
  -2   8 -12   44.03   10.41
   2   8 -12   39.79    9.85
   2  -8 -12   38.10   14.54
  -2  -8 -12   35.13   11.27
   2  -8 -12   51.89   10.99
  -2  -8 -12   65.57   11.88
  -2   8 -13    5.95    2.80
   2   8 -13    6.03    2.78
  -2   8  13    9.51    4.48
   2   8  13   16.59    5.88
  -2   8 -13   11.36    3.38
   2   8 -13   15.55    6.32
  -2  -8 -13    8.55    4.66
   2  -8 -13    9.93    8.85
   2  -8 -13   22.99   11.48
  -2  -8 -13   16.21    8.25
  -2   8 -14   29.75   10.24
  -2   8  14   26.02    7.54
   2   8  14   34.51    8.46
  -2   8 -14   45.43    9.70
  -2  -8 -14   22.97    6.58
   2  -8 -14   27.05   10.39
   2  -8 -14   36.20   10.29
  -2  -8 -14    9.64    5.51
   2   8  15   25.81    9.46
   2  -8  15   11.43    9.14
  -2   8 -15   27.28    7.10
   2  -8 -15   21.54    6.40
   2  -8 -15   28.88    7.80
  -2  -8 -15   21.28    6.17
  -2   8 -16   52.29   16.31
   2   8 -16   54.98   22.18
   2  -8 -16   47.89   16.56
   2  -8 -16   47.92   12.75
  -2  -8 -16   62.62   11.03
  -2   8 -17   39.35   11.14
   2   8 -17   35.13    7.26
   2  -8 -17   28.81    5.52
   2  -8 -17   27.93    6.35
  -2  -8 -17   38.71   12.46
  -2   8 -18    5.63    2.85
   2   8 -18    3.34    2.96
   2  -8 -18    6.00    6.31
   2  -8 -18    8.54    8.09
  -2  -8 -18    5.21    5.16
  -2   9   0  382.89   18.97
   2   9   0  419.64   20.44
  -2   9  -1  241.55   20.19
  -2   9   1  258.44   16.16
   2   9  -1  217.28   15.96
   2   9   1  295.11   35.91
  -2   9  -2   61.44   12.85
  -2   9   2   51.86   14.09
   2   9  -2   60.90   11.62
   2   9   2   54.06   13.97
   2   9  -2   55.18   13.63
   2  -9  -2   68.14   15.40
  -2   9  -3  177.31   30.79
  -2   9   3  153.28   12.22
   2   9  -3  139.88   16.98
   2   9   3  221.70   29.15
   2   9  -3  168.03   36.22
   2  -9  -3  181.65   21.90
  -2   9  -4  468.80   21.63
  -2   9   4  467.30   39.45
   2   9   4  413.76   20.52
   2   9  -4  396.65   19.51
   2  -9  -4  476.80   23.79
   2  -9  -4  522.89   42.97
  -2   9   5  109.03   15.52
   2   9  -5  121.13   21.70
   2   9   5  123.53   24.73
   2   9  -5  110.60   21.95
   2  -9  -5  134.50   29.22
   2  -9  -5  112.04   12.18
  -2   9   6    7.14    4.61
   2   9  -6    5.40    3.16
   2   9   6   10.38    5.03
   2   9  -6    5.31    4.16
   2  -9  -6   11.46    7.09
  -2  -9  -6    3.55    6.43
  -2   9  -7   25.62    7.68
  -2   9   7   42.79   11.35
   2   9  -7   43.23   11.39
   2   9   7   31.35    9.41
   2   9  -7   43.71   10.94
  -2  -9  -7   38.49   12.40
   2  -9  -7   37.69    9.25
  -2  -9  -7   39.49    8.93
  -2   9  -8  242.85   16.18
  -2   9   8  228.88   21.74
   2   9  -8  242.11   11.94
   2   9   8  236.47   40.19
   2   9  -8  221.75   15.74
  -2  -9  -8  209.59   20.88
   2  -9  -8  246.79   20.66
  -2  -9  -8  225.40   24.60
  -2   9  -9  124.04   30.44
   2   9  -9  141.21   28.18
  -2   9   9  154.09   16.18
   2   9   9  121.82   20.71
   2   9  -9  128.62   32.61
   2  -9  -9  112.63   32.45
  -2  -9  -9  108.81   27.77
   2  -9  -9  100.34   24.64
  -2  -9  -9  165.29   26.43
  -2   9 -10   42.13   13.48
   2   9 -10   53.88   16.94
  -2   9  10   41.81    9.31
   2   9  10   49.84   15.12
  -2   9 -10   71.69   18.04
   2   9 -10   46.51   11.33
   2  -9 -10   46.58   12.16
  -2  -9 -10   46.45   15.81
   2  -9 -10   50.53   10.17
  -2  -9 -10   50.76    8.65
  -2   9 -11   26.30    7.47
   2   9 -11   26.52    7.07
  -2   9  11   29.64    8.74
   2   9  11   21.65    5.53
  -2   9 -11   23.54    6.76
   2   9 -11   15.59    4.40
   2  -9 -11   18.61    5.36
  -2  -9 -11   22.87    6.53
   2  -9 -11   25.20    7.59
  -2  -9 -11   49.52   11.24
  -2   9 -12   24.63    5.16
   2   9 -12   27.01    7.67
  -2   9  12   34.13    8.66
   2   9  12   25.92    7.32
  -2   9 -12   34.50    8.00
   2   9 -12   26.90    8.12
   2  -9 -12   26.09    7.07
  -2  -9 -12   25.18    8.89
   2  -9 -12   14.44    7.80
  -2  -9 -12   30.45   10.59
  -2   9 -13   49.21   12.49
   2   9 -13   37.00    9.47
  -2   9  13   38.39   10.34
   2   9  13   65.90   14.93
  -2   9 -13   52.18   12.84
   2   9 -13   54.15   11.85
   2  -9 -13   80.36   18.09
  -2  -9 -13   38.14   10.24
   2  -9 -13   45.82   17.12
  -2  -9 -13   57.05   12.15
  -2   9 -14   32.79    7.33
  -2   9  14   28.03   12.09
   2   9  14   44.20   13.40
  -2   9 -14   36.21    8.39
   2   9 -14   48.94   12.13
  -2  -9 -14   23.71    8.89
   2  -9 -14   24.38    6.01
   2  -9 -14   25.70    8.60
  -2  -9 -14   37.18   12.61
  -2   9 -15   94.15   19.93
   2   9  15   86.27   29.17
  -2   9 -15   93.22   22.18
   2   9 -15   10.55    4.43
   2  -9 -15   76.22   22.81
   2  -9 -15   89.49   29.96
  -2  -9 -15   73.69   28.04
  -2   9 -16   51.25   15.89
   2  -9 -16   45.61   13.39
   2  -9 -16   50.49   22.75
  -2  -9 -16   62.68   20.34
  -2   9 -17   28.35   12.87
   2   9 -17   29.89    6.55
   2  -9 -17   24.13   12.54
   2  -9 -17   22.03   13.48
  -2  -9 -17   26.50   14.84
  -2   9 -18    3.00    4.15
   2   9 -18    1.05    2.98
   2  -9 -18   -0.34    4.34
   2  -9 -18    7.72    5.62
  -2  -9 -18    8.78    7.24
  -2  10   0  572.78   28.70
   2  10   0  583.22   23.59
  -2  10  -1  248.71   23.74
  -2  10   1  276.76   15.39
   2  10  -1  270.44   14.40
   2  10   1  278.76   32.49
  -2  10  -2   93.58   17.27
  -2  10   2   69.25   18.74
   2  10  -2   72.62   16.38
   2  10   2   82.42   21.92
   2  10  -2   93.91   18.13
   2 -10  -2   70.38    9.86
  -2  10  -3  206.00   37.59
  -2  10   3  198.17   37.32
   2  10  -3  195.66   38.93
   2  10   3  197.20   26.67
   2  10  -3  223.61   38.04
   2 -10  -3  202.98   30.26
  -2  10  -4  175.34   41.18
  -2  10   4  141.11   16.63
   2  10   4  173.54   34.57
   2  10  -4  133.71   24.15
   2 -10  -4  177.13   21.66
  -2  10  -5   34.81   10.32
  -2  10   5   37.16    7.04
   2  10  -5   41.07    9.91
   2  10   5   16.92    5.39
   2  10  -5   29.70    6.41
   2 -10  -5   18.75    7.14
   2 -10  -5   38.42    6.21
  -2  10   6   16.53    5.15
   2  10  -6   22.18    7.43
   2  10   6    2.53    2.81
   2  10  -6   10.15    5.67
   2 -10  -6   16.61    6.55
  -2 -10  -6   14.46    4.54
  -2  10  -7   19.68    5.93
  -2  10   7   16.74    5.52
   2  10  -7    9.52    8.44
   2  10   7    9.75    4.08
   2  10  -7   10.78    8.02
  -2 -10  -7    5.70    3.23
   2 -10  -7    9.26    6.84
  -2 -10  -7   11.77    6.89
  -2  10  -8   29.45    7.45
  -2  10   8   44.51    9.43
   2  10  -8   31.33    6.39
   2  10   8   35.72   12.35
   2  10  -8   56.24   11.18
   2 -10  -8   24.54    7.29
  -2 -10  -8   32.60    8.01
  -2 -10  -8   35.91    8.16
  -2  10  -9    8.98    4.17
   2  10  -9    9.25    5.75
  -2  10   9    7.05    4.05
   2  10   9   17.30    6.98
   2  10  -9    5.90    3.15
   2 -10  -9    1.33    3.71
  -2 -10  -9    5.71    3.16
   2 -10  -9    8.36    4.03
  -2 -10  -9    8.64    8.21
  -2  10 -10  122.77   26.72
   2  10 -10  158.22   25.24
  -2  10  10  138.08   25.47
   2  10  10  128.71   33.31
   2  10 -10  120.68   34.40
   2 -10 -10  110.01   37.21
  -2 -10 -10  128.67   24.85
   2 -10 -10  119.26   24.75
  -2 -10 -10  141.71   41.84
  -2  10 -11   74.23   15.77
   2  10 -11   54.84   17.20
  -2  10  11   54.13   21.09
   2  10  11   60.66   21.17
   2  10 -11   74.03   15.27
   2 -10 -11   64.45   20.41
  -2 -10 -11   54.09   16.50
   2 -10 -11   66.60   19.85
  -2 -10 -11   66.12   21.05
  -2  10 -12  128.59   27.68
   2  10 -12   91.56   20.96
  -2  10  12  107.67   16.86
   2  10  12  126.37   35.42
  -2  10 -12  115.89   22.22
   2  10 -12  110.45   21.62
   2 -10 -12   99.44   25.53
  -2 -10 -12   84.09   23.99
   2 -10 -12  125.66   34.72
  -2 -10 -12  134.97   39.75
  -2  10 -13   76.40   20.52
   2  10 -13   83.14   26.62
  -2  10  13   95.50   27.68
   2  10  13  103.56   25.12
  -2  10 -13  108.53   22.35
   2  10 -13  104.48   31.07
   2 -10 -13   81.48   20.70
  -2 -10 -13   82.73   28.36
   2 -10 -13  105.84   23.85
  -2 -10 -13  115.98   25.79
  -2  10 -14   54.51   11.21
  -2  10  14   45.05   13.14
   2  10  14   47.68   14.59
  -2  10 -14   48.92   19.43
   2  10 -14   64.00   14.26
  -2 -10 -14   59.56   14.22
   2 -10 -14   45.92   18.28
   2 -10 -14   47.08   17.03
  -2 -10 -14   47.04    9.22
  -2  10 -15   54.84   20.56
   2  10  15   72.23   12.20
  -2  10 -15   77.54   22.55
   2  10 -15   90.41   21.89
   2 -10 -15   54.12   20.94
   2 -10 -15   67.67   20.67
  -2 -10 -15   77.16   25.70
  -2  10 -16   43.81   13.13
   2  10 -16   20.34   12.18
   2 -10 -16   33.23   17.83
   2 -10 -16   51.74   17.91
  -2 -10 -16   51.43   17.00
  -2  10 -17    5.93    5.56
   2 -10 -17    0.42    2.77
   2 -10 -17    7.51    3.62
  -2 -10 -17   21.78    9.38
  -2  11   0   -0.21    7.27
   2  11   0   11.85    5.22
  -2  11  -1  106.31   30.47
  -2  11   1  106.16   24.17
   2  11  -1  118.31   21.36
   2  11   1  149.46   31.02
  -2  11  -2  169.59   33.16
  -2  11   2  198.24   21.01
   2  11  -2  171.06   39.03
   2  11   2  166.49   33.02
   2 -11  -2  150.73   15.91
  -2  11  -3  431.58   20.61
  -2  11   3  426.20   20.24
   2  11  -3  402.04   29.38
   2  11   3  383.65   18.91
   2 -11  -3  404.18   17.73
  -2  11  -4   98.95   32.80
  -2  11   4  102.62   18.22
   2  11  -4   72.80   21.09
   2  11   4   90.96   18.27
   2  11  -4   85.74   23.49
   2 -11  -4   94.51   22.97
  -2  11  -5  145.23   30.50
  -2  11   5  133.49   38.32
   2  11   5  134.97   36.88
   2  11  -5  152.54   26.75
   2 -11  -5  140.43   33.05
   2 -11  -5  141.60   19.10
  -2  11   6   89.61   20.16
   2  11  -6   83.43   15.41
   2  11   6   73.22   12.38
   2  11  -6   76.29   16.28
   2 -11  -6   75.32   14.64
   2 -11  -6   56.12   11.68
  -2 -11  -6  103.36   24.64
  -2  11   7  211.63   32.28
   2  11  -7  191.24   10.56
   2  11   7  224.73   38.85
   2  11  -7  187.37   27.17
   2 -11  -7  224.99   21.03
  -2 -11  -7  244.11   42.49
  -2  11  -8   43.37   15.75
  -2  11   8   29.15    5.51
   2  11  -8   53.54   14.65
   2  11   8   50.96   21.14
   2  11  -8   30.23    6.72
   2 -11  -8   42.37    8.11
  -2 -11  -8   43.32   10.96
   2 -11  -8   52.23   17.64
  -2 -11  -8   40.64   12.18
  -2  11  -9  298.54   18.97
   2  11  -9  298.57   11.80
  -2  11   9  282.01   31.43
   2  11   9  280.17   30.45
   2  11  -9  291.33   47.17
   2 -11  -9  257.83   51.34
  -2 -11  -9  253.61   22.54
   2 -11  -9  279.55   26.19
  -2 -11  -9  282.04   38.93
  -2  11 -10   41.92   13.78
   2  11 -10   41.79   13.40
  -2  11  10   54.56   13.07
   2  11  10   64.46   15.70
   2  11 -10   41.36    9.59
   2 -11 -10   39.07   13.83
  -2 -11 -10   41.47    8.14
   2 -11 -10   44.10    8.07
  -2 -11 -10   58.90   10.70
  -2  11 -11   39.58   11.27
   2  11 -11   38.53   11.73
  -2  11  11   39.08   12.67
   2  11  11   33.76    8.76
   2  11 -11   43.98   13.70
   2 -11 -11   20.93   13.42
  -2 -11 -11   36.32    8.53
   2 -11 -11   31.67    9.61
  -2 -11 -11   37.47   10.31
  -2  11 -12    3.69    3.52
   2  11 -12   -3.52    3.71
  -2  11  12    9.24    4.89
   2  11  12   10.31    5.57
   2  11 -12    4.65    5.23
   2 -11 -12   15.45    6.79
  -2 -11 -12    6.92    4.82
   2 -11 -12    5.27    4.25
  -2 -11 -12   13.29    6.50
  -2  11 -13    5.70    3.45
  -2  11  13   16.34    6.84
   2  11  13    9.95    6.85
   2  11 -13   18.59    5.90
   2 -11 -13    9.38    6.13
  -2 -11 -13   12.55    5.56
   2 -11 -13   15.44    6.58
  -2 -11 -13   14.47    7.00
  -2  11 -14   17.91    5.85
  -2  11  14   11.80    4.11
   2  11  14   17.98   14.60
   2  11 -14   14.20    4.60
   2 -11 -14   16.83    7.27
  -2 -11 -14    9.21    3.97
   2 -11 -14   13.85    3.69
  -2 -11 -14   33.87   11.47
   2  11  15   39.52   10.62
   2  11 -15   47.64   14.97
   2 -11 -15   26.54   15.74
   2 -11 -15   28.73   11.66
  -2 -11 -15   50.85   19.40
   2  11 -16   13.25    5.17
   2 -11 -16   12.87    5.95
   2 -11 -16   17.23    6.39
  -2 -11 -16    9.69    6.35
  -2  12   0    1.39    4.21
   2  12   0    3.78    5.02
  -2  12  -1   57.31   11.15
  -2  12   1   67.27   14.87
   2  12  -1   63.47   13.35
   2  12   1   53.91   19.00
  -2  12  -2  103.50   22.50
  -2  12   2  134.67   22.80
   2  12  -2  129.11   21.90
   2  12   2  142.63   32.07
   2 -12  -2  123.46   15.72
  -2  12  -3   19.91    6.73
  -2  12   3   22.54    8.20
   2  12  -3   45.72   13.26
   2  12   3   24.92    8.88
   2 -12  -3    9.55    3.46
  -2  12  -4   81.56   21.07
  -2  12   4   87.61   23.68
   2  12  -4   77.43   27.69
   2  12   4  104.84   18.39
   2 -12  -4   88.27   18.18
  -2  12  -5  140.66   34.93
  -2  12   5  109.10   27.01
   2  12   5  145.88   36.70
   2  12  -5  133.61   28.25
   2 -12  -5  159.80   44.09
   2 -12  -5  160.01   16.25
  -2 -12  -5  131.74   23.01
  -2  12  -6  234.91   19.73
  -2  12   6  298.55   44.99
   2  12  -6  263.73   13.39
   2  12   6  253.11   39.45
   2  12  -6  259.37   41.06
   2 -12  -6  229.75   39.66
   2 -12  -6  244.55   26.73
  -2 -12  -6  326.96   17.03
  -2  12   7  127.92   24.21
   2  12  -7  128.92   29.69
   2  12   7  161.98   19.67
   2  12  -7  135.58   28.11
   2 -12  -7  131.73   16.20
  -2 -12  -7  156.76   28.69
  -2  12  -8   13.57    6.29
  -2  12   8    7.02    4.34
   2  12  -8    9.97    4.15
   2  12   8    3.29    4.32
   2  12  -8   10.75    4.04
  -2 -12  -8    2.08    3.80
   2 -12  -8    4.64    4.55
  -2 -12  -8    7.01    3.89
  -2  12  -9   18.36    6.16
   2  12  -9   21.15    8.61
  -2  12   9   16.81    7.20
   2  12   9   20.46    6.51
   2  12  -9   29.26    5.94
   2 -12  -9   15.60    6.29
  -2 -12  -9   21.10    7.88
   2 -12  -9   10.58    4.89
  -2 -12  -9   26.03    8.62
  -2  12 -10   98.83   33.15
   2  12 -10  104.57   23.94
  -2  12  10   89.50   21.55
   2  12  10  138.46   14.04
   2  12 -10  101.54   24.33
   2 -12 -10  123.25   30.95
  -2 -12 -10   76.07   18.13
   2 -12 -10  105.28   28.36
  -2 -12 -10  120.10   33.39
  -2  12 -11   55.56   14.18
   2  12 -11   39.59   17.36
  -2  12  11   54.44   17.46
   2  12  11   39.38   15.34
   2  12 -11   60.62   12.28
   2 -12 -11   48.61   10.91
  -2 -12 -11   40.15    9.80
   2 -12 -11   60.75   20.27
  -2 -12 -11   75.01   15.10
  -2  12 -12    9.63    3.70
   2  12 -12    2.22    2.40
  -2  12  12    4.46    6.74
   2  12  12   -4.10    5.55
   2  12 -12    6.23    5.42
   2 -12 -12   -4.92    6.50
  -2 -12 -12    5.94    2.61
   2 -12 -12    0.88    4.96
  -2 -12 -12   -0.62    6.26
  -2  12 -13   12.44    5.35
   2  12 -13    2.92    3.33
  -2  12  13    1.98    4.60
   2  12  13   12.44    5.62
   2  12 -13   -0.23    5.39
   2 -12 -13   22.04    8.24
  -2 -12 -13    7.93    6.97
   2 -12 -13   14.01    3.71
  -2  12 -14    2.23    2.22
  -2  12  14    1.20    4.50
   2  12  14    7.91    3.85
   2  12 -14    7.10    4.17
   2 -12 -14    3.81    4.14
   2 -12 -14    3.93    5.64
  -2 -12 -14    7.20    9.18
   2  12  15    6.42    3.72
   2  12 -15   11.63    7.24
   2 -12 -15    5.90    6.18
   2 -12 -15   17.61    5.72
  -2 -12 -15   12.83    9.77
   2  12 -16   -0.12    4.47
   2 -12 -16    7.17    5.33
   2 -12 -16    9.80    3.53
  -2 -12 -16    4.36    3.75
  -2  13   0   15.62   10.03
   2  13   0   13.98    5.24
  -2  13  -1  158.64   37.04
  -2  13   1  136.35   30.80
   2  13  -1  108.31   25.46
   2  13   1  100.63   23.30
  -2  13  -2  133.20   21.69
  -2  13   2  146.50   33.96
   2  13  -2  126.00   36.05
   2  13   2  128.39   34.17
   2 -13  -2  120.37   19.43
  -2  13  -3  166.94   31.07
  -2  13   3  157.94   40.08
   2  13  -3  183.80   27.16
   2  13   3  180.73   30.62
   2 -13  -3  161.32   19.44
  -2  13  -4   37.39   10.26
  -2  13   4   26.08    7.70
   2  13  -4   29.14    8.14
   2  13   4   34.74    7.84
   2 -13  -4   28.51    6.86
  -2  13  -5   27.90    7.54
  -2  13   5   36.60   14.00
   2  13   5   59.82   13.43
   2 -13  -5   22.52   12.92
   2 -13  -5   26.58    8.50
  -2 -13  -5   30.49    9.35
  -2  13  -6  135.62   27.42
  -2  13   6  117.87   25.97
   2  13   6   98.93   19.68
   2  13  -6  111.36   20.22
   2 -13  -6  104.06   22.97
   2 -13  -6  102.51   27.93
  -2 -13  -6  122.46   36.87
  -2  13   7   56.84   14.35
   2  13  -7   30.98    9.23
   2  13   7   28.22    9.17
   2  13  -7   36.76    8.44
   2 -13  -7   40.09   13.27
  -2 -13  -7   29.13   13.51
  -2  13  -8   16.06    5.71
  -2  13   8   14.11    5.67
   2  13  -8    9.61    4.83
   2  13   8   10.03    5.84
   2  13  -8   11.38    3.71
  -2 -13  -8   22.70    5.99
   2 -13  -8    7.59    5.13
  -2 -13  -8   18.20    6.29
  -2  13  -9   42.79   13.98
   2  13  -9   53.83   13.14
  -2  13   9   69.58   19.80
   2  13   9   75.95   17.26
   2  13  -9   74.19   22.25
   2 -13  -9   54.89   18.67
  -2 -13  -9   48.92   17.67
   2 -13  -9   59.70   16.41
  -2 -13  -9   84.83   14.44
  -2  13 -10   44.30   13.15
   2  13 -10   52.46   14.80
  -2  13  10   43.11   18.32
   2  13  10   45.87   12.40
   2  13 -10   45.98   14.53
   2 -13 -10   52.20   17.44
  -2 -13 -10   37.91   17.23
   2 -13 -10   49.63   18.04
  -2 -13 -10   61.55   15.27
  -2  13 -11   49.23   12.09
   2  13 -11   56.71   17.19
   2  13  11   84.30   18.97
   2  13 -11   56.63   13.45
   2 -13 -11   64.70   25.72
  -2 -13 -11   60.88   19.96
   2 -13 -11   63.80   22.51
  -2 -13 -11   72.91   22.47
  -2  13 -12    3.75    3.45
   2  13 -12    5.17    2.77
  -2  13  12   -0.29    4.58
   2  13  12    3.77    3.33
   2  13 -12    3.25    4.60
   2 -13 -12    6.16    5.61
  -2 -13 -12    3.60    3.87
   2 -13 -12    9.40    5.13
  -2 -13 -12   11.78    5.84
  -2  13 -13   67.12   26.70
   2  13 -13   61.04   22.04
  -2  13  13   48.82   14.44
   2  13  13   53.33   16.36
   2  13 -13   64.76   16.23
   2 -13 -13   50.46   25.82
   2 -13 -13   60.00   17.52
  -2 -13 -13   64.73   24.44
  -2  13 -14   33.57    8.16
  -2  13  14   23.55   10.29
   2  13  14   30.49   11.16
   2  13 -14   41.43   13.80
   2 -13 -14   27.71   15.16
   2 -13 -14   46.34   11.30
  -2 -13 -14   51.50   16.23
   2  13  15   20.47    7.10
   2  13 -15   16.69    8.63
   2 -13 -15   10.76    3.86
   2 -13 -15   14.42    8.88
  -2 -13 -15   10.83    6.03
  -2  14   0  210.57   43.31
   2  14   0  240.21   33.70
  -2  14  -1   83.91   21.28
  -2  14   1   60.48   13.04
   2  14  -1   77.01   14.59
   2  14   1   65.72   20.29
  -2  14  -2    6.26    4.53
  -2  14   2   13.39    6.56
   2  14  -2    8.32    4.72
   2  14   2    7.37    6.16
   2 -14  -2    0.16    3.11
  -2  14  -3   41.10    8.50
  -2  14   3   22.53    5.44
   2  14  -3   58.17   15.94
   2  14   3   45.91   12.51
   2 -14  -3   27.43   14.59
  -2  14  -4   43.49   11.36
  -2  14   4   58.21   15.40
   2  14  -4   69.74   16.15
   2  14   4   51.10   13.02
   2 -14  -4   42.98    9.38
  -2  14  -5    9.21    7.13
  -2  14   5   14.54    6.26
   2  14  -5   11.41    5.13
   2  14   5   11.86    7.12
   2 -14  -5   18.06    5.17
   2 -14  -5    3.82    3.73
  -2 -14  -5   11.02    6.81
  -2  14  -6   15.12    5.68
  -2  14   6   11.66    7.45
   2  14   6   19.86    7.84
   2 -14  -6   15.61    7.69
   2 -14  -6    3.30    5.05
  -2 -14  -6   15.36    7.99
  -2  14  -7    8.35    4.07
  -2  14   7    7.98    3.43
   2  14  -7    6.27    5.46
   2  14   7   12.94    5.76
   2 -14  -7   22.30    9.24
   2 -14  -7   10.30    5.85
  -2 -14  -7   22.68    9.54
  -2  14   8   42.64   11.40
   2  14  -8   28.93    9.23
   2  14   8   18.15   10.60
   2  14  -8   21.44    7.61
  -2 -14  -8   30.90   12.08
   2 -14  -8   34.60   12.24
  -2 -14  -8   36.32    8.06
  -2  14  -9   35.19    9.63
   2  14  -9   28.50   12.76
  -2  14   9   39.26   12.58
   2  14   9   41.04   10.51
   2  14  -9   37.74    8.27
   2 -14  -9   37.82    8.17
  -2 -14  -9   23.36    6.05
   2 -14  -9   34.48    8.31
  -2 -14  -9   40.42   13.87
  -2  14 -10    3.67    4.35
   2  14 -10    5.49    5.70
  -2  14  10    9.14    2.46
   2  14  10   16.29    5.64
   2  14 -10   13.41    6.35
   2 -14 -10    8.41    5.93
  -2 -14 -10    7.03    5.94
   2 -14 -10   11.62    6.91
  -2 -14 -10    4.84    5.10
  -2  14 -11   22.64    5.54
   2  14 -11   19.03    4.48
  -2  14  11   25.34   11.09
   2  14  11   32.00    8.46
   2  14 -11   26.97   10.69
   2 -14 -11   33.24    8.33
  -2 -14 -11   24.76    7.72
   2 -14 -11   19.75    4.55
  -2 -14 -11   46.15    9.66
  -2  14 -12   72.70   26.83
   2  14 -12   85.05   34.47
  -2  14  12   80.05   25.49
   2  14  12   64.44   26.56
   2  14 -12   70.17   21.84
   2 -14 -12   81.07   28.03
  -2 -14 -12   54.43   32.36
   2 -14 -12   87.19   31.95
  -2 -14 -12  112.59   26.42
  -2  14 -13   13.31   10.31
   2  14 -13    8.29    4.96
   2  14  13   15.68   12.14
   2  14 -13    5.53    3.22
   2 -14 -13   11.99    8.41
   2 -14 -13   13.71    5.03
  -2 -14 -13    4.94    6.67
  -2  15   0   12.38    4.91
   2  15   0    5.81    5.48
  -2  15  -1   29.34    7.59
  -2  15   1   11.48    8.11
   2  15  -1   23.16    7.36
   2  15   1   20.88    8.16
   2 -15  -1   20.00    5.42
  -2  15  -2    1.80    2.76
  -2  15   2    9.13    8.06
   2  15  -2   12.39    5.19
   2  15   2   20.47    6.45
   2 -15  -2    7.60    5.35
  -2  15  -3   15.15    5.13
  -2  15   3    2.25    5.62
   2  15  -3   13.47    4.27
   2  15   3   23.88    6.78
   2 -15  -3   18.10    5.80
  -2  15  -4   71.55   21.98
  -2  15   4   65.79   23.27
   2  15  -4   64.70   21.91
   2  15   4   57.07   12.49
   2 -15  -4   64.21   12.51
  -2  15  -5   86.97   29.05
  -2  15   5  116.41   16.11
   2  15  -5  109.16   31.90
   2  15   5   98.45   27.59
   2 -15  -5  110.37   24.39
   2 -15  -5   79.28   21.66
  -2 -15  -5   99.53   29.34
  -2  15  -6    7.59    4.54
  -2  15   6    6.50    6.14
   2  15   6   16.11    7.89
   2 -15  -6    2.85    3.28
   2 -15  -6   10.34    3.44
  -2 -15  -6    4.14    9.02
  -2  15  -7   20.95    8.12
  -2  15   7   44.20    9.91
   2  15  -7   33.54    9.05
   2  15   7   33.81   12.60
   2 -15  -7   19.95    8.10
  -2 -15  -7   17.14    7.30
   2 -15  -7   22.50    9.10
  -2 -15  -7   19.83    6.61
  -2  15   8  104.07   26.46
   2  15  -8   84.15   24.59
   2  15   8   94.91   25.68
  -2 -15  -8   88.63   31.62
   2 -15  -8  107.57   24.62
  -2 -15  -8   88.68   37.22
  -2  15  -9   14.87    5.97
   2  15  -9    9.18    3.68
  -2  15   9   22.80    7.49
   2  15   9    7.94    3.85
   2 -15  -9   12.16   10.90
  -2 -15  -9    8.01    3.94
   2 -15  -9   12.33    6.05
  -2 -15  -9   19.27    9.28
  -2  15 -10    2.52    2.17
   2  15 -10    8.27    7.23
  -2  15  10    6.19    4.91
   2  15  10    6.42    3.12
   2 -15 -10    3.30    5.73
  -2 -15 -10    2.09    3.36
   2 -15 -10    7.77    5.01
  -2 -15 -10   -1.86    5.88
  -2  15 -11    3.83    4.17
   2  15 -11    1.99    5.05
  -2  15  11   10.08    9.26
   2  15  11    5.23    7.65
   2 -15 -11    2.25    5.74
  -2 -15 -11    8.95    5.26
   2 -15 -11   -1.01    5.06
  -2 -15 -11    2.03    3.76
  -2  15 -12   17.00    5.70
   2  15 -12    4.70    7.23
  -2  15  12    5.78    5.47
   2  15  12   11.04    3.70
   2 -15 -12   14.24    7.16
  -2 -15 -12    9.97    4.68
   2 -15 -12   10.80    4.90
  -2 -15 -12    8.29    6.00
  -2  16   0   16.11    9.20
   2  16   0   13.29    9.97
   2 -16   0    9.24    4.02
  -2  16  -1   55.92   15.50
  -2  16   1   58.58   19.99
   2  16  -1   40.68    9.92
   2  16   1   57.95   13.95
   2 -16  -1   43.93   18.17
  -2  16  -2    6.83    3.04
  -2  16   2   10.33    8.34
   2  16  -2   11.16    4.89
   2  16   2    6.47    8.40
   2 -16  -2    7.70    3.62
  -2  16  -3   19.09    5.17
  -2  16   3   16.65    7.82
   2  16  -3    8.55    4.76
   2  16   3   11.52   11.11
   2 -16  -3    5.54    2.26
  -2  16  -4   66.13   14.92
  -2  16   4   65.36   13.51
   2  16  -4   56.76   21.29
   2  16   4  100.60   27.07
   2 -16  -4   58.74   20.81
   2 -16  -4   55.16   21.23
  -2 -16  -4   75.44   30.71
  -2  16  -5   49.61   12.19
  -2  16   5   47.14   11.67
   2  16  -5   54.47   16.80
   2  16   5   35.54    9.21
   2 -16  -5   44.95   15.64
   2 -16  -5   23.54    6.07
  -2 -16  -5   58.61   16.01
  -2  16  -6   40.47   13.32
  -2  16   6   44.17   22.62
   2  16  -6   40.90   18.13
   2  16   6   50.72   13.83
   2 -16  -6   53.38   19.84
   2 -16  -6   28.14    7.45
  -2 -16  -6   32.09    9.70
  -2  16  -7   40.87   17.88
  -2  16   7   41.72   13.08
   2  16   7   79.72   18.77
   2 -16  -7   38.29   24.78
  -2 -16  -7   39.09   21.18
   2 -16  -7   43.41   12.97
  -2 -16  -7   49.61   27.37
   2  16  -8   29.25    8.60
  -2  16   8   17.71    9.42
   2  16   8   39.79    7.05
  -2 -16  -8   32.42   14.12
   2 -16  -8   36.89    9.56
  -2 -16  -8   20.17    5.86
  -2  16  -9   19.24    8.41
   2  16   9   19.08   10.34
   2 -16  -9   26.25    9.39
  -2 -16  -9   22.42   12.77
   2 -16  -9   19.98   10.64
  -2 -16  -9   43.60   13.84
   2  16 -10   12.19    4.80
  -2  16  10   12.15    6.15
   2  16  10   12.12    6.91
   2 -16 -10   20.95    6.84
  -2 -16 -10    6.05    4.39
   2 -16 -10    4.15    3.92
  -2 -16 -10   11.20    6.73
  -2  17   0   59.25   15.00
   2  17   0   55.40   15.89
  -2  17  -1    6.58    5.54
  -2  17   1    6.80    4.11
   2  17  -1   10.63    5.28
   2  17   1   18.37    6.61
   2 -17  -1   16.88    6.02
  -2  17  -2  106.97   31.34
  -2  17   2  102.26   29.52
   2  17  -2   75.95   20.57
   2  17   2   86.39   24.78
   2 -17  -2   57.02   23.01
  -2  17  -3    9.06    5.68
  -2  17   3    7.70    6.93
   2  17  -3    6.02    4.52
   2  17   3    6.73    6.75
   2 -17  -3    3.76    3.86
  -2  17  -4    7.07    4.94
  -2  17   4    7.96    8.37
   2  17  -4    0.95    5.88
   2  17   4    3.70    3.98
   2 -17  -4   13.16    7.55
   2 -17  -4   10.16    2.92
  -2 -17  -4    9.06   10.33
  -2  17  -5    4.15    7.23
  -2  17   5   -0.01    7.14
   2  17  -5    5.69    3.04
   2  17   5   19.57    7.00
   2 -17  -5   17.53    8.59
   2 -17  -5    4.95    3.18
  -2 -17  -5    3.45    3.89
  -2  17  -6   12.76    8.85
  -2  17   6   12.90    8.33
   2  17  -6   10.66    8.40
   2  17   6   28.45    9.05
   2 -17  -6   13.90    9.05
   2 -17  -6   11.76    6.98
  -2 -17  -6   12.81    6.01
  -2  17  -7   14.29    4.12
  -2  17   7    8.92    7.79
   2  17   7    6.04    7.32
   2 -17  -7   17.38    7.06
  -2 -17  -7    3.77    4.63
   2 -17  -7    7.73    5.19
  -2 -17  -7   11.43    5.72
  -2  17  -8   18.77    7.96
  -2  17   8    4.46    7.95
   2  17  -8    7.56    6.09
   2  17   8   13.71    7.48
  -2 -17  -8   21.19    7.82
   2 -17  -8    8.63    4.98
  -2 -17  -8    8.43    5.20
  -2  18   0   26.85   12.73
   2  18   0   10.85    5.74
  -2  18  -1   28.29    9.57
  -2  18   1   51.08   15.35
   2  18  -1   51.53   26.67
   2  18   1   28.73   14.77
  -2  18  -2   37.95   16.98
  -2  18   2   30.71   12.52
   2  18  -2   40.34   13.70
   2  18   2   26.88    9.80
  -2  18  -3   -0.19    5.66
  -2  18   3   13.42    8.70
   2  18  -3   16.50    9.16
   2  18   3    3.19    6.15
  -2  18  -4   12.21    8.40
  -2  18   4    9.02    4.75
   2  18  -4    4.13    4.94
   2  18   4    4.09    4.21
   2 -18  -4  -11.59    9.42
  -2 -18  -4    3.35    3.21
  -2  18  -5   20.96    9.60
  -2  18   5   25.67   10.12
   2  18   5   17.17   10.85
   2 -18  -5   12.24    9.74
  -2 -18  -5    8.29    3.71
  -3   0   0    9.69    4.87
   3   0   0    2.45    2.76
  -3   0   0    8.84    4.48
   3   0   1   38.91   10.21
  -3   0  -1   29.43    6.69
  -3   0   1   28.73    4.93
   3   0  -1   36.97    7.30
   3   0   1   35.19    8.45
  -3   0   1   34.56    5.37
  -3   0  -1   29.75    4.55
   3   0   2   49.08   11.20
   3   0  -2   42.10    9.73
  -3   0  -2   34.82    6.12
  -3   0   2   28.68    5.25
   3   0  -2   39.02    9.36
  -3   0   2   31.66    8.17
   3   0   2   49.27    9.98
  -3   0  -2   33.52    7.70
   3   0   3  150.93   11.03
   3   0  -3  142.54    9.20
  -3   0  -3  130.23   15.32
  -3   0   3  133.56    8.11
   3   0  -3  134.24    9.38
  -3   0   3  141.01   11.59
   3   0   3  144.64    8.31
  -3   0   3  133.60   12.64
  -3   0  -3  135.67    8.61
   3   0  -4    9.23    2.14
   3   0  -4   11.19    3.13
   3   0   4   14.07    3.68
  -3   0  -4    9.12    2.44
   3   0   4    7.07    1.58
   3   0  -4   11.51    4.81
   3   0  -4    5.12    3.21
  -3   0   4    7.00    3.59
  -3   0  -4    7.15    2.54
   3   0  -5 1775.69   22.19
   3   0  -5 1699.28   22.05
   3   0   5 1736.09   25.70
   3   0   5 1791.08   21.40
   3   0  -5 1724.49   28.60
   3   0  -5 1705.98   26.61
  -3   0  -5 1702.55   27.63
   3   0   5 1716.89   24.52
   3   0  -6  188.42    9.49
   3   0  -6  184.79    9.63
   3   0   6  196.78   11.84
  -3   0  -6  198.34   10.09
   3   0   6  186.38    9.42
   3   0  -6  188.23   11.98
   3   0  -6  182.66   10.92
  -3   0  -6  187.61   11.70
   3   0  -7  473.42    4.05
   3   0  -7  467.96   21.96
   3   0   7  452.35   23.45
  -3   0  -7  480.33   14.85
   3   0  -7  456.08   23.56
   3   0   7  451.30   21.57
   3   0  -7  469.47   24.12
  -3   0  -7  443.16   25.36
   3   0   8   13.90    4.10
  -3   0  -8    6.94    1.86
   3   0   8    7.26    1.94
   3   0  -8    3.02    2.16
  -3   0  -8    4.33    2.12
   3   0   9    9.22    4.22
  -3   0  -9    2.63    1.18
   3   0   9    1.74    2.68
   3   0  -9   -0.35    4.68
   3   0  10  352.82   15.92
  -3   0 -10  343.26   13.64
   3   0  10  319.85   13.17
   3   0 -10  341.48   20.19
   3   0  11   40.21   11.36
  -3   0 -11   38.68    9.16
   3   0 -11   35.62    8.90
   3   0 -11   37.56    8.40
   3   0  12   23.20    5.55
  -3   0 -12   19.12    4.68
   3   0 -12   15.97    5.98
   3   0  13   27.54    9.61
  -3   0 -13   28.46    8.85
   3   0 -13   33.93   10.68
   3   0 -13   46.85   13.14
   3   0  14  390.22   16.18
  -3   0 -14  373.21   10.74
   3   0 -14  382.21   13.49
   3   0 -14  425.73   41.56
  -3   0 -14  324.03   13.54
   3   0  15    0.61    2.26
  -3   0 -15    7.73    2.88
   3   0 -15    9.22    4.25
   3   0 -15   14.60    3.59
  -3   0 -15    5.80    3.47
  -3   0 -16    3.29    3.95
   3   0 -16    4.75    4.89
   3   0 -16    1.93    4.85
  -3   0 -16    6.43    5.45
   3   0 -17   66.33   18.07
   3   0 -17   84.82   14.98
   3   0 -18   63.00   16.38
   3   0 -18   51.41   15.71
  -3   0 -18   79.63   18.67
   3   0 -19   23.78    6.77
   3   0 -19   39.75    7.45
  -3   0 -19   34.87    9.97
   3   0 -20    6.70    3.10
   3   0 -20    7.55    5.73
  -3   0 -20    9.90    4.69
   3  -1   0 7536.77   88.78
  -3  -1   0 7443.06   87.71
   3   1   0 7432.91   86.43
  -3  -1   0 7613.20  229.18
   3  -1   0 7603.02  229.15
  -3   1   0 7707.72  232.41
   3  -1   1  418.85   13.43
   3   1   1  392.01   10.31
  -3  -1  -1  425.87    9.99
   3   1   1  387.94    9.96
  -3  -1   1  388.67    9.18
   3  -1  -1  384.03   16.94
  -3   1  -1  385.66    8.21
  -3   1   2  763.92   12.59
   3  -1   2  726.54   13.53
   3   1  -2  730.15   12.57
   3   1   2  807.03   14.64
  -3  -1   2  785.65   12.87
   3  -1   2  748.06   14.68
   3   1  -2  718.87   13.71
  -3  -1   2  799.70   14.21
  -3  -1  -2  745.84   10.19
  -3   1   2  733.02   14.33
   3  -1   2  720.67   11.34
  -3   1   2  731.55   11.55
  -3   1  -2  777.51   11.00
  -3   1   3  462.47    8.76
   3  -1   3  431.44    9.87
   3  -1  -3  440.08    8.14
   3   1  -3  458.67    9.09
   3   1   3  429.61   17.37
  -3  -1   3  419.03    8.05
  -3  -1  -3  436.55   10.10
   3  -1   3  431.97   11.03
   3   1   3  432.68    5.54
   3   1  -3  451.67   10.89
  -3  -1   3  442.24   10.85
   3  -1  -3  423.81   11.54
  -3   1   3  418.66   10.48
  -3  -1  -3  458.72    5.87
   3  -1  -3  420.87    8.59
  -3   1   3  426.98    8.55
  -3   1  -3  419.20    7.83
   3  -1  -4  545.10    8.97
   3   1  -4  503.39    9.09
   3   1   4  534.18   11.88
  -3  -1  -4  499.16   10.95
  -3  -1   4  524.75    8.79
   3  -1   4  517.08   11.77
   3  -1  -4  528.84    9.31
   3  -1   4  520.71    8.12
   3   1  -4  508.83   12.43
   3  -1  -4  552.24   13.22
   3  -1  -4  522.72   11.35
  -3   1   4  492.62    9.92
  -3   1  -4  551.29    9.92
  -3  -1  -4  501.26   11.55
   3  -1   4  520.06    9.33
   3  -1   5  369.46   18.70
   3  -1  -5  405.67   19.61
   3   1  -5  392.88   19.23
   3   1   5  394.46   22.42
  -3  -1   5  385.43   18.60
   3  -1   5  379.05   23.30
   3  -1  -5  395.26   19.17
   3  -1   5  394.89   18.94
   3   1  -5  375.54   19.69
   3  -1  -5  417.91   21.93
   3  -1  -5  393.35   20.89
  -3   1  -5  421.48   21.08
   3  -1   5  384.98   19.33
   3  -1  -6  503.93   14.89
   3   1  -6  542.03   16.02
   3   1   6  550.07   18.85
   3  -1   6  565.33   19.00
   3  -1  -6  475.17    6.25
  -3  -1   6  474.74    5.26
  -3   1  -6  512.43   15.32
  -3  -1  -6  548.51   15.30
   3  -1   6  552.62   16.44
   3   1  -6  546.03   18.84
   3  -1  -6  498.00   17.77
   3   1   6  501.90   14.14
   3   1  -6  553.37   19.45
   3  -1  -6  472.67   10.23
  -3   1  -6  453.63   26.29
   3   1  -7   56.82    4.74
   3  -1  -7   42.75    4.94
   3   1  -7   58.82    4.62
   3   1   7   48.92   14.82
   3  -1   7   70.95   14.00
   3  -1  -7   50.65    5.29
  -3   1  -7   44.62    5.96
  -3  -1  -7   54.40    3.04
   3  -1   7   61.17    5.76
   3   1  -7   67.27   17.71
   3   1   7   46.87    4.08
   3   1  -7   72.70   18.72
   3  -1  -7   57.65   13.28
  -3   1  -7   42.50    9.35
   3  -1  -8   99.51    2.24
   3   1   8  111.13    8.22
   3  -1  -8   95.47    2.20
   3  -1   8  167.05   17.81
  -3   1  -8  102.47    5.21
   3   1  -8  149.17   29.17
   3  -1   8  127.68    7.78
   3   1   8  100.09    9.01
   3   1  -8  142.87   12.62
   3  -1  -8   97.37   14.41
  -3   1  -8  120.13   21.58
   3   1   9   47.62   11.47
   3  -1   9   54.20   10.01
  -3   1  -9   52.35   12.59
  -3  -1  -9   56.27    6.02
   3  -1   9   46.33    6.15
   3   1   9   50.01    6.21
   3   1  -9   59.32   13.70
   3  -1  -9   45.24   10.58
  -3   1  -9   65.56   16.22
   3   1  10  314.13   14.79
   3  -1  10  333.08   15.01
  -3   1 -10  315.56   13.19
  -3  -1 -10  319.95   12.79
   3  -1  10  282.28    7.41
   3   1  10  289.66   11.86
   3   1 -10  318.48   16.21
   3  -1 -10  301.20   15.47
  -3   1 -10  302.16   15.31
   3   1  11  202.83   20.43
   3  -1  11  166.71    7.48
  -3   1 -11  197.88    7.61
  -3  -1 -11  151.51   10.43
   3  -1 -11  199.58   32.00
   3   1  11  169.12   15.18
   3   1 -11  163.52   21.58
   3  -1 -11  191.94   26.38
  -3   1 -11  160.83   21.33
  -3  -1 -11  180.53   33.74
   3   1  12  267.32   12.29
   3  -1  12  298.72   25.32
  -3   1 -12  282.40   13.56
  -3  -1 -12  287.47   11.73
   3   1 -12  290.02   41.95
   3   1 -12  278.83   32.77
   3  -1 -12  293.82   47.60
  -3   1 -12  274.34   14.14
  -3  -1 -12  305.51   22.58
   3   1  13  124.98   17.78
   3  -1  13   87.03   21.36
  -3   1 -13  122.46   13.92
  -3  -1 -13   82.20   12.72
   3   1 -13   92.17   24.73
   3  -1 -13  120.34   26.13
   3   1 -13   71.51   15.85
   3  -1 -13  123.82   23.41
  -3  -1 -13   98.74   22.57
   3   1  14   -0.55    3.23
   3  -1  14    7.59    4.79
  -3   1 -14    3.57    2.02
  -3  -1 -14    8.23    2.94
   3   1 -14   10.57    5.76
   3  -1 -14    1.79    3.33
   3   1 -14   17.46    8.78
   3  -1 -14    6.84    4.19
  -3  -1 -14   12.66    6.88
   3   1  15   57.23   10.92
   3  -1  15   59.18   15.45
  -3   1 -15   54.26    9.10
  -3  -1 -15   59.16    9.37
   3   1 -15   78.62   16.09
   3  -1 -15   69.64   15.32
   3   1 -15   65.53   14.88
   3  -1 -15   66.14   15.12
  -3  -1 -15   80.82   18.58
  -3   1 -16   53.34    9.76
   3   1 -16   55.49   13.38
   3  -1 -16   79.71   19.73
   3   1 -16   70.50   16.79
   3  -1 -16   78.01   19.68
  -3  -1 -16   51.32   21.64
   3   1 -17   41.58   11.59
   3  -1 -17   33.61   10.75
   3   1 -17   46.87    9.54
   3  -1 -17   56.63   19.85
  -3  -1 -17   48.50   16.38
   3   1 -18  110.00   37.32
   3  -1 -18  101.62   30.61
   3   1 -18  101.63   29.92
   3  -1 -18  133.89   32.92
  -3   1 -18   74.09   28.57
  -3  -1 -18  120.90   21.37
   3   1 -19    7.05    4.15
   3  -1 -19    3.89    4.85
   3   1 -19    1.14    3.07
   3  -1 -19    4.67    6.59
  -3   1 -19   12.14    4.93
  -3  -1 -19    8.37    5.86
   3   1 -20   14.82    6.50
   3  -1 -20   20.88    7.13
   3   1 -20    3.20    4.73
   3  -1 -20   17.77    7.11
  -3   1 -20   20.09    8.05
  -3  -1 -20   13.39    6.16
  -3   2   0  435.83   10.05
   3  -2   0  394.52    8.97
  -3  -2   0  395.43   10.01
   3   2   0  380.99    7.80
  -3  -2   0  410.37    8.42
   3  -2   0  407.84   10.62
  -3   2   0  404.50    5.87
  -3   2   1 2773.91   35.88
   3  -2  -1 2852.65   36.28
   3   2   1 2899.33   38.31
  -3  -2   1 2973.16   38.35
  -3  -2  -1 2761.74   36.39
   3   2   1 2978.47   36.09
   3   2  -1 2726.78   34.82
  -3  -2  -1 2780.71   34.12
   3  -2  -1 2887.39   38.00
  -3   2   1 2741.09   35.73
   3  -2   1 2744.86   35.07
  -3   2   1 2783.66   33.18
  -3   2  -1 2856.54   32.58
  -3   2  -2  916.62   15.99
  -3   2   2  958.75   15.38
   3  -2   2  943.74   18.05
   3   2  -2  963.92   16.01
   3   2   2  946.97   17.68
  -3  -2   2  938.99   15.00
  -3  -2  -2  951.39   16.51
   3   2   2  921.84   13.42
   3   2  -2  933.42   17.63
  -3  -2  -2  960.25   13.01
  -3  -2   2  917.63   15.48
   3  -2  -2  919.35   17.54
  -3   2   2  951.30   21.14
   3  -2  -2  929.16   15.03
  -3   2   2  949.57   13.76
  -3   2  -2  920.47   11.76
  -3   2   3  228.01   13.41
   3  -2   3  210.73   13.13
   3  -2  -3  214.36   18.97
   3   2  -3  226.15   13.73
   3   2   3  184.09   12.31
  -3  -2   3  194.93   11.65
  -3  -2  -3  216.01   13.41
   3   2   3  219.33   12.06
  -3  -2  -3  222.08   12.22
   3   2  -3  218.73   16.25
   3  -2  -3  190.47   12.47
   3  -2  -3  208.21   12.30
  -3   2   3  231.66   13.54
  -3   2  -3  199.40   11.33
   3  -2   3  214.47   12.84
  -3   2   4  731.37   12.24
   3   2  -4  733.42   12.49
   3   2   4  716.76   15.12
   3  -2   4  742.88   11.64
  -3  -2  -4  719.15    8.88
   3   2  -4  727.85   14.05
   3  -2  -4  730.38   14.73
  -3  -2  -4  725.78    9.26
   3  -2  -4  682.70   12.43
  -3   2  -4  712.89   13.20
  -3   2   4  717.82   12.66
   3  -2   4  716.64   11.64
  -3   2   5  326.85   16.73
   3  -2  -5  323.53   15.98
   3   2  -5  330.00   16.30
   3   2   5  321.44   22.33
  -3  -2   5  303.84   15.78
   3  -2   5  303.94   16.08
   3  -2   5  312.96   15.48
  -3  -2  -5  331.92   15.50
   3   2  -5  327.84   17.56
  -3  -2  -5  335.72   15.68
   3  -2  -5  336.85   18.62
   3  -2  -5  318.29   16.81
  -3   2  -5  318.55   17.19
   3  -2   5  308.48   15.52
  -3   2   6  450.92   21.86
   3  -2  -6  433.15   21.12
   3   2  -6  421.55   21.24
   3   2   6  448.64   23.73
  -3  -2   6  419.27   20.20
   3  -2   6  436.56   23.73
  -3   2  -6  430.43   21.07
   3  -2   6  420.93   20.51
   3   2  -6  452.58   23.53
  -3  -2  -6  431.64   20.41
   3  -2  -6  455.21   24.28
   3  -2  -6  427.14   22.04
  -3   2  -6  429.83   21.56
   3  -2   6  395.19   19.78
  -3   2   7   87.97    9.60
   3  -2  -7   74.35    5.27
   3   2  -7   75.38    3.57
   3   2   7   98.97   21.35
  -3  -2   7   71.04    4.62
   3  -2   7   78.01    8.11
  -3   2  -7   85.70   11.08
   3  -2   7   66.27    9.01
   3   2  -7   86.21   18.87
  -3  -2  -7   77.13    5.12
   3  -2  -7   90.22   19.60
  -3   2  -7   93.61   19.90
  -3  -2  -7   84.82   15.95
  -3   2   8 1000.54   33.52
   3   2  -8  925.78   30.35
   3  -2  -8  895.87   29.74
   3   2   8  920.87   33.25
  -3  -2   8  909.57   29.94
   3  -2   8  962.80   34.06
  -3   2  -8  942.76   32.53
   3  -2   8  918.39   31.79
  -3  -2  -8  934.81   31.13
   3   2  -8  916.05   33.43
   3  -2  -8  901.05   32.88
  -3   2  -8  916.67   33.63
  -3  -2  -8  903.12   32.82
  -3   2   9  166.50    8.70
   3  -2  -9  150.85    7.63
   3   2   9  150.27   13.41
   3  -2   9  209.16   24.14
  -3   2  -9  159.59    9.26
  -3  -2  -9  160.53    9.69
   3   2  -9  176.07   33.62
   3   2   9  141.63   12.09
   3  -2  -9  140.48   25.15
  -3   2  -9  166.46   12.83
  -3  -2  -9  192.61   33.98
   3   2  10   65.34   20.82
   3  -2 -10   68.66    4.21
   3  -2  10   83.20   18.81
   3  -2 -10   61.83    2.57
  -3   2 -10   73.31   12.94
  -3  -2 -10   82.29    8.47
   3  -2 -10   78.46   21.43
   3   2  10   62.69    5.33
   3   2 -10   86.53   18.40
   3  -2 -10   77.85   15.61
  -3   2 -10   80.89   15.75
  -3  -2 -10   93.00   15.80
   3   2  11  173.07   18.03
   3  -2  11  179.96   10.66
  -3   2 -11  172.42   11.22
  -3  -2 -11  193.80   14.81
   3  -2 -11  177.06   29.63
   3   2  11  172.05    5.39
   3   2 -11  169.78   29.56
   3  -2 -11  168.97   25.27
  -3   2 -11  162.63   24.39
  -3  -2 -11  236.06   36.67
   3   2  12  188.96   22.10
   3  -2  12  180.36   27.25
  -3   2 -12  193.43   23.22
  -3  -2 -12  167.28    5.26
   3  -2 -12  194.54   37.77
   3   2  12  141.28   11.41
   3   2 -12  181.67   36.57
   3  -2 -12  204.02   29.55
  -3   2 -12  180.73   34.78
  -3  -2 -12  181.20   33.07
   3   2  13  116.20   14.03
   3  -2  13   96.15   13.75
  -3   2 -13  126.14   18.24
  -3  -2 -13  102.45   13.04
   3   2 -13  101.91   15.64
   3  -2 -13  149.98   28.95
   3   2 -13   91.85   18.34
   3  -2 -13  112.15   14.30
  -3   2 -13  134.15   25.70
  -3  -2 -13  104.53   22.84
   3   2  14   -2.98    3.51
   3  -2  14    1.40    2.32
  -3   2 -14    2.01    2.12
  -3  -2 -14    3.63    2.69
   3   2 -14   -1.50    5.01
   3  -2 -14    5.85    2.80
   3   2 -14    2.88    3.17
   3  -2 -14   13.97    5.35
  -3   2 -14    7.26    4.88
  -3  -2 -14    3.09    2.39
   3   2  15  102.34   12.28
   3  -2  15  114.21    8.51
  -3   2 -15  112.17   15.24
  -3  -2 -15  105.60   12.19
   3   2 -15  132.57   30.45
   3  -2 -15  115.25   28.42
   3   2 -15  127.18   30.21
   3  -2 -15  120.63   29.45
  -3   2 -15  121.84   23.11
  -3  -2 -15  116.47   21.81
  -3   2 -16   54.64   15.88
   3   2 -16   61.19   21.14
   3  -2 -16   78.33   23.55
   3   2 -16   88.14   26.41
   3  -2 -16   71.49   12.33
  -3   2 -16   70.16   13.80
  -3  -2 -16   75.54   26.46
  -3   2 -17   43.03   13.34
   3   2 -17   49.05   15.26
   3  -2 -17   63.99   17.17
   3   2 -17   63.06   20.48
   3  -2 -17   72.53   11.13
  -3  -2 -17   56.87   12.98
   3   2 -18   13.23    5.50
   3  -2 -18    5.60    6.78
   3  -2 -18    6.25    3.43
  -3  -2 -18    4.99    2.44
   3   2 -19   23.43    9.45
   3  -2 -19   19.42    8.41
   3  -2 -19   11.82    3.83
  -3  -2 -19   11.38    4.52
   3   2 -20   44.79   20.41
   3  -2 -20   52.06   18.00
   3  -2 -20   50.68   19.67
  -3  -2 -20   50.80   18.19
  -3   3   0 5949.05   72.18
   3  -3   0 5809.10   70.14
   3   3   0 6171.57   75.13
  -3  -3   0 5975.82   72.64
   3   3   0 5936.78   70.59
  -3  -3   0 5916.19   70.28
   3  -3   0 5906.06   72.11
   3  -3   0 6138.88   69.56
  -3   3  -1  965.79   16.41
  -3   3   1  940.15   20.41
   3  -3  -1  883.53   15.06
   3   3   1  928.04   16.93
  -3  -3   1  919.10   16.19
   3   3   1  941.72   14.08
   3   3  -1  974.40   16.06
  -3  -3  -1  948.41   14.02
  -3  -3   1  917.93   14.71
   3  -3  -1  900.41   16.89
   3  -3  -1  927.05   12.92
  -3   3   1  946.62   12.94
  -3   3  -2  370.40    9.69
  -3   3   2  392.97    9.39
   3  -3  -2  355.21    8.08
   3   3  -2  409.33   17.71
   3   3   2  374.83   11.30
   3   3   2  366.55    7.11
   3   3  -2  389.71    9.33
  -3  -3   2  373.73    8.74
   3  -3  -2  336.85   16.19
   3  -3  -2  369.98    7.27
  -3   3   2  398.31    9.35
  -3   3   3  452.32    9.37
   3  -3  -3  464.27   19.35
   3   3  -3  489.88   10.80
  -3  -3   3  492.09   12.63
  -3  -3  -3  450.16    7.41
   3   3  -3  445.53   13.06
  -3   3  -3  472.69    8.18
  -3   3   3  471.78    9.01
   3  -3   3  453.42    7.20
  -3   3   4  165.00    9.40
   3  -3  -4  134.35    8.78
   3   3  -4  174.16    9.92
   3   3   4  182.94   26.33
  -3  -3   4  143.23    6.68
   3  -3   4  174.84    9.55
  -3  -3  -4  158.03    8.38
   3   3  -4  161.16   10.08
   3  -3  -4  145.26    8.11
  -3   3  -4  148.86    6.34
   3  -3  -4  164.12    9.60
  -3   3   4  158.88   11.97
   3  -3   4  165.82    8.99
  -3   3  -5 1155.41   35.34
  -3   3   5 1155.12   33.59
   3  -3  -5 1117.95   32.43
   3   3  -5 1172.48   34.00
   3   3   5 1219.14   36.75
  -3  -3   5 1158.32   33.64
  -3  -3  -5 1136.02   31.76
   3  -3   5 1153.59   33.53
   3  -3  -5 1153.28   35.45
  -3  -3  -5 1155.46   32.52
  -3   3  -5 1135.84   32.85
   3  -3  -5 1102.85   32.90
   3  -3   5 1139.62   32.80
  -3  -3  -5 1137.70   34.50
  -3   3  -6   63.83   11.73
  -3   3   6   62.98    6.43
   3  -3  -6   57.10    6.67
   3   3  -6   66.72    8.28
   3   3   6   69.30   21.07
  -3  -3   6   50.29    8.70
   3  -3   6   45.57    6.65
   3   3  -6   74.67   19.63
   3  -3  -6   72.05   14.33
  -3  -3  -6   56.71    6.34
  -3   3  -6   68.98   13.34
   3  -3  -6   74.00   12.78
   3  -3   6   42.60    8.61
  -3  -3  -6   52.81   16.12
  -3   3  -7  944.11   33.18
  -3   3   7  964.83   32.63
   3  -3  -7  883.81   29.85
   3   3  -7  947.13   31.80
   3   3   7  925.93   33.56
  -3  -3   7  914.46   30.83
  -3   3  -7  947.46   32.57
   3   3  -7  964.73   36.13
  -3  -3  -7  963.35   31.87
  -3   3  -7  925.48   32.22
   3  -3  -7  905.66   32.49
  -3  -3  -7  983.79   35.55
  -3   3   8  256.10   14.15
   3   3  -8  248.99   12.27
   3  -3  -8  218.09   12.97
   3   3   8  249.19   18.40
  -3  -3   8  236.16   11.89
   3  -3   8  246.53   14.02
  -3   3  -8  246.79   13.09
   3   3  -8  268.73   16.19
  -3  -3  -8  251.02   12.68
  -3   3  -8  262.66   14.33
   3  -3  -8  244.09   14.43
  -3  -3  -8  216.49   18.10
  -3   3   9  298.58   12.74
   3   3  -9  293.92   11.73
   3  -3  -9  249.41   14.07
   3   3   9  268.70   12.32
  -3  -3   9  276.70    4.87
   3  -3   9  303.41   14.28
  -3   3  -9  278.36    7.66
   3   3  -9  299.64   15.55
  -3  -3  -9  308.20   12.26
  -3   3  -9  286.13    9.49
   3  -3  -9  281.06   11.12
  -3  -3  -9  290.97   16.13
  -3   3  10  245.82    8.99
   3   3 -10  215.47    7.30
   3  -3 -10  211.66   14.22
   3   3  10  227.43   14.77
  -3  -3  10  199.50    7.18
   3  -3  10  249.69   24.02
  -3   3 -10  214.49   10.63
   3   3 -10  210.95   36.70
  -3  -3 -10  214.91    8.48
   3  -3 -10  205.60   23.71
  -3   3 -10  241.06   12.04
   3  -3 -10  224.53   31.51
  -3  -3 -10  221.54   43.31
  -3   3  11    1.45    1.23
   3   3  11    6.53    3.78
   3  -3 -11    1.37    1.28
   3  -3  11    6.57    2.85
  -3   3 -11    8.17    3.95
  -3  -3 -11    4.54    1.92
  -3   3 -11    2.28    2.71
   3  -3 -11   10.19    5.09
  -3  -3 -11    7.95    5.09
   3   3  12  806.96   29.73
   3  -3 -12  709.60   22.84
   3  -3  12  870.09  129.45
  -3   3 -12  750.73   28.98
  -3  -3 -12  796.30   26.88
   3  -3 -12  809.87   34.09
  -3   3 -12  786.82   30.08
   3  -3 -12  828.05  132.93
  -3  -3 -12  757.69   30.37
   3   3  13   18.82    6.15
   3  -3  13   23.14    7.80
  -3   3 -13   20.39    4.45
  -3  -3 -13   23.30    6.67
   3  -3 -13   19.25    5.74
  -3   3 -13   34.82    9.15
   3  -3 -13   24.49    6.12
  -3  -3 -13   16.72    7.84
   3   3  14  134.69   17.11
   3  -3  14  117.69   21.58
  -3   3 -14  114.18   17.73
   3   3 -14  120.72    9.00
  -3  -3 -14  124.33   10.93
   3  -3 -14  143.17   24.31
  -3   3 -14  131.53   32.58
   3  -3 -14  133.67   20.96
  -3  -3 -14  118.28   23.18
   3   3  15   80.41   13.03
   3  -3  15   95.75   15.70
  -3   3 -15   79.67   18.07
   3   3 -15  103.04   21.59
  -3  -3 -15   97.54    8.22
   3  -3 -15   98.40   28.84
  -3   3 -15  102.55   24.02
   3  -3 -15  110.47   24.38
  -3  -3 -15   92.72   16.84
  -3   3 -16   45.52    6.99
   3   3 -16   72.94   21.25
   3  -3 -16   53.10   12.92
  -3   3 -16   58.44   17.26
   3  -3 -16   73.84   14.22
  -3  -3 -16   50.56   11.15
  -3   3 -17   50.85   16.55
   3   3 -17   64.79   27.88
   3  -3 -17   63.67   19.72
  -3   3 -17   72.37   23.96
   3  -3 -17   72.61   11.46
  -3  -3 -17   72.93   26.41
   3   3 -18    7.20    4.93
   3  -3 -18   -0.25    4.36
  -3   3 -18    8.50    5.50
   3  -3 -18    7.83    5.43
  -3  -3 -18    4.27    3.34
   3   3 -19   14.11    5.80
   3  -3 -19   14.75    3.62
  -3   3 -19    5.41    3.33
   3  -3 -19   11.15    4.01
  -3  -3 -19   11.46    7.20
   3   3 -20    7.37    4.43
   3  -3 -20   -0.04    4.24
  -3   3 -20   15.02    5.56
   3  -3 -20   11.59    6.11
  -3  -3 -20    6.77    6.26
  -3   4   0  633.15   16.19
   3   4   0  703.12   14.18
   3   4   0  668.85   13.38
  -3  -4   0  643.34   11.52
   3  -4   0  676.40    9.06
  -3   4  -1  746.38   14.38
  -3   4   1  806.84   20.21
   3   4   1  722.62   14.64
   3   4   1  774.56   12.99
   3   4  -1  786.94   14.51
  -3  -4  -1  765.42   12.61
   3  -4  -1  765.33   15.33
   3  -4  -1  783.05   11.23
  -3   4   2  815.80   15.16
  -3  -4  -2  784.40   12.36
   3   4  -2  815.01   15.29
  -3   4   2  783.65   13.63
  -3   4  -3  516.54   17.54
  -3   4   3  484.96   16.20
   3   4  -3  516.04   17.25
   3   4   3  522.31   18.74
  -3  -4  -3  511.48   15.54
   3   4  -3  483.83   16.27
   3  -4  -3  528.31   18.30
   3  -4   3  522.31   15.87
   3  -4  -3  532.55   16.61
  -3   4   3  493.54   17.96
  -3   4   4  110.04   12.48
   3   4  -4  110.38    7.19
   3   4   4  142.59   21.91
  -3  -4   4  116.37    7.13
  -3  -4  -4  101.59    4.68
   3   4  -4  133.53   18.46
   3  -4  -4  139.34   25.26
   3  -4  -4  125.24    6.49
   3  -4   4  106.01    4.60
  -3   4   4  100.07   17.68
  -3   4  -5  564.97   19.19
  -3   4   5  595.49   19.09
   3   4  -5  597.36   18.96
   3   4   5  595.55   20.83
  -3  -4   5  555.10   17.80
  -3  -4  -5  559.10   17.15
   3   4  -5  588.60   20.08
   3  -4  -5  538.80   24.63
  -3   4  -5  563.28   17.32
   3  -4  -5  559.93   18.53
   3  -4   5  585.68   18.36
  -3  -4  -5  632.51   21.61
  -3   4  -6 1034.61   31.71
  -3   4   6  999.03   31.17
   3   4  -6 1029.25   30.52
   3   4   6 1044.36   32.89
  -3  -4   6  979.19   29.12
  -3  -4  -6  975.95   27.90
   3   4  -6 1024.01   32.24
   3  -4  -6 1030.74   32.86
  -3  -4  -6 1009.08   29.21
  -3   4  -6 1021.89   31.05
   3  -4  -6 1039.60   32.07
   3  -4   6  975.32   29.49
  -3  -4  -6 1052.27   33.30
  -3   4  -7  437.91   22.32
  -3   4   7  438.17   18.03
   3   4  -7  419.25   17.12
   3  -4  -7  381.25   14.25
   3   4   7  439.56   18.28
  -3  -4   7  393.61   14.83
  -3   4  -7  428.54   16.62
   3   4  -7  409.65   17.15
  -3  -4  -7  432.80   15.67
  -3   4  -7  422.49   16.28
   3  -4  -7  423.76   17.46
  -3  -4  -7  419.01   18.22
  -3   4  -8   13.44    5.48
  -3   4   8   24.42    6.52
   3   4  -8   20.87    5.55
   3  -4  -8   16.37    3.19
   3   4   8   31.96    7.12
  -3  -4   8   17.36    4.61
  -3   4  -8   23.84    7.61
   3   4  -8   22.93    6.26
  -3  -4  -8   21.95    4.55
  -3   4  -8   22.34    7.82
   3  -4  -8   28.34    5.73
  -3  -4  -8   28.28    6.67
  -3   4   9   78.85    7.76
   3   4  -9   80.38   10.71
   3  -4  -9   61.56    5.89
   3   4   9   77.88   18.13
  -3  -4   9   61.51   10.71
  -3   4  -9   82.47   14.43
   3   4  -9   90.28   22.66
  -3  -4  -9   69.46    7.23
  -3   4  -9   74.84   21.18
   3  -4  -9   99.62   20.25
  -3  -4  -9   86.30   21.64
  -3   4  10  239.03    9.40
   3   4 -10  257.40    9.32
   3  -4 -10  216.47   12.12
   3   4  10  264.19   25.17
  -3  -4  10  242.03    8.95
   3  -4  10  270.47   32.16
  -3   4 -10  278.57   11.94
   3   4 -10  238.52   12.71
  -3  -4 -10  253.60    9.86
   3  -4 -10  265.69   23.62
  -3   4 -10  258.87   17.13
   3  -4 -10  268.26   23.98
  -3  -4 -10  240.32   16.50
  -3   4  11  166.75    5.32
   3   4 -11  149.77    4.73
   3   4  11  154.65   23.84
   3  -4 -11  124.47    7.63
  -3  -4  11  133.61    8.77
   3  -4  11  162.95   16.78
  -3   4 -11  170.70   26.37
   3   4 -11  162.61   28.05
  -3  -4 -11  174.34   29.58
   3  -4 -11  167.27   31.36
  -3   4 -11  159.40    9.02
   3  -4 -11  162.19   33.96
  -3  -4 -11  144.85   24.10
   3   4 -12   14.79    4.23
  -3   4  12   27.41    6.01
   3   4  12   27.11    7.63
   3  -4 -12   18.82    5.14
   3  -4  12   21.40    5.76
  -3   4 -12   27.69    9.32
  -3  -4 -12   23.03    6.46
   3  -4 -12   24.59    7.48
  -3   4 -12   40.31    9.78
   3  -4 -12   30.64   12.53
  -3  -4 -12   25.12    8.06
  -3   4  13  167.34    4.17
   3   4  13  168.20   21.59
   3  -4  13  158.59   19.24
  -3   4 -13  178.89   23.00
  -3  -4 -13  166.60    5.76
   3  -4 -13  177.72   42.23
  -3   4 -13  172.06   25.18
   3  -4 -13  166.54   27.13
  -3  -4 -13  198.99   23.64
   3   4  14   97.95   13.67
   3  -4  14   90.75   22.51
  -3   4 -14   87.79   21.70
  -3  -4 -14  109.12    8.90
   3  -4 -14   89.22   20.60
  -3   4 -14  111.92   25.81
   3  -4 -14  123.08   19.62
  -3  -4 -14  113.76   28.67
   3   4  15   63.65   11.96
   3  -4  15   56.73    9.46
  -3   4 -15   64.69   16.80
   3   4 -15   58.93   20.92
   3  -4 -15   67.85    7.11
  -3   4 -15   51.98    9.38
   3  -4 -15   79.35   15.70
  -3  -4 -15   80.26   19.03
   3   4  16   18.25    7.23
  -3   4 -16   23.66    7.60
   3   4 -16   23.66    8.19
   3  -4 -16   36.83   11.82
  -3   4 -16   22.36    5.92
   3  -4 -16   25.71    9.01
  -3  -4 -16   13.52    4.93
  -3   4 -17   82.26   20.98
   3   4 -17   80.64   15.72
   3  -4 -17   86.77   30.19
  -3   4 -17   75.41   22.99
   3  -4 -17   86.63   15.01
  -3  -4 -17   92.86   20.18
   3   4 -18   44.13   15.39
   3  -4 -18   34.96   18.12
  -3   4 -18   59.25   17.38
   3  -4 -18   62.41   14.85
  -3  -4 -18   66.06    9.04
   3   4 -19   15.32    7.65
   3  -4 -19    9.00    5.08
  -3   4 -19    9.24    8.47
   3  -4 -19    7.86    4.40
  -3  -4 -19    9.85    7.94
   3   4 -20    9.15    4.46
   3  -4 -20   11.73    4.92
  -3   4 -20    6.64    2.98
   3  -4 -20    7.97    4.86
  -3  -4 -20    8.34    4.48
  -3   5   0  264.71   14.89
   3   5   0  257.01   14.76
   3   5   0  271.00   17.38
  -3   5  -1  138.21   10.58
  -3   5   1  194.05   16.16
   3   5  -1  191.45   11.40
   3   5   1  160.31   13.28
   3   5  -1  186.08   10.97
   3  -5  -1  155.58    8.38
  -3   5  -2  527.71   18.16
  -3   5   2  493.78   17.20
   3   5   2  527.39   18.45
   3   5   2  526.59   17.03
   3   5  -2  468.58   24.16
  -3  -5  -2  462.24   22.74
   3  -5  -2  527.11   19.21
   3  -5  -2  522.84   17.89
  -3   5  -3  702.35   25.18
  -3   5   3  755.19   24.06
   3   5  -3  815.03   25.80
   3   5   3  766.06   25.50
  -3  -5  -3  769.56   23.02
   3   5  -3  769.86   28.44
   3  -5  -3  696.90   23.59
   3  -5   3  773.13   22.41
   3  -5  -3  707.26   21.49
  -3   5   3  732.53   34.16
  -3   5   4   39.81    8.44
   3   5  -4   32.85    8.69
   3   5   4   54.70   12.38
  -3  -5  -4   27.17    7.15
   3   5  -4   38.62    5.92
   3  -5  -4   57.17   11.97
   3  -5   4   32.21    4.74
   3  -5  -4   54.01   14.03
  -3   5   5   85.10   14.92
   3   5  -5   87.31   20.33
   3   5   5  108.41   21.39
  -3  -5  -5   61.81   12.71
   3   5  -5   93.74   20.42
   3  -5  -5  125.16    9.47
   3  -5   5   73.86   10.14
   3  -5  -5   93.66   16.85
  -3  -5  -5   88.59   17.57
  -3   5  -6  996.53   35.50
  -3   5   6 1050.84   36.67
   3   5  -6 1079.69   37.19
   3   5   6 1001.10   38.21
  -3  -5  -6  990.82   33.31
   3   5  -6 1031.90   37.45
   3  -5  -6  939.95   35.20
  -3  -5  -6 1067.43   37.89
   3  -5   6 1099.18   37.31
   3  -5  -6 1011.32   35.74
  -3   5  -7  293.48   16.32
  -3   5   7  293.38   15.55
   3   5  -7  292.68   15.35
   3   5   7  282.83   16.62
   3   5  -7  312.53   18.24
  -3  -5  -7  288.54   17.07
   3  -5  -7  282.42   16.11
  -3  -5  -7  316.05   18.42
  -3   5  -8    9.60    4.78
  -3   5   8   13.60    3.66
   3   5  -8   12.60    2.39
  -3   5  -8   11.87    5.65
   3   5  -8   12.19    4.49
  -3  -5  -8    5.94    1.59
  -3   5  -8    7.98    4.40
   3  -5  -8   -0.79    3.92
  -3  -5  -8   24.38    7.86
  -3   5  -9  240.64   11.41
  -3   5   9  243.35   10.27
   3   5  -9  249.06   10.10
   3   5   9  214.96   19.59
  -3   5  -9  212.90   10.69
   3   5  -9  233.45   13.16
  -3  -5  -9  230.80   11.22
  -3   5  -9  214.49   14.91
   3  -5  -9  216.51   17.56
  -3  -5  -9  229.38   13.08
  -3   5 -10  110.14   17.29
  -3   5  10  102.61   14.04
   3   5 -10   91.04    7.36
   3   5  10  102.42   15.60
  -3  -5  10   86.84    4.14
  -3   5 -10  127.39   18.06
   3   5 -10   91.61   20.54
  -3  -5 -10  101.81    8.64
   3  -5 -10  112.37   24.24
  -3   5 -10  111.25   16.02
   3  -5 -10  139.89   19.71
  -3  -5 -10  123.19   21.85
  -3   5  11    9.61    2.87
   3   5 -11   13.18    4.06
   3   5  11   11.24    4.77
  -3  -5  11   11.70    3.50
   3  -5  11   23.26    5.40
  -3   5 -11    9.87    4.55
   3   5 -11   15.05    5.73
  -3  -5 -11   17.99    4.00
   3  -5 -11   12.65    8.30
  -3   5 -11   20.01    4.88
   3  -5 -11   19.35    4.88
  -3  -5 -11   25.03    5.17
   3   5 -12   11.42    3.38
  -3   5  12   15.71    4.77
   3   5  12   26.92    8.69
   3  -5  12   15.86    4.58
  -3   5 -12   22.71    5.85
   3   5 -12    7.14    3.42
  -3  -5 -12    7.04    2.76
   3  -5 -12   23.05    7.56
  -3   5 -12   22.18    6.19
   3  -5 -12   28.46    7.13
  -3  -5 -12    8.18    5.37
   3   5 -13  134.10    3.36
  -3   5  13  129.46    6.98
   3   5  13  110.95   18.59
   3  -5  13  113.13   15.51
  -3   5 -13  106.97   19.24
  -3  -5 -13  122.22    9.45
   3  -5 -13  110.04   19.48
  -3   5 -13  111.22   26.79
   3  -5 -13  139.69   25.80
  -3  -5 -13  123.24   39.33
   3   5  14    3.65    2.12
   3  -5  14   -0.62    1.91
  -3   5 -14    5.91    3.36
  -3  -5 -14    4.17    2.34
   3  -5 -14    3.86    4.08
  -3   5 -14    4.89    2.45
   3  -5 -14   -0.06    6.06
  -3  -5 -14    4.48    3.99
   3   5  15  193.37    8.95
   3  -5  15  198.18    8.42
  -3   5 -15  187.32    8.55
   3  -5 -15  147.06   36.30
  -3   5 -15  141.65   23.97
   3  -5 -15  151.94   21.71
  -3  -5 -15  181.21   36.11
   3   5  16   18.80    6.72
  -3   5 -16   20.71    5.02
   3   5 -16   18.13    7.57
   3  -5 -16   15.15    7.52
  -3   5 -16   16.60    4.94
   3  -5 -16   28.28    6.44
  -3  -5 -16   27.49    8.77
  -3   5 -17    4.84    2.75
   3   5 -17    3.14    2.42
   3  -5 -17    6.72    4.03
  -3   5 -17    4.56    3.11
   3  -5 -17    2.21    1.95
  -3  -5 -17    9.06    5.66
   3   5 -18   16.98    9.83
   3  -5 -18    7.49    5.07
  -3   5 -18   25.82    6.56
   3  -5 -18   13.98    5.03
  -3  -5 -18   34.07   14.63
   3   5 -19   24.91   10.14
   3  -5 -19   25.27    7.54
  -3   5 -19   39.01   15.33
   3  -5 -19   33.23   14.69
  -3  -5 -19   20.50    9.25
   3   5 -20   17.59    5.18
   3  -5 -20    3.11    4.66
   3  -5 -20    8.98    7.14
  -3  -5 -20   15.37    6.95
  -3   6   0 1418.15   43.27
   3   6   0 1451.26   45.87
   3   6   0 1447.30   42.75
   3  -6   0 1429.92   40.43
  -3   6  -1  198.22   14.23
  -3   6   1  196.42   25.41
   3   6  -1  177.25   14.91
   3   6   1  134.93   20.53
   3   6   1  189.76   15.00
   3   6  -1  183.90   21.34
   3  -6  -1  202.55   10.67
  -3   6  -2   82.50   13.47
  -3   6   2   78.25   15.64
   3   6   2   85.25   18.04
   3   6  -2   51.78   14.05
   3  -6  -2   71.97   14.70
   3  -6  -2   81.23   10.00
  -3   6  -3  910.91   32.90
  -3   6   3  903.86   28.74
   3   6  -3  882.37   28.25
   3   6   3  925.22   32.76
   3   6  -3  896.58   28.69
   3  -6  -3  919.76   30.34
   3  -6   3  853.97   24.59
   3  -6  -3  979.44   29.37
  -3   6   4  394.71   19.04
   3   6  -4  409.81   24.39
   3   6   4  380.59   20.23
   3   6  -4  386.97   16.73
   3  -6  -4  392.50   18.10
   3  -6   4  364.62    6.49
   3  -6  -4  369.78    8.96
  -3   6   5  838.02   30.41
   3   6  -5  854.77   34.39
   3   6   5  802.46   30.30
   3   6  -5  853.30   31.75
   3  -6  -5  801.46   30.60
   3  -6   5  824.56   28.17
   3  -6  -5  815.81   34.48
  -3   6  -6   25.22    9.54
  -3   6   6   32.84    7.88
   3   6  -6   32.23    8.04
   3   6   6   42.90    8.86
   3   6  -6   26.63    9.05
   3  -6  -6   34.03    9.68
   3  -6  -6   19.59    4.79
  -3  -6  -6   31.13    7.53
  -3   6  -7  453.17   22.55
  -3   6   7  497.94   20.84
   3   6  -7  477.76   23.69
   3   6   7  413.49   25.30
   3   6  -7  439.06   20.65
  -3  -6  -7  481.69   19.71
   3  -6  -7  428.51   27.16
  -3  -6  -7  457.63   20.65
  -3   6  -8   99.40   24.31
  -3   6   8  120.20   19.49
   3   6  -8  101.24    6.67
   3   6   8  105.97   24.64
   3   6  -8  113.68   24.99
  -3  -6  -8  109.03   20.22
   3  -6  -8  130.59   13.37
  -3  -6  -8  111.26   23.87
  -3   6  -9   98.47   28.45
  -3   6   9  120.33   13.79
   3   6  -9  113.16   21.66
   3   6   9  113.21   19.78
  -3   6  -9  114.05   21.97
   3   6  -9  112.78   19.73
  -3  -6  -9  105.25   17.31
   3  -6  -9  130.03   21.85
  -3  -6  -9  122.68   28.14
  -3   6 -10   20.87    6.51
  -3   6  10   17.81    4.30
   3   6 -10   14.86    3.89
   3   6  10   31.42    6.73
  -3   6 -10   21.21    7.37
   3   6 -10   26.91    8.20
  -3  -6 -10   17.29    6.02
   3  -6 -10   26.18    6.23
  -3  -6 -10   27.13    7.57
  -3   6 -11  100.13   23.91
  -3   6  11  112.72   12.55
   3   6 -11   92.39    8.75
   3   6  11   95.26   19.75
  -3   6 -11  109.91   17.44
   3   6 -11   95.28   23.53
  -3  -6 -11  104.36   16.02
   3  -6 -11   95.88   18.95
   3  -6 -11  103.32   23.24
  -3  -6 -11  119.32   23.94
   3   6 -12  343.57    8.97
  -3   6  12  343.22   25.31
   3   6  12  323.94   15.01
  -3   6 -12  345.15   10.98
   3   6 -12  325.43   14.40
  -3  -6 -12  337.76   11.05
   3  -6 -12  357.17   14.95
   3  -6 -12  368.51   14.36
  -3  -6 -12  309.12   18.60
   3   6 -13   10.22    3.22
  -3   6  13   14.55    4.45
   3   6  13   14.60    4.11
   3  -6  13   13.21    3.76
  -3   6 -13    5.54    2.15
   3   6 -13   16.06    4.66
  -3  -6 -13    9.74    3.57
   3  -6 -13   14.71    6.35
   3  -6 -13   13.32    5.89
  -3  -6 -13   12.46    6.57
   3   6  14   25.87    8.69
   3  -6  14   26.43   10.83
  -3   6 -14   28.65    7.46
  -3  -6 -14   20.89    7.24
   3  -6 -14   34.70   10.02
   3  -6 -14   28.86    7.28
  -3  -6 -14   36.85   10.74
   3   6  15   73.40    9.05
   3  -6  15   65.10   12.66
  -3   6 -15   59.39   14.64
   3  -6 -15   65.19   11.48
   3  -6 -15   63.66   16.56
  -3  -6 -15   74.26   18.69
   3   6  16   39.40   20.94
  -3   6 -16   46.81    9.61
   3  -6 -16   37.86   15.25
   3  -6 -16   79.63   14.66
  -3  -6 -16   45.00   18.67
  -3   6 -17   33.84   10.27
   3   6 -17   52.80   14.26
   3  -6 -17   28.96   13.37
   3  -6 -17   57.40    9.14
  -3  -6 -17   53.53   14.44
  -3   6 -18    7.41    4.95
   3   6 -18    9.90    4.13
   3  -6 -18    7.83    6.16
   3  -6 -18    8.43    5.51
  -3  -6 -18    9.15    4.73
   3   6 -19   41.91   11.25
   3  -6 -19   36.87   10.57
   3  -6 -19   61.99   11.62
  -3  -6 -19   37.61   14.55
  -3   7   0    6.43    3.76
   3   7   0   12.00    5.11
   3   7   0   11.96    3.15
   3  -7   0    8.62    2.91
  -3   7  -1  112.24    6.78
  -3   7   1  151.63   21.32
   3   7  -1  118.74    7.69
   3   7   1  132.05   24.59
   3   7   1  141.73   13.07
   3   7  -1  122.71   15.07
   3  -7  -1  127.58    8.09
  -3   7  -2   32.47    8.76
  -3   7   2   38.50    9.46
   3   7   2   40.16    5.86
   3   7  -2   23.34    8.49
   3  -7  -2   30.56    6.57
  -3   7  -3  820.66   31.03
  -3   7   3  718.08   27.02
   3   7   3  802.67   36.04
   3   7  -3  705.60   26.76
   3  -7  -3  750.08   39.49
   3  -7  -3  821.63   30.03
  -3   7  -4  386.20   17.08
  -3   7   4  388.91   16.83
   3   7  -4  386.37   17.08
   3   7   4  373.98   12.03
   3   7  -4  355.31   27.72
   3  -7  -4  421.00   20.01
   3  -7   4  345.80   16.94
   3  -7  -4  402.02   17.07
  -3   7   5  235.86   11.81
   3   7  -5  235.39   11.64
   3   7   5  217.03   17.76
   3   7  -5  217.12   11.29
   3  -7  -5  212.35   22.36
   3  -7   5  200.75    9.16
   3  -7  -5  218.95   11.03
  -3   7  -6   31.03    7.90
  -3   7   6   14.17    6.53
   3   7  -6   16.55    3.97
   3   7   6   36.43    7.51
   3   7  -6   23.88    7.83
   3  -7  -6   29.66    7.33
   3  -7  -6   24.80    6.65
  -3  -7  -6   30.32    6.07
  -3   7  -7   76.40   17.95
  -3   7   7   79.54   15.06
   3   7  -7   81.49   12.04
   3   7   7   77.02   23.23
   3   7  -7   73.02   10.88
  -3  -7  -7   74.09   18.55
   3  -7  -7   92.41   23.35
  -3  -7  -7   85.37   11.00
  -3   7  -8   78.85   17.03
  -3   7   8   88.82   14.86
   3   7  -8   85.64   20.67
   3   7   8   75.35   22.72
   3   7  -8   74.02   11.83
  -3  -7  -8   73.40   21.06
   3  -7  -8   75.16   17.22
  -3  -7  -8   94.77   15.87
  -3   7  -9  426.23   18.83
  -3   7   9  476.81   33.48
   3   7  -9  434.04   17.54
   3   7   9  427.07   19.52
   3   7  -9  407.52   19.18
  -3  -7  -9  410.88   19.77
   3  -7  -9  420.71   25.44
  -3  -7  -9  427.82   25.00
  -3   7 -10   89.57   24.35
  -3   7  10   88.92    9.19
   3   7 -10   81.70   17.46
   3   7  10   92.48   14.63
  -3   7 -10   75.34   18.30
   3   7 -10   71.38   21.49
   3  -7 -10   69.43   21.85
  -3  -7 -10   83.94   16.65
   3  -7 -10   98.66   23.51
  -3  -7 -10  108.27   15.33
  -3   7 -11   61.66   13.35
  -3   7  11   68.86    9.69
   3   7 -11   75.52   18.48
   3   7  11   78.82   10.51
  -3   7 -11   66.15   15.50
   3   7 -11   70.38   19.71
   3  -7 -11   61.85   21.01
  -3  -7 -11   66.43   16.50
   3  -7 -11   70.56   13.61
  -3  -7 -11   80.99   17.43
  -3   7 -12    5.73    2.86
   3   7 -12    7.46    1.83
  -3   7  12   11.43    3.43
   3   7  12    2.47    6.15
  -3   7 -12    3.86    4.14
   3   7 -12    8.51    4.08
  -3  -7 -12    7.03    4.14
   3  -7 -12    7.67    9.04
   3  -7 -12    1.30    4.93
  -3  -7 -12   11.69    9.23
  -3   7 -13  119.62   26.60
   3   7 -13  124.67   12.31
  -3   7  13  137.79   12.94
   3   7  13  143.53   18.39
  -3   7 -13  143.75   30.32
   3   7 -13  121.80   34.00
  -3  -7 -13  121.67   19.23
   3  -7 -13  117.66   32.81
   3  -7 -13  142.88   16.96
  -3  -7 -13  132.65   23.40
  -3   7  14    3.42    1.35
   3   7  14   17.37    8.11
   3  -7  14    6.57    5.27
  -3   7 -14    2.71    2.31
   3   7 -14   13.13    4.86
  -3  -7 -14    3.97    3.39
   3  -7 -14   18.02    7.68
   3  -7 -14    0.65    3.34
  -3  -7 -14   12.24    8.62
   3   7  15   76.27   19.74
   3  -7  15   39.68   14.98
  -3   7 -15   67.23   16.65
   3  -7 -15   63.65   13.49
   3  -7 -15  101.13   18.81
  -3  -7 -15   62.17   22.01
   3   7  16   50.38   16.65
  -3   7 -16   54.15   13.45
   3  -7 -16   56.67   12.79
   3  -7 -16   60.83   15.50
  -3  -7 -16   74.94   20.36
  -3   7 -17    5.56    2.75
   3  -7 -17    2.23    4.89
   3  -7 -17   18.23    8.57
  -3  -7 -17   -0.12    4.08
  -3   7 -18   10.08    5.00
   3   7 -18    5.87    4.53
   3  -7 -18   11.50    5.39
   3  -7 -18    1.50    6.01
  -3  -7 -18    7.34    4.68
   3   7 -19   23.11    9.86
   3  -7 -19   25.49   15.27
   3  -7 -19   28.16    4.94
  -3  -7 -19   31.22   14.40
  -3   8   0  107.39   18.46
   3   8   0   83.47   17.28
   3   8   0   78.26   13.77
  -3   8  -1   94.07    9.01
  -3   8   1  125.32   25.98
   3   8  -1  127.72   21.03
   3   8   1  131.71   26.98
   3   8  -1  126.31   23.07
   3  -8  -1  131.46   14.01
  -3   8  -2  376.50   17.79
  -3   8   2  380.05   18.41
   3   8  -2  361.60   12.63
   3   8   2  350.65   20.69
   3   8  -2  323.64   19.10
   3  -8  -2  379.14   15.29
  -3   8  -3  421.97   20.16
  -3   8   3  330.61   18.62
   3   8  -3  365.50   18.57
   3  -8  -3  356.38   31.32
   3  -8  -3  378.05   18.88
  -3   8  -4  142.30   23.67
   3   8  -4  128.29   25.19
   3   8   4  126.65   35.41
   3   8  -4  123.46   25.05
   3  -8  -4  112.38   24.65
   3  -8   4   96.17    4.80
   3  -8  -4  121.57    7.67
  -3   8   5  268.53   33.45
   3   8  -5  233.12   16.77
   3   8   5  323.57   49.24
   3   8  -5  264.09   13.87
   3  -8  -5  300.37   17.80
   3  -8  -5  282.37   18.37
  -3   8   6  654.83   48.06
   3   8  -6  616.64   24.99
   3   8   6  611.06   25.04
   3   8  -6  569.99   37.50
   3  -8  -6  542.34   28.13
   3  -8  -6  564.44   21.34
  -3  -8  -6  598.30   31.94
  -3   8   7  177.67   29.46
   3   8  -7  180.53    9.51
   3   8   7  170.43   30.22
   3   8  -7  174.32   25.51
   3  -8  -7  141.73   28.91
  -3  -8  -7  170.02   16.13
   3  -8  -7  177.89   25.50
  -3  -8  -7  191.69   39.28
  -3   8  -8   65.58   13.22
  -3   8   8   59.08   15.53
   3   8  -8   76.11   17.66
   3   8   8   76.73   19.33
   3   8  -8   78.64   18.22
  -3  -8  -8   53.52   15.84
   3  -8  -8   72.18   25.15
  -3  -8  -8   81.81   20.60
  -3   8  -9  155.01   32.56
  -3   8   9  134.90   18.38
   3   8  -9  128.92   26.38
   3   8   9  140.83   28.24
   3   8  -9  140.33   21.57
  -3  -8  -9  123.96   27.10
   3  -8  -9  158.94   36.84
  -3  -8  -9  147.62   32.55
  -3   8 -10   85.09   17.76
  -3   8  10  131.95   20.15
   3   8 -10  109.86   25.32
   3   8  10   89.50   22.78
   3   8 -10  117.36   25.04
   3  -8 -10   92.78   19.72
  -3  -8 -10   99.22   24.47
   3  -8 -10  101.98   21.96
  -3  -8 -10  122.97   20.65
  -3   8 -11   27.39    8.63
  -3   8  11   18.24    3.53
   3   8 -11   24.21    9.00
   3   8  11   30.12    8.58
   3   8 -11   32.66    7.10
   3  -8 -11   22.51    6.71
  -3  -8 -11   18.55    6.40
   3  -8 -11   42.88   11.53
  -3  -8 -11   29.03   11.61
  -3   8 -12    7.24    4.18
   3   8 -12    3.81    1.88
  -3   8  12    3.15    3.01
   3   8  12    7.69    3.58
   3   8 -12   12.55    6.74
   3  -8 -12   12.68    5.89
  -3  -8 -12    5.73    4.31
   3  -8 -12    9.15    4.21
  -3  -8 -12    5.64    4.30
  -3   8 -13  102.49   30.49
   3   8 -13  108.43    6.56
  -3   8  13   95.66   15.70
   3   8  13  128.38   15.26
  -3   8 -13  117.18   22.77
   3   8 -13  110.06   15.61
  -3  -8 -13   85.42   17.31
   3  -8 -13  101.76   35.47
   3  -8 -13   98.58   24.15
  -3  -8 -13  108.41   26.32
  -3   8  14   17.96    9.20
   3   8  14   18.74   10.59
  -3   8 -14   21.94    6.79
   3   8 -14   35.65    5.99
   3  -8 -14   23.57    5.97
   3  -8 -14   15.06    7.36
  -3  -8 -14   32.80    8.26
   3   8  15   40.89   13.20
   3  -8  15   41.26   17.69
  -3   8 -15   57.40   17.97
   3   8 -15   43.66    9.42
   3  -8 -15   49.62   15.20
   3  -8 -15   43.96   11.66
  -3  -8 -15   53.95   17.68
   3   8  16    0.32    3.64
  -3   8 -16   12.45    4.34
   3  -8 -16    6.19    6.90
   3  -8 -16    9.58    6.50
  -3  -8 -16    3.95    2.74
  -3   8 -17   59.87   20.47
   3  -8 -17   45.02   18.17
   3  -8 -17   77.40   25.96
  -3  -8 -17   61.39   15.02
  -3   8 -18   19.71    9.50
   3   8 -18   24.31    7.16
   3  -8 -18   19.89    7.67
   3  -8 -18   28.57   11.33
  -3  -8 -18   45.72   13.49
  -3   9   0  253.75   13.51
   3   9   0  240.89   13.42
   3   9   0  246.15   12.75
  -3   9  -1    8.26    3.33
  -3   9   1   12.08    4.08
   3   9  -1   19.56    6.41
   3   9   1   25.54    8.23
   3   9  -1   19.36    4.27
   3  -9  -1    6.43    3.80
  -3   9  -2  339.76   17.85
  -3   9   2  359.08   18.97
   3   9  -2  336.55   17.40
   3   9   2  355.02   20.89
   3   9  -2  309.41   15.50
   3  -9  -2  327.80   14.89
  -3   9  -3  377.21   17.30
  -3   9   3  375.76   17.69
   3   9   3  365.36   18.68
   3   9  -3  373.23   22.12
   3  -9  -3  358.82   19.32
   3  -9  -3  358.45   14.72
  -3   9  -4   94.63   23.26
  -3   9   4  107.34   20.82
   3   9   4  115.34   29.52
   3   9  -4   96.39   29.40
   3  -9  -4  104.17   28.89
   3  -9  -4   88.19   19.03
  -3   9  -5  333.45   53.32
  -3   9   5  305.98   42.34
   3   9   5  358.79   47.87
   3   9  -5  283.80   18.26
   3  -9  -5  331.63   19.00
   3  -9  -5  325.07   14.87
   3   9  -6    6.29    4.24
   3   9   6   12.22    7.42
   3   9  -6    3.06    3.15
   3  -9  -6   -3.15    8.85
   3  -9  -6    4.26    5.15
  -3  -9  -6   15.38    7.80
  -3   9   7  116.23   21.58
   3   9  -7  121.79   24.59
   3   9   7  104.47   24.58
   3   9  -7  100.84   24.52
   3  -9  -7   88.58   20.40
   3  -9  -7  103.97   24.54
  -3  -9  -7  112.75   21.07
  -3   9  -8   11.29    6.87
  -3   9   8    9.16    4.80
   3   9  -8    7.49    4.58
   3   9   8   10.34    5.99
   3   9  -8    9.15    3.48
  -3  -9  -8   10.37    3.83
   3  -9  -8    4.90    3.64
  -3  -9  -8    1.79    4.13
  -3   9  -9  458.30   14.73
  -3   9   9  461.62   29.15
   3   9  -9  472.62   13.01
   3   9   9  477.62   15.99
   3   9  -9  427.26   23.78
  -3  -9  -9  430.10   12.14
   3  -9  -9  503.06   15.73
  -3  -9  -9  462.74   17.52
  -3   9 -10    9.26    3.59
  -3   9  10    6.29    5.99
   3   9 -10   11.54    5.59
   3   9  10    5.58    3.47
   3   9 -10    8.90    4.21
   3  -9 -10   16.08    7.85
  -3  -9 -10    5.42    2.65
   3  -9 -10   15.60    5.81
  -3  -9 -10   -0.26    6.84
  -3   9 -11   54.71    9.32
  -3   9  11   52.50   14.36
   3   9 -11   45.30    8.39
   3   9  11   46.17    9.89
   3   9 -11   35.81    9.47
   3  -9 -11   48.99   14.77
  -3  -9 -11   45.27   14.39
   3  -9 -11   65.89   16.72
  -3  -9 -11   57.89   17.17
  -3   9 -12   45.96   11.55
  -3   9  12   47.73   16.51
   3   9 -12   52.31   10.92
   3   9  12   44.75   10.43
   3   9 -12   42.79   13.35
   3  -9 -12   38.84   11.03
  -3  -9 -12   32.75    7.90
   3  -9 -12   37.37    9.83
  -3  -9 -12   64.54   19.45
  -3   9 -13   11.48    5.35
   3   9 -13   13.06    6.29
  -3   9  13   15.16    7.56
   3   9  13   11.85    6.88
   3   9 -13   15.70    4.64
   3  -9 -13   16.88    7.80
  -3  -9 -13   12.94    4.01
   3  -9 -13   11.37    7.08
  -3  -9 -13   11.25    5.46
  -3   9 -14   44.72   14.28
  -3   9  14   48.34   17.71
   3   9  14   54.00   15.76
   3   9 -14   57.07   13.69
   3  -9 -14   41.69   15.23
   3  -9 -14   58.60   20.76
  -3  -9 -14   66.92   15.13
   3   9  15   38.58   11.58
   3   9 -15   37.99   10.48
   3  -9 -15   42.24   16.72
   3  -9 -15   72.06   27.85
  -3  -9 -15   32.83   14.87
   3   9  16   16.72    5.76
   3   9 -16   25.43    9.20
   3  -9 -16   12.82    7.22
   3  -9 -16    9.76    4.72
  -3  -9 -16   26.98   13.00
   3  -9 -17   33.69    8.29
   3  -9 -17   18.46    7.49
  -3  -9 -17   20.63   18.03
   3  -9 -18   20.89   11.69
   3  -9 -18   19.68    6.43
  -3  -9 -18   29.13   11.79
  -3  10   0   93.61   19.17
   3  10   0   75.58   22.42
  -3  10  -1  136.67   26.86
  -3  10   1  161.99   33.99
   3  10  -1  139.35   32.36
   3  10   1  131.48   24.92
   3  10  -1  124.27   13.32
   3 -10  -1  119.35   12.30
  -3  10  -2    7.68    6.17
  -3  10   2    5.47    5.16
   3  10  -2    7.31    6.64
   3  10   2    6.11    4.51
   3  10  -2    8.47    4.75
   3 -10  -2    7.29    2.68
  -3  10  -3   46.39   11.98
  -3  10   3   42.33   10.07
   3  10  -3   52.23   13.01
   3  10   3   31.37   10.01
   3  10  -3   49.80   13.16
   3 -10  -3   46.95   11.72
  -3  10  -4  341.22   26.43
  -3  10   4  293.71   33.42
   3  10   4  326.42   21.47
   3  10  -4  334.67   31.97
   3 -10  -4  354.62   32.51
   3 -10  -4  324.32   14.94
  -3  10  -5  319.21   17.49
  -3  10   5  306.33   33.51
   3  10   5  328.92   41.84
   3  10  -5  275.77   31.56
   3 -10  -5  285.17   16.76
   3 -10  -5  313.45   37.96
  -3  10   6    9.85    4.90
   3  10  -6   34.40   12.08
   3  10   6   42.95   10.30
   3  10  -6   31.33    8.36
   3 -10  -6   15.11    6.02
   3 -10  -6   32.05   10.93
  -3 -10  -6   43.75   10.41
  -3  10   7   44.56    7.78
   3  10  -7   52.38   11.37
   3  10   7   61.73   13.34
   3  10  -7   42.11    9.18
   3 -10  -7   41.23    9.67
   3 -10  -7   47.34    9.94
  -3 -10  -7   61.13    9.91
  -3  10  -8  431.78   15.19
  -3  10   8  449.87   14.62
   3  10  -8  433.11   13.58
   3  10   8  442.69   23.53
   3  10  -8  435.25   45.09
  -3 -10  -8  415.21   12.88
   3 -10  -8  468.18   14.51
  -3 -10  -8  417.50   34.24
  -3  10  -9   43.39   12.13
  -3  10   9   41.10   11.26
   3  10  -9   46.19    9.71
   3  10   9   43.24    9.48
   3  10  -9   29.77    5.66
  -3 -10  -9   39.26   13.57
   3 -10  -9   45.75   12.48
  -3 -10  -9   52.36    8.86
  -3  10 -10    7.52    3.64
  -3  10  10    9.86    4.99
   3  10 -10    5.16    2.65
   3  10  10   -0.22    5.04
   3  10 -10    5.82    4.74
   3 -10 -10    6.13    6.52
  -3 -10 -10    6.49    2.80
   3 -10 -10    5.17    6.01
  -3 -10 -10   -3.92    7.34
  -3  10 -11   53.96   17.21
  -3  10  11   53.50   17.86
   3  10 -11   49.91   10.62
   3  10  11   38.48   15.29
   3  10 -11   55.24   12.71
   3 -10 -11   72.60   13.97
  -3 -10 -11   48.47   15.26
   3 -10 -11   67.54   16.55
  -3 -10 -11   61.27   14.27
  -3  10 -12   25.19    6.25
   3  10 -12   22.99   10.12
  -3  10  12   24.09   10.25
   3  10  12   21.02    5.06
   3  10 -12   25.95    7.59
   3 -10 -12    3.14    6.76
  -3 -10 -12   17.84    5.35
   3 -10 -12   27.80    7.63
  -3 -10 -12   24.63    8.23
  -3  10 -13   16.56    7.36
   3  10 -13   12.07    6.13
  -3  10  13    8.28    5.28
   3  10  13   16.15    4.85
   3  10 -13   11.58    5.51
   3 -10 -13   17.47    6.77
  -3 -10 -13    7.84    6.13
   3 -10 -13   15.12    5.34
  -3 -10 -13    6.45    4.87
  -3  10 -14   11.46    5.65
  -3  10  14    6.68    3.51
   3  10  14    8.89    3.34
   3  10 -14   22.52    8.11
   3 -10 -14   14.98    8.27
   3 -10 -14   20.88    7.41
  -3 -10 -14    9.91    6.30
  -3  10 -15   15.83    7.58
   3  10  15   28.60    9.56
   3  10 -15   36.10    9.48
   3 -10 -15   28.68    9.09
  -3 -10 -15   21.02   13.58
   3  10  16   24.42    7.34
   3  10 -16   30.85    6.48
   3 -10 -16   28.31    9.66
   3 -10 -16   24.83    7.65
   3  10 -17   52.26   16.63
   3 -10 -17   22.78   16.35
   3 -10 -17   33.03   14.46
  -3 -10 -17   34.31   11.20
  -3  11   0  213.69   27.58
   3  11   0  185.91   23.73
  -3  11  -1  130.63   33.97
  -3  11   1  136.08   22.46
   3  11  -1  131.11   20.80
   3  11   1  114.80   21.14
   3 -11  -1  101.68   14.39
  -3  11  -2   48.92   10.76
  -3  11   2   52.63   10.30
   3  11  -2   41.84   12.09
   3  11   2   38.58    8.64
   3  11  -2   46.65   12.30
   3 -11  -2   31.57   12.20
  -3  11  -3  147.83   36.94
  -3  11   3  123.52   24.98
   3  11  -3  121.98   24.96
   3  11   3  155.98   31.38
   3  11  -3  124.48   20.04
   3 -11  -3  154.95   13.64
  -3  11  -4   45.57   10.66
  -3  11   4   53.24   11.22
   3  11   4   41.95   13.70
   3  11  -4   63.53   12.93
   3 -11  -4   37.81   14.20
   3 -11  -4   46.05    8.35
  -3  11  -5   58.65   14.65
  -3  11   5   80.59   14.70
   3  11   5   75.96   10.14
   3  11  -5   87.92   19.56
   3 -11  -5   68.88   16.81
   3 -11  -5   68.86   19.94
  -3  11  -6  167.99   40.60
  -3  11   6  194.56   38.69
   3  11  -6  179.00   12.16
   3  11   6  212.33   44.50
   3  11  -6  192.77   31.09
   3 -11  -6  168.02   33.08
   3 -11  -6  196.35   10.12
  -3 -11  -6  202.10   28.67
  -3  11   7   37.04   11.16
   3  11  -7   28.76    8.08
   3  11   7   42.51    9.94
   3  11  -7   20.14    7.21
   3 -11  -7   49.62   13.08
   3 -11  -7   25.01   12.25
  -3 -11  -7   40.19    7.99
  -3  11  -8   98.61   21.63
  -3  11   8  118.89   16.92
   3  11  -8  100.48   28.01
   3  11   8  118.89   23.99
   3  11  -8  126.37   26.31
  -3 -11  -8  103.91   28.10
   3 -11  -8  145.65   17.44
  -3 -11  -8  127.89   35.09
  -3  11  -9   26.55    9.52
  -3  11   9   26.94    8.76
   3  11  -9   46.07   12.95
   3  11   9   30.49    6.31
   3  11  -9   49.01   11.86
  -3 -11  -9   36.01   11.86
   3 -11  -9   27.06   10.56
  -3 -11  -9   46.44   14.34
  -3  11 -10    9.32    7.77
  -3  11  10   13.05    6.26
   3  11 -10   13.88    6.37
   3  11  10   20.36    8.40
   3  11 -10   12.63    4.21
   3 -11 -10    5.87    6.23
  -3 -11 -10    5.77    2.74
   3 -11 -10    8.17    3.27
  -3 -11 -10   23.65    5.83
  -3  11 -11   59.31   13.04
  -3  11  11   52.02   15.92
   3  11 -11   53.41   16.25
   3  11  11   44.64    8.38
   3  11 -11   47.82   10.09
   3 -11 -11   49.34   11.77
  -3 -11 -11   42.37   11.62
   3 -11 -11   71.74   21.00
  -3 -11 -11   41.60   11.89
  -3  11 -12  122.96   20.53
  -3  11  12  111.02   31.55
   3  11 -12  101.03   28.31
   3  11  12  109.98   24.66
   3  11 -12  113.57   29.38
   3 -11 -12  106.93   22.41
  -3 -11 -12   77.94   27.93
   3 -11 -12  104.16   20.58
  -3 -11 -12   98.43   27.13
  -3  11 -13   49.78    9.69
   3  11 -13   36.82    8.45
  -3  11  13   40.99   18.62
   3  11  13   37.07   15.58
   3  11 -13   47.67   10.53
   3 -11 -13   43.52   16.32
   3 -11 -13   47.10   12.43
  -3 -11 -13   50.00   13.57
  -3  11 -14    9.73    5.73
  -3  11  14    6.48    5.91
   3  11  14    9.64    3.99
   3  11 -14   18.74    7.61
   3 -11 -14   13.43    8.44
   3 -11 -14   10.21    3.69
  -3 -11 -14   25.80   15.93
  -3  11 -15   20.92    6.48
   3  11  15   25.58    9.79
   3  11 -15   37.66   12.03
   3 -11 -15   11.92   10.45
   3 -11 -15   22.26   11.18
  -3 -11 -15   27.62   12.45
   3  11 -16    9.74    4.73
   3 -11 -16   11.41    7.25
   3 -11 -16   16.65    6.49
  -3 -11 -16    4.12    3.73
  -3  12   0    3.97    4.32
   3  12   0   10.54    5.84
  -3  12  -1   71.61   22.60
  -3  12   1   47.43   10.88
   3  12  -1   60.73   14.41
   3  12   1   68.56   14.37
   3 -12  -1   55.16   12.56
  -3  12  -2  621.33   18.36
  -3  12   2  701.60   19.93
   3  12  -2  712.62   21.35
   3  12   2  674.00   20.67
   3 -12  -2  626.92   15.84
  -3  12  -3   37.24   10.44
  -3  12   3   39.87   11.51
   3  12  -3   39.04    9.22
   3  12   3   52.92   10.80
   3  12  -3   27.84    7.02
   3 -12  -3   37.31    7.64
  -3  12  -4   35.58   14.54
  -3  12   4   27.99    7.65
   3  12  -4   36.86   11.23
   3  12   4   43.33   10.76
   3  12  -4   23.21   11.96
   3 -12  -4   34.37    8.28
   3 -12  -4   36.50   11.80
  -3  12  -5  262.43   46.57
  -3  12   5  215.44   42.81
   3  12   5  250.71   43.41
   3  12  -5  236.89   34.23
   3 -12  -5  296.76   41.42
   3 -12  -5  246.67   24.43
  -3  12  -6   17.72    6.72
  -3  12   6   23.38    7.22
   3  12  -6   23.60    7.35
   3  12   6   16.35    6.82
   3  12  -6   23.47    6.21
   3 -12  -6   17.82   11.40
   3 -12  -6   18.10    6.22
  -3 -12  -6   13.82    6.46
  -3  12   7  102.34   17.17
   3  12  -7  100.23   23.85
   3  12   7   59.52   31.42
   3  12  -7  117.51   13.53
   3 -12  -7  103.56   38.11
   3 -12  -7   89.44   16.12
  -3 -12  -7  106.24   23.39
  -3  12  -8    5.12    3.39
  -3  12   8   11.03    6.47
   3  12  -8    5.81    4.49
   3  12   8   10.41    4.26
   3  12  -8   -0.52    5.57
   3 -12  -8    7.84    4.80
  -3 -12  -8    8.89    3.76
   3 -12  -8    5.36    4.97
  -3 -12  -8   20.08    7.97
  -3  12  -9   35.38   12.35
  -3  12   9   47.68   16.34
   3  12  -9   35.71   10.69
   3  12   9   44.66   11.50
   3  12  -9   30.23   10.08
  -3 -12  -9   41.90    9.76
   3 -12  -9   36.41   10.34
  -3 -12  -9   45.91   13.33
  -3  12 -10  246.51   12.42
  -3  12  10  204.88   38.90
   3  12 -10  201.89   10.66
   3  12  10  220.40   47.56
   3  12 -10  196.43   32.32
  -3 -12 -10  195.51   10.57
   3 -12 -10  207.34   29.66
  -3 -12 -10  216.37   34.78
  -3  12 -11   22.21   15.04
  -3  12  11   34.08    6.18
   3  12 -11   18.25    6.86
   3  12  11   19.77    8.67
   3  12 -11   33.57   10.46
   3 -12 -11   26.13    9.34
  -3 -12 -11   18.36    5.50
   3 -12 -11   34.35    9.60
  -3 -12 -11   24.59    6.41
  -3  12 -12   28.39    6.60
   3  12 -12   23.30    8.20
  -3  12  12   33.43    9.04
   3  12  12   33.14   16.42
   3  12 -12   33.50    8.37
   3 -12 -12   19.50    6.00
  -3 -12 -12   26.16    7.52
   3 -12 -12   35.29   11.05
  -3 -12 -12   34.62   10.52
  -3  12 -13   -0.58    4.32
   3  12 -13   17.50    5.14
  -3  12  13    9.03    5.57
   3  12  13    7.81    5.01
   3  12 -13    6.72    4.72
   3 -12 -13   10.56    7.94
   3 -12 -13   13.25    5.16
  -3 -12 -13   16.09    9.29
  -3  12 -14   82.42   36.67
   3  12  14   91.58   36.66
   3  12 -14  105.51   20.37
   3 -12 -14   91.65   34.39
   3 -12 -14   90.52   33.24
  -3 -12 -14  103.09   31.68
  -3  12 -15    3.01    2.40
   3  12  15    3.94    2.52
   3  12 -15    2.81    3.39
   3 -12 -15    8.17    4.40
   3 -12 -15   11.20    3.45
  -3 -12 -15   12.16    8.96
  -3  13   0  101.54   20.36
   3  13   0  123.35   28.91
   3 -13   0   87.03   13.48
  -3  13  -1   54.10   13.52
  -3  13   1   55.69   14.35
   3  13  -1   64.80   15.30
   3  13   1   53.55   13.15
   3 -13  -1   43.47   14.41
  -3  13  -2   68.87   20.62
  -3  13   2   96.18   27.98
   3  13  -2   97.95   20.37
   3  13   2   67.79   14.19
   3 -13  -2   73.71   13.04
  -3  13  -3   -6.09    6.34
  -3  13   3    9.69    5.18
   3  13  -3   10.77    4.90
   3  13   3   21.47   12.38
   3 -13  -3    6.95    4.94
  -3  13  -4   54.97   21.99
  -3  13   4   55.82   17.77
   3  13  -4   46.86   11.57
   3  13   4   48.64   12.06
   3 -13  -4   53.95   18.86
   3 -13  -4   59.91   16.03
  -3  13  -5   30.62   10.58
  -3  13   5   28.27   11.14
   3  13   5   17.20    6.96
   3  13  -5   35.38   11.40
   3 -13  -5   24.02   13.18
   3 -13  -5   21.97    5.95
  -3  13  -6   31.56   13.54
  -3  13   6   28.57   11.03
   3  13  -6   25.54    6.26
   3  13   6   25.77   12.67
   3  13  -6   30.86    7.59
   3 -13  -6   29.52   14.37
   3 -13  -6   30.22    6.84
  -3 -13  -6   30.81    7.30
  -3  13  -7   31.37   10.23
  -3  13   7   22.49    8.53
   3  13  -7   24.13   12.33
   3  13   7   30.31   10.98
   3  13  -7   30.82    7.19
   3 -13  -7   16.58    8.29
   3 -13  -7   16.86    9.07
  -3 -13  -7   48.61   11.84
  -3  13   8   15.34    8.66
   3  13  -8    9.96    4.49
   3  13   8   13.23    5.13
   3  13  -8   17.54    5.88
   3 -13  -8    9.59    7.38
  -3 -13  -8    3.88    2.71
   3 -13  -8   18.70    6.12
  -3 -13  -8    5.11    7.50
  -3  13  -9   13.79    5.40
  -3  13   9   13.92    7.65
   3  13  -9   16.08    8.80
   3  13   9    6.95    7.73
   3  13  -9   20.66    6.55
  -3 -13  -9   16.41    5.88
   3 -13  -9   22.36   11.28
  -3 -13  -9   15.18    6.32
  -3  13 -10   44.45   14.81
  -3  13  10   66.54   20.75
   3  13 -10   58.69   14.28
   3  13  10   56.24   15.66
   3  13 -10   51.54   14.90
  -3 -13 -10   41.06   17.28
   3 -13 -10   53.06   16.08
  -3 -13 -10   58.48   17.63
  -3  13 -11   13.91    4.78
  -3  13  11   10.98    5.95
   3  13 -11   23.12    9.45
   3  13  11   24.52   10.50
   3  13 -11   26.10    7.14
   3 -13 -11   12.63    6.81
  -3 -13 -11   14.99    6.19
   3 -13 -11   13.78    6.31
  -3 -13 -11   22.65    9.69
  -3  13 -12   41.72   19.42
  -3  13  12   55.85   14.35
   3  13 -12   43.88    9.32
   3  13  12   38.34   17.91
   3  13 -12   43.61   10.54
   3 -13 -12   42.12   14.59
   3 -13 -12   41.64   11.09
  -3 -13 -12   55.59   16.85
  -3  13 -13   16.70    6.22
  -3  13  13   23.16    8.51
   3  13  13   12.29    8.70
   3  13 -13    9.62    5.16
   3 -13 -13   22.61    9.61
   3 -13 -13   20.69    8.15
  -3 -13 -13   15.22    6.31
  -3  13 -14   15.23    8.81
   3  13  14    6.25    4.73
   3  13 -14   10.93    5.82
   3 -13 -14   12.92    6.90
   3 -13 -14   13.16    8.89
  -3 -13 -14   11.54    4.64
  -3  14   0    4.12    3.69
   3  14   0    8.95    4.36
   3 -14   0    4.46    4.47
  -3  14  -1   57.24    9.90
  -3  14   1   57.99   11.56
   3  14  -1   57.81   12.72
   3  14   1   55.66   13.36
   3 -14  -1   49.78   13.21
  -3  14  -2    1.03    7.86
  -3  14   2    3.73    7.30
   3  14  -2    8.25    6.77
   3  14   2   20.36   10.12
   3 -14  -2    5.12    3.66
  -3  14  -3   41.13   18.63
  -3  14   3   52.37   14.16
   3  14  -3   51.49   11.62
   3  14   3   27.25    8.72
   3 -14  -3   34.76   10.57
  -3  14  -4   58.36   19.03
  -3  14   4   84.73   21.88
   3  14  -4   55.90   11.70
   3  14   4   69.87   14.07
   3 -14  -4   67.99   19.13
   3 -14  -4   54.59    8.57
  -3  14  -5   70.10   17.61
  -3  14   5   85.90   25.52
   3  14  -5   19.85    7.20
   3  14   5   60.03   24.55
   3 -14  -5   53.83   13.28
   3 -14  -5   39.30   19.20
  -3  14  -6   35.04   11.99
  -3  14   6   40.24   12.87
   3  14   6   51.95   12.94
   3  14  -6   49.36   12.58
   3 -14  -6   42.20   16.50
   3 -14  -6   44.85   13.37
  -3 -14  -6   24.96    7.18
  -3  14  -7    5.10    4.93
  -3  14   7    4.75    4.66
   3  14  -7   26.81    9.31
   3  14   7   17.47    8.67
   3  14  -7    8.36    4.51
   3 -14  -7   15.53    6.80
   3 -14  -7   11.90    5.11
  -3 -14  -7   18.30    6.84
  -3  14   8   77.95   25.03
   3  14  -8   82.97   17.40
   3  14   8  110.80   25.27
   3  14  -8   93.32   20.36
   3 -14  -8   94.52   25.16
  -3 -14  -8   92.32   39.77
   3 -14  -8   75.88   21.69
  -3 -14  -8  113.93   36.01
  -3  14  -9    9.49    3.48
  -3  14   9   27.39    8.44
   3  14  -9   19.21    9.53
   3  14   9   21.82    7.36
   3  14  -9   26.16    9.58
  -3 -14  -9   12.45    7.17
   3 -14  -9   11.69    5.20
  -3 -14  -9   27.28   11.30
  -3  14 -10    5.93    4.93
  -3  14  10    8.63    4.33
   3  14 -10    3.46    4.64
   3  14  10    8.12    8.39
   3  14 -10   13.02    4.57
  -3 -14 -10    7.30    5.26
   3 -14 -10   -2.82    4.96
  -3 -14 -10   -1.24    6.56
  -3  14 -11    7.47    7.33
  -3  14  11    8.70    6.14
   3  14 -11    3.51    5.66
   3  14  11    7.12    4.46
   3  14 -11   12.16    8.79
   3 -14 -11   10.63   11.14
  -3 -14 -11   14.10    7.41
   3 -14 -11   10.63    7.15
  -3 -14 -11   15.07    4.24
  -3  14 -12   37.25   12.37
   3  14 -12   25.70   15.39
  -3  14  12   32.03   11.45
   3  14  12   39.62   17.74
   3  14 -12   26.17    9.11
   3 -14 -12   37.43   13.71
   3 -14 -12   37.79    9.22
  -3 -14 -12   38.81   17.51
  -3  14  13    8.02    5.16
   3  14  13   15.82    5.39
   3  14 -13   18.50    6.16
   3 -14 -13   28.86    8.97
  -3 -14 -13   17.93    6.63
  -3  15   0  217.71   53.50
   3  15   0  204.33   14.21
   3 -15   0  190.14   25.42
  -3  15  -1   -2.07    6.51
  -3  15   1   10.50    5.91
   3  15  -1   12.90    7.72
   3  15   1    6.07    4.29
   3 -15  -1    4.13    4.16
  -3  15  -2   13.67    7.07
  -3  15   2   12.73    6.97
   3  15  -2   12.39    7.72
   3  15   2   12.94    7.59
   3 -15  -2    4.58    3.36
  -3  15  -3    5.73    6.77
  -3  15   3    8.38    5.43
   3  15  -3    8.70    6.50
   3  15   3    8.52    7.88
   3 -15  -3    8.64    3.61
  -3  15  -4   55.98   14.10
  -3  15   4   49.50   19.62
   3  15  -4   50.34   16.83
   3  15   4   52.03    8.01
   3 -15  -4   46.88   16.90
   3 -15  -4   46.54   12.58
  -3  15  -5   49.47   12.31
  -3  15   5   46.34   13.94
   3  15  -5   44.80   12.00
   3  15   5   54.56   12.11
   3 -15  -5   40.01   10.48
   3 -15  -5   37.82    8.74
  -3 -15  -5   59.79   19.98
  -3  15  -6   54.93   14.75
  -3  15   6   55.14   12.51
   3  15   6   58.24   11.63
   3 -15  -6   50.69   19.20
   3 -15  -6   40.57   15.93
  -3 -15  -6   55.64   15.84
  -3  15  -7   41.10   15.88
  -3  15   7   74.50   18.22
   3  15  -7   52.41   22.44
   3  15   7   49.68   12.28
   3 -15  -7   45.87   13.49
   3 -15  -7   43.42   14.72
  -3 -15  -7   76.36   21.91
  -3  15   8   -1.28    5.65
   3  15  -8    4.93    3.48
   3  15   8   26.19   11.07
   3 -15  -8    7.71    6.35
  -3 -15  -8    4.43    4.33
   3 -15  -8    5.09    3.78
  -3 -15  -8    4.38    6.69
  -3  15  -9   26.58    8.72
  -3  15   9   20.98   10.84
   3  15  -9   16.19    7.48
   3  15   9   14.88    5.39
   3  15  -9   14.63    6.45
  -3 -15  -9    8.03    3.37
  -3 -15  -9   23.83    9.22
  -3  15 -10   -1.03    5.17
  -3  15  10   11.91    6.12
   3  15 -10    6.67    6.41
   3  15  10    9.79    8.33
   3  15 -10   11.77    8.03
  -3 -15 -10    5.35    6.57
   3 -15 -10    5.98    4.79
  -3 -15 -10    3.73    5.78
  -3  15 -11   18.99    6.65
  -3  15  11   13.61    5.52
   3  15 -11    9.93    6.04
   3  15  11   16.47    8.57
   3  15 -11    7.61    3.57
   3 -15 -11    8.03    9.73
  -3 -15 -11    2.48    3.39
   3 -15 -11   10.02    5.61
  -3 -15 -11   14.26    5.15
  -3  15 -12   55.72   16.85
   3  15 -12   50.12   19.96
  -3  15  12   47.65   27.72
   3  15  12   58.08   14.28
   3  15 -12   42.65   22.96
   3 -15 -12   57.08   17.62
   3 -15 -12   44.61   25.74
  -3 -15 -12   52.54   20.68
  -3  16   0   13.77    8.53
   3  16   0    5.26    6.00
  -3  16  -1   52.07   15.47
  -3  16   1   68.96   14.44
   3  16  -1   52.74   22.50
   3  16   1   54.80   15.06
   3 -16  -1   35.69   14.05
  -3  16  -2   30.65   11.01
  -3  16   2   32.63    5.66
   3  16  -2   44.04   12.28
   3  16   2   36.35   12.26
   3 -16  -2   22.05    8.91
  -3  16  -3   25.89    7.16
  -3  16   3   27.13   12.29
   3  16  -3   29.84   12.94
   3  16   3   21.90    9.64
   3 -16  -3   31.87    9.34
   3 -16  -3   23.92    7.68
  -3  16  -4   18.25    7.20
  -3  16   4   19.80    6.68
   3  16  -4   18.78   15.36
   3  16   4   19.22    6.51
   3 -16  -4   28.18   10.10
   3 -16  -4   28.62    6.25
  -3  16  -5   13.13    6.46
  -3  16   5   14.27    9.59
   3  16  -5    1.35    4.01
   3  16   5   12.36    7.16
   3 -16  -5    5.37    5.07
   3 -16  -5    7.27    4.80
  -3 -16  -5    6.81    3.64
  -3  16  -6   47.44    8.80
  -3  16   6   53.91   14.74
   3  16   6   48.82   22.41
   3 -16  -6   50.71   24.62
   3 -16  -6   42.41   13.23
  -3 -16  -6   48.42   19.23
  -3  16  -7   10.60    6.54
  -3  16   7   -0.74    5.87
   3  16  -7    5.25    6.42
   3  16   7   15.22    7.90
   3 -16  -7   14.60    7.24
   3 -16  -7    5.81    3.27
  -3 -16  -7    4.26    3.38
  -3  16   8    8.72    5.87
   3  16  -8   18.92    7.50
   3  16   8   32.89    8.60
   3 -16  -8   16.80    6.06
  -3 -16  -8   24.95    8.96
   3 -16  -8   11.18    4.63
  -3 -16  -8   17.39    9.62
  -3  16   9   29.54    8.26
   3  16  -9   35.84   11.85
   3  16   9   30.85    6.45
   3 -16  -9   21.32   12.44
  -3 -16  -9   11.92    8.62
  -3 -16  -9   25.62   19.42
  -3  16 -10   10.51    5.35
  -3  16  10    6.00    4.66
   3  16 -10    9.51    4.48
   3  16  10   14.98    9.60
  -3 -16 -10    6.31    4.94
   3 -16 -10   16.63    7.40
  -3 -16 -10    4.29    3.90
  -3  17   0   12.98    3.00
   3  17   0   13.33    7.65
  -3  17  -1   23.14    5.92
  -3  17   1   26.90    6.02
   3  17  -1   32.81   13.31
   3  17   1   29.78    7.80
  -3  17  -2    7.93    4.58
  -3  17   2   12.89    5.92
   3  17  -2   19.41    5.64
   3  17   2   12.84    6.20
  -3  17  -3   26.52    8.50
  -3  17   3   52.31   16.95
   3  17  -3   50.48   14.63
   3  17   3   48.59   16.14
   3 -17  -3   45.36   21.99
  -3  17  -4   -1.43    5.63
  -3  17   4    6.72    7.07
   3  17  -4    7.41    7.11
   3  17   4    8.00    3.59
   3 -17  -4   -3.71    8.52
  -3 -17  -4   15.62    4.68
  -3  17  -5   15.05    4.97
  -3  17   5    7.39    5.05
   3  17  -5    5.17    2.97
   3  17   5    5.71    5.59
   3 -17  -5   12.16    7.41
  -3 -17  -5    8.10   13.68
  -3  17  -6   61.10   27.02
  -3  17   6   53.33   13.68
   3  17  -6   68.11   23.87
   3  17   6   79.10   27.57
   3 -17  -6   44.81   32.62
  -3 -17  -6   57.25   26.65
  -3  17  -7    7.68    5.80
  -3  17   7    4.91    5.37
   3  17   7   14.14    3.63
   3 -17  -7    8.84    8.13
   3 -17  -7    8.92    4.59
  -3 -17  -7   12.78    7.15
  -3  18   0   34.68   13.29
   3  18   0   29.50    8.77
  -3  18  -1   10.82    7.01
  -3  18   1    7.82    5.97
   3  18  -1    0.41    7.78
   3  18   1   -1.55    6.91
  -3  18  -2   10.68    5.64
  -3  18   2   12.41    4.24
   3  18  -2    4.85    4.43
   3  18   2   20.05    9.08
  -3  18  -3   32.11   12.02
  -3  18   3   31.85   16.09
   3  18  -3   16.82   11.62
   3  18   3   27.91   12.47
   3 -18  -3   24.45   12.68
  -3  18  -4   12.36    6.60
  -3  18   4    8.47    5.47
   3  18  -4    3.65    3.90
   3  18   4   20.13    8.88
   3 -18  -4   18.26   10.79
  -3 -18  -4    5.14    4.14
   4   0   0  216.55   14.21
  -4   0   0  206.92   13.05
   4   0   0  208.94   12.88
  -4   0   0  211.25   12.89
   4   0   1 1837.64   32.13
  -4   0   1 1704.73   23.94
   4   0  -1 1774.60   30.07
   4   0   1 1813.56   24.40
  -4   0   1 1771.90   25.09
  -4   0  -1 1810.93   24.13
   4   0   2  134.38   19.62
   4   0  -2  123.12    9.24
  -4   0   2  109.06    7.51
   4   0  -2  117.19    8.83
   4   0   2  122.21    7.73
  -4   0   2  107.01   16.48
  -4   0  -2  134.85   13.38
   4   0   3  427.47   11.16
   4   0  -3  385.30    9.16
  -4   0   3  382.15    8.43
   4   0  -3  369.94   11.80
   4   0   3  405.66    7.17
  -4   0   3  395.09    8.47
   4   0  -4   56.37   11.18
   4   0  -4   58.59    9.75
   4   0   4   72.63   14.96
   4   0  -4   64.05   13.34
   4   0   4   56.34    2.75
  -4   0  -4   56.46   12.64
   4   0  -5   79.84    4.01
   4   0  -5   84.71    4.71
   4   0   5   86.94   10.96
   4   0   5   86.56    3.38
   4   0  -5   81.47   11.72
   4   0   5   86.83    3.68
  -4   0  -5   92.23   17.53
   4   0  -6  463.03   22.61
   4   0  -6  464.53   24.17
   4   0   6  475.03   11.88
   4   0   6  478.93   13.60
   4   0  -6  503.91   18.66
   4   0  -6  482.89   17.43
  -4   0  -6  441.98   22.60
   4   0  -7  101.70    4.59
   4   0  -7  105.45    3.60
   4   0   7  128.41   22.79
   4   0  -7  136.57   29.04
   4   0   7   98.03    2.93
   4   0  -7  128.53   25.20
  -4   0  -7   96.35    6.63
   4   0  -8   32.26    5.53
   4   0  -8   36.39    4.65
   4   0   8   27.86    7.00
   4   0  -8   51.24    8.84
   4   0   8   30.84    5.04
   4   0  -8   46.92   15.76
  -4   0  -8   36.98    9.42
   4   0  -9    6.30    1.18
   4   0   9   13.18    5.53
  -4   0  -9    8.98    2.20
   4   0  -9    4.96    5.23
   4   0   9    8.64    2.39
   4   0  -9   19.08    7.73
  -4   0  -9    8.25    5.81
   4   0  10  102.95   13.92
  -4   0 -10   87.02    5.70
   4   0 -10  107.98   25.11
   4   0  10   75.33    8.15
   4   0 -10  101.95   15.97
  -4   0 -10   86.09   15.77
   4   0  11  458.08   18.69
  -4   0 -11  437.44   14.44
   4   0  11  390.86   13.48
   4   0 -11  422.17   18.80
  -4   0 -11  409.63   25.68
   4   0  12   88.18   22.56
  -4   0 -12   74.50    7.07
   4   0  12   65.48    8.94
   4   0 -12   67.12   11.84
   4   0  13  343.73   29.53
  -4   0 -13  298.31    7.88
   4   0 -13  334.49   50.96
   4   0  14    8.87    4.17
  -4   0 -14    3.66    1.55
   4   0 -14   13.90    8.08
   4   0 -14    8.99    5.04
   4   0  15   64.24   15.86
  -4   0 -15   74.80    7.45
   4   0 -15   69.64   16.48
   4   0 -15   73.92   20.70
   4   0  16    6.14    6.57
   4   0 -16   13.26    4.99
   4   0 -16   14.40    7.80
   4   0 -17   66.12   19.33
   4   0 -17  109.22   18.53
   4   0 -18    9.70    4.44
   4   0 -18    9.21    7.06
   4   0 -19   -0.08    5.02
   4   0 -19    8.03    3.95
  -4   0 -19    8.85    3.66
   4   0 -20    8.77    3.73
   4   0 -20   14.61    7.40
  -4   0 -20   15.96    7.55
   4  -1   0  170.94   19.08
   4   1   0  181.06   12.38
  -4  -1   0  164.86   10.95
   4  -1   0  168.21   11.80
   4   1   0  173.06   10.61
  -4  -1   0  151.60   10.11
   4  -1   0  174.45   16.22
  -4   1   0  161.27   23.47
   4  -1  -1  428.03    9.51
   4   1   1  456.10   11.94
  -4  -1   1  428.87   10.09
   4  -1   1  432.20   11.46
   4   1   1  441.50    8.29
   4   1  -1  446.56   10.06
  -4  -1   1  441.64    9.81
  -4  -1  -1  466.88    8.93
   4  -1  -1  451.73   11.36
   4  -1   1  475.38   10.01
  -4   1   1  464.85   14.25
  -4   1  -1  442.97   11.09
   4  -1  -2  357.21    8.23
   4   1  -2  380.68    9.94
   4   1   2  371.33   11.25
  -4  -1   2  356.72    8.58
   4  -1   2  381.89   12.04
   4  -1  -2  391.41   11.78
   4   1   2  376.99    7.09
   4   1  -2  379.55   10.38
  -4  -1   2  363.87    9.46
   4  -1  -2  369.25   11.28
  -4  -1  -2  375.79    7.07
   4  -1   2  386.29    9.78
  -4   1   2  377.80   22.22
   4  -1  -3  198.91   11.81
   4   1  -3  258.61   15.63
   4   1   3  207.06   15.41
  -4  -1   3  203.26   12.22
   4  -1  -3  219.98   15.31
   4   1   3  218.71   12.11
   4   1  -3  253.95   15.55
   4  -1  -3  205.43   13.54
  -4  -1  -3  272.52   15.05
   4  -1   3  269.39   15.68
  -4   1   3  242.02   14.11
  -4   1  -3  207.65   12.15
   4  -1  -4  247.40   22.61
   4   1  -4  258.51   13.70
   4   1   4  250.49   15.28
  -4  -1   4  230.75   14.26
   4  -1   4  257.20   15.40
   4  -1  -4  282.39   14.79
   4   1  -4  245.39   13.81
   4  -1  -4  258.91   15.34
   4  -1   4  252.41   13.49
   4  -1  -4  274.12   14.80
  -4   1  -4  247.60   12.84
  -4  -1  -4  226.70   15.62
   4  -1  -5  159.25   11.65
   4   1  -5  179.31    9.83
   4   1   5  169.07   10.89
   4  -1   5  178.07   11.41
  -4  -1   5  156.58    8.42
   4  -1  -5  168.80    9.49
   4  -1   5  187.65    9.47
   4   1  -5  183.78   18.44
   4  -1  -5  158.72   10.23
   4  -1  -5  156.89   13.19
  -4   1  -5  180.78   10.20
  -4  -1  -5  184.38   11.76
   4  -1  -6  569.14   17.37
   4   1  -6  575.98   17.62
   4   1   6  569.64   23.30
   4  -1   6  578.42   19.94
   4  -1  -6  595.39   18.64
  -4  -1   6  572.31   17.22
   4  -1   6  585.40   17.15
   4   1  -6  573.94   21.57
   4  -1  -6  591.20   21.29
   4  -1  -6  573.89   19.17
  -4   1  -6  590.23   19.01
  -4  -1  -6  563.83   19.14
   4   1  -7  777.55   26.05
   4  -1  -7  829.32   27.81
   4   1  -7  878.58   29.44
   4   1   7  832.61   30.44
   4  -1   7  895.62   32.61
   4  -1  -7  809.99   27.37
   4  -1   7  873.42   29.18
   4   1  -7  872.84   32.35
   4  -1  -7  832.47   30.86
   4  -1  -7  805.09   31.48
  -4   1  -7  803.25   29.60
  -4  -1  -7  867.56   31.52
   4   1  -8  107.85    6.07
   4   1  -8  100.94    3.55
   4   1   8  124.94   22.75
   4  -1  -8   93.95    3.93
   4  -1   8  106.83   15.84
   4  -1   8   95.06    3.33
   4   1  -8  120.19   26.30
   4  -1  -8  141.30   26.01
   4  -1  -8  100.37   17.79
  -4   1  -8  108.46   16.00
  -4  -1  -8  104.74   16.81
   4   1  -9  588.16   20.92
   4   1   9  576.46   24.23
   4  -1  -9  538.31   19.82
   4  -1   9  560.95   23.90
  -4   1  -9  556.95   21.34
  -4  -1  -9  551.70   19.78
   4   1  -9  578.18   25.50
   4  -1   9  543.06   20.47
   4  -1  -9  599.47   26.13
   4   1   9  529.55   19.09
   4  -1  -9  522.67   22.36
  -4   1  -9  517.35   24.28
   4   1  10   70.85   15.89
   4  -1  10   57.14   14.10
  -4   1 -10   53.92    7.04
  -4  -1 -10   54.86    5.20
   4   1 -10   84.37   17.10
   4  -1 -10   68.21   15.42
   4  -1  10   44.03    7.16
   4   1  10   51.21    6.71
   4   1 -10   64.36   10.29
   4  -1 -10   63.95   14.83
  -4   1 -10   68.95   17.04
   4   1  11   38.81   11.49
   4  -1  11   40.70   13.37
  -4   1 -11   30.44    5.97
  -4  -1 -11   29.33    4.85
   4   1 -11   38.88    6.85
   4  -1  11   25.18    3.68
   4   1  11   21.12    5.37
   4   1 -11   35.54    9.54
   4  -1 -11   44.64   11.55
  -4   1 -11   31.56    6.33
   4   1  12  211.52   22.67
   4  -1  12  183.12   22.28
  -4   1 -12  206.01    9.02
  -4  -1 -12  170.36   25.52
   4   1  12  183.33    7.50
   4   1 -12  206.67   45.30
   4  -1 -12  197.03   24.32
  -4   1 -12  193.04   33.58
   4   1  13   46.84   15.24
   4  -1  13   45.01   11.96
  -4   1 -13   34.87    9.08
  -4  -1 -13   30.57    8.13
   4   1 -13   23.83    6.34
   4  -1 -13   37.68    7.43
  -4   1 -13   39.91    5.89
   4   1  14   19.03    5.03
   4  -1  14   26.12    8.27
  -4   1 -14   12.85    3.89
  -4  -1 -14   12.71    4.62
   4  -1 -14   11.87    4.99
   4   1 -14    7.11    6.18
   4  -1 -14   28.20    6.97
  -4   1 -14   26.12    6.51
  -4  -1 -14   15.16    5.89
   4   1  15   24.41    8.49
   4  -1  15   32.83   11.19
  -4   1 -15   15.76    4.87
   4   1 -15   35.45   13.92
   4  -1 -15   43.93   11.41
   4   1 -15   36.54    8.47
   4  -1 -15   19.52    7.50
  -4   1 -15   28.83   10.74
  -4  -1 -15   31.37    8.55
   4   1  16   57.07   22.81
   4  -1  16   89.57   13.37
   4   1 -16   99.29   25.02
   4  -1 -16   82.23   20.96
   4   1 -16  126.44   20.99
   4  -1 -16  119.40   19.34
  -4   1 -16   95.53   20.66
  -4  -1 -16  105.05   26.15
   4   1 -17    9.55    5.85
   4  -1 -17   11.75    6.47
   4   1 -17   15.30    7.24
   4  -1 -17   12.06    4.38
  -4   1 -17   23.14    5.89
  -4  -1 -17   27.26    6.60
   4   1 -18   27.88   13.45
   4  -1 -18   34.04   11.97
   4   1 -18   23.89    7.84
   4  -1 -18   38.93    9.37
  -4  -1 -18   26.31    8.45
   4   1 -19   44.11   11.84
   4  -1 -19   31.79   13.08
   4  -1 -19   51.56   20.72
  -4  -1 -19   56.30   17.06
   4   1 -20   12.77    5.12
   4  -1 -20   15.74    6.54
   4  -1 -20   19.21    6.27
  -4  -1 -20   11.73    5.64
  -4   2   0   49.67   11.12
   4   2   0   42.50    8.82
   4   2   0   53.43   11.69
  -4  -2   0   40.61    7.10
   4  -2   0   43.31   10.79
  -4   2   0   38.43    7.76
  -4   2   0   45.39    6.11
  -4   2  -1  360.54    9.93
  -4   2   1  358.73    9.50
   4  -2  -1  355.49    8.93
   4   2   1  362.96   10.56
  -4  -2   1  340.18    9.59
   4   2   1  351.59    7.42
   4   2  -1  362.10    9.17
  -4  -2  -1  363.29    7.45
  -4  -2   1  358.65    8.64
   4  -2  -1  342.50   10.12
   4  -2   1  352.03    8.90
  -4   2   1  365.03    6.49
  -4   2  -2   23.37    5.14
  -4   2   2   41.20   10.84
   4  -2  -2   21.97    6.51
   4   2  -2   35.12    8.01
   4   2   2   15.75    5.06
  -4  -2   2   20.49    4.72
   4   2   2   30.31    6.71
   4   2  -2   29.67    7.15
  -4  -2  -2   33.15    6.11
   4  -2  -2   30.83    9.03
   4  -2   2   38.84    6.62
  -4   2   2   31.70    7.13
  -4   2  -2   27.52    5.69
  -4   2   3  581.73   12.50
   4  -2  -3  526.02   10.56
   4   2  -3  564.52   19.46
   4   2   3  570.08   14.32
  -4  -2   3  530.43   10.83
   4  -2   3  557.66   16.88
   4   2   3  565.78    8.29
   4   2  -3  554.47   12.33
  -4  -2  -3  546.68    8.27
   4  -2  -3  547.13   13.83
   4  -2  -3  556.36   10.40
  -4   2   3  546.40   10.02
  -4   2  -3  532.09    8.73
  -4   2   4  714.50   22.02
   4  -2  -4  643.77   19.71
   4   2  -4  724.63   22.55
   4   2   4  654.41   22.11
  -4  -2   4  623.34   19.34
   4  -2   4  674.46   22.29
   4   2  -4  679.48   22.25
  -4  -2  -4  688.06   19.23
   4  -2  -4  656.96   21.81
   4  -2  -4  690.14   22.81
  -4   2  -4  682.64   20.24
  -4   2   5  529.79   16.85
   4  -2  -5  511.38   15.96
   4   2  -5  504.83   17.39
   4   2   5  523.88   18.73
  -4  -2   5  535.96   16.94
   4  -2   5  540.07   18.71
   4  -2   5  513.64   15.80
   4   2  -5  515.40   19.07
   4  -2  -5  542.32   20.04
   4  -2  -5  540.93   17.99
  -4   2  -5  550.04   17.30
   4  -2   5  521.32   16.37
  -4   2   6  569.20   18.54
   4  -2  -6  561.33   18.10
   4   2  -6  560.69   20.25
   4   2   6  534.70   25.34
  -4  -2   6  557.37   17.20
   4  -2   6  547.47   19.06
   4  -2   6  554.84   17.78
   4   2  -6  555.35   23.53
   4  -2  -6  580.59   21.36
   4  -2  -6  591.15   19.77
  -4   2  -6  606.08   21.98
  -4   2   7  757.63   26.13
   4  -2  -7  800.41   27.45
   4   2  -7  760.92   25.89
   4   2   7  834.14   30.86
  -4  -2   7  771.66   26.20
   4  -2   7  754.99   33.67
   4  -2   7  753.90   26.32
   4   2  -7  753.81   28.49
   4  -2  -7  836.17   31.42
   4  -2  -7  774.32   28.41
  -4   2  -7  825.03   30.96
   4  -2  -8  559.16   19.94
   4   2  -8  557.04   19.56
   4   2   8  603.36   23.64
   4  -2   8  606.38   23.75
  -4  -2   8  570.99   19.59
   4  -2  -8  545.47   20.01
   4  -2   8  554.56   19.56
   4   2  -8  552.47   22.37
   4  -2  -8  584.23   30.23
   4  -2  -8  568.43   25.26
  -4   2  -8  605.91   22.75
   4   2  -9  229.02    7.85
   4   2  -9  234.53    8.62
   4  -2  -9  209.04    8.86
   4   2   9  279.98   25.19
   4  -2   9  291.79   29.29
   4  -2  -9  217.68    8.30
   4  -2   9  227.16    8.99
   4   2  -9  293.34   41.16
   4  -2  -9  233.20   12.76
   4  -2  -9  221.87   32.03
  -4   2  -9  224.09   20.43
   4  -2 -10   24.82    5.56
   4   2  10   30.12    6.30
   4  -2  10   19.83   11.98
   4  -2 -10   26.20    5.68
  -4   2 -10   25.30    6.98
  -4  -2 -10   22.05    4.07
   4   2 -10   41.67   11.26
   4  -2  10   13.76    5.36
   4  -2 -10   38.77   10.90
  -4   2 -10   38.58    8.03
   4   2  11  296.88   15.32
   4  -2  11  320.20   15.49
  -4   2 -11  277.83   14.06
  -4  -2 -11  281.77    9.73
   4   2 -11  285.31   15.82
   4  -2 -11  296.72   43.18
  -4   2 -11  269.64   20.03
  -4  -2 -11  285.54   15.81
   4   2  12   63.34   15.43
   4  -2  12   68.85   16.25
  -4   2 -12   48.66   10.63
  -4  -2 -12   45.64    7.73
   4   2 -12   68.80   20.06
   4  -2 -12   63.10   14.27
  -4   2 -12   72.09   17.61
  -4  -2 -12   59.60   12.34
   4   2  13   62.56   20.84
   4  -2  13   80.67   11.29
  -4   2 -13   69.47   10.86
  -4  -2 -13   71.35    5.71
   4  -2 -13   74.61   17.70
   4  -2 -13   74.57   20.65
  -4   2 -13   61.94   11.60
  -4  -2 -13   85.66   14.25
   4   2  14    5.70    3.94
   4  -2  14    9.64    4.11
  -4   2 -14    9.51    3.71
  -4  -2 -14    9.61    2.73
   4  -2 -14   20.72    7.09
   4  -2 -14    8.51    4.57
  -4   2 -14    8.96    5.97
  -4  -2 -14   10.63    5.63
   4   2  15   48.59   13.62
   4  -2  15   37.21   15.25
  -4   2 -15   44.07   10.26
   4  -2 -15   57.00   16.25
   4  -2 -15   50.60   14.51
  -4   2 -15   53.89   10.67
  -4  -2 -15   43.61   11.23
   4   2  16   76.91   24.62
   4  -2  16   86.27   12.38
   4   2 -16  106.74   23.84
   4  -2 -16  112.33   27.17
   4  -2 -16  107.42   26.39
  -4   2 -16  103.50   22.21
  -4  -2 -16   79.40   18.05
   4   2 -17   59.78   25.40
   4  -2 -17   58.18   23.44
   4  -2 -17   57.49   11.65
  -4   2 -17   76.57   16.65
  -4  -2 -17   73.55   12.65
   4   2 -18   10.60    6.59
   4  -2 -18    1.63    4.16
   4  -2 -18    6.25    4.31
  -4   2 -18    6.89    3.95
  -4  -2 -18    5.91    3.94
   4   2 -19   65.93   20.49
   4  -2 -19   60.55   21.71
   4  -2 -19   67.41   19.40
  -4   2 -19   50.12   16.33
  -4  -2 -19   74.40   19.88
   4   2 -20   29.10    7.89
   4  -2 -20   19.25   11.42
   4  -2 -20   22.95    9.43
  -4   2 -20    9.51    4.90
  -4  -2 -20   11.60    6.73
  -4   3   0  882.28   16.34
   4   3   0  898.25   17.31
   4   3   0  822.46   13.83
  -4  -3   0  855.15   15.77
   4  -3   0  829.53   16.52
  -4   3   0  862.19   10.82
  -4   3   1  608.77   12.89
   4   3   1  712.35   22.19
   4  -3   1  603.00   13.20
  -4   3   1  608.27    9.04
  -4   3  -2  110.15   11.80
  -4   3   2   88.78   17.85
   4   3  -2   96.86   22.88
   4   3   2  125.97   17.17
   4   3   2  117.76    5.21
   4   3  -2   88.16    9.73
  -4  -3  -2   90.31    6.89
   4  -3  -2  120.12   24.15
   4  -3  -2  107.69    5.99
  -4   3  -2  110.15    3.61
  -4   3   2   92.90    6.99
  -4   3  -3  907.65   28.18
  -4   3   3  913.11   30.21
   4   3  -3  890.84   27.25
   4   3   3  930.76   29.81
   4   3   3  939.35   26.85
   4   3  -3  863.07   27.01
  -4  -3  -3  903.37   25.88
   4  -3  -3  908.49   29.26
   4  -3  -3  905.67   26.72
  -4   3  -3  873.05   25.09
  -4   3   3  931.01   28.43
  -4   3   4   85.27   14.55
   4   3  -4   77.50   18.07
   4   3   4   69.45   15.59
  -4  -3   4   57.10   15.07
   4  -3   4   70.67    9.42
   4   3  -4   82.17   19.17
  -4  -3  -4   72.91    3.25
   4  -3  -4   68.79   16.46
   4  -3  -4   65.05    7.11
  -4   3  -4   66.47    4.73
  -4   3   4   69.05    7.43
   4  -3   4   78.11    4.13
  -4   3   5   98.91   12.90
   4  -3  -5   85.78    8.84
   4   3  -5  109.29   18.97
   4   3   5  102.68   18.68
  -4  -3   5   98.28    5.46
   4  -3   5   77.97   10.46
   4   3  -5  110.09   17.19
  -4  -3  -5   90.95    3.99
   4  -3  -5  116.38   24.30
   4  -3  -5   97.29    8.34
  -4   3  -5   99.35    4.89
   4  -3   5   89.39   12.09
  -4  -3  -5  112.70   20.50
  -4   3   6 1254.57   36.63
   4  -3  -6 1157.87   33.64
   4   3  -6 1179.72   34.98
   4   3   6 1164.93   40.89
  -4  -3   6 1146.30   33.51
   4  -3   6 1144.68   40.26
   4  -3   6 1197.64   40.41
  -4  -3  -6 1207.41   39.02
   4  -3  -6 1235.60   39.02
  -4  -3  -6 1226.44   33.81
   4  -3  -6 1242.49   37.28
  -4   3  -6 1246.79   41.96
   4  -3   6 1150.72   34.95
  -4  -3  -6 1231.83   43.12
  -4   3   7   26.30    6.65
   4  -3  -7   25.08    3.65
   4   3  -7   22.78    5.59
   4   3   7   35.76    6.86
  -4  -3   7   27.35    5.67
   4  -3   7   31.95    7.55
   4  -3   7   17.59    3.87
   4   3  -7   22.34    7.42
   4  -3  -7   28.73    8.53
   4  -3  -7   25.42    6.72
  -4   3  -7   30.94    8.11
  -4  -3  -7   25.26    6.12
  -4   3   8   13.84    3.56
   4  -3  -8   13.60    2.86
   4   3  -8   14.21    4.23
   4   3   8   24.01    5.58
  -4  -3   8   11.38    3.41
   4  -3   8   14.49    5.40
   4   3  -8    7.96    9.38
   4  -3  -8   11.82    6.68
   4  -3  -8   13.82    4.44
  -4   3  -8   18.02    4.99
  -4  -3  -8   15.20    6.48
  -4   3   9   25.38    7.60
   4   3  -9   26.66    4.36
   4  -3  -9   26.43    6.56
   4   3   9   30.62   19.88
  -4  -3   9   32.49    7.86
   4  -3   9   38.53    9.10
  -4  -3  -9   22.03    3.34
  -4  -3  -9   26.69    2.29
   4   3  -9   41.52    9.93
   4  -3  -9   49.85    9.66
   4  -3  -9   38.57   10.32
  -4   3  -9   38.61   11.98
  -4  -3  -9   32.07    9.67
  -4   3  10  211.70    8.38
   4   3 -10  216.91    7.93
   4  -3 -10  192.00    8.91
   4   3  10  221.78   12.18
  -4  -3  10  201.09    8.99
   4  -3  10  227.82   36.57
  -4   3 -10  228.08   10.82
  -4  -3 -10  202.58    6.73
   4   3 -10  232.85   33.76
   4  -3 -10  245.22   20.89
  -4   3 -10  220.31   17.92
  -4  -3 -10  190.64   17.78
   4  -3 -11  188.46    7.33
   4   3  11  204.55   26.13
   4  -3  11  205.98   23.33
   4  -3 -11  186.10   11.16
  -4   3 -11  213.18    9.70
  -4  -3 -11  185.52    6.72
   4   3 -11  180.52   24.03
   4  -3 -11  199.11   29.62
  -4   3 -11  208.87   36.08
  -4  -3 -11  200.54   29.16
   4   3  12   11.49    5.23
   4  -3 -12   10.36    2.70
   4  -3  12   35.80    7.90
   4  -3 -12   10.83    3.31
  -4   3 -12   20.47    7.07
  -4  -3 -12   12.46    4.08
   4   3 -12   18.28    8.49
   4  -3 -12   14.16    5.84
  -4   3 -12   12.43    5.33
  -4  -3 -12   14.09    5.11
   4   3  13  212.68   23.18
   4  -3  13  170.52   34.35
  -4   3 -13  215.20    7.57
  -4  -3 -13  176.98    8.95
   4   3 -13  201.86   31.59
   4  -3 -13  221.92   12.85
   4  -3 -13  225.00   24.05
  -4   3 -13  221.80   10.80
  -4  -3 -13  180.48   36.46
   4   3  14   28.68   10.38
   4  -3  14   25.92   11.59
  -4   3 -14   33.82    9.68
   4  -3 -14   44.67   10.81
   4  -3 -14   27.53    9.38
  -4   3 -14   36.99   11.18
  -4  -3 -14   32.75    7.76
   4   3  15  168.35   22.59
   4  -3  15  166.15   20.26
  -4   3 -15  175.23   23.00
   4  -3 -15  197.81   35.92
   4  -3 -15  198.53   37.91
  -4   3 -15  168.13   34.41
  -4  -3 -15  191.32   48.57
   4   3  16   11.48    2.77
   4  -3  16    6.06    2.19
  -4   3 -16    9.04    3.53
   4  -3 -16   17.69    4.94
   4  -3 -16   16.38    6.54
  -4   3 -16   10.26    3.31
  -4  -3 -16    5.02    3.33
   4   3 -17   58.59   18.20
   4  -3 -17   44.66   14.32
   4  -3 -17   53.26   14.18
  -4   3 -17   43.29   10.90
  -4  -3 -17   41.17   14.00
   4   3 -18   45.41   11.55
   4  -3 -18   60.96   23.76
   4  -3 -18   73.41   18.14
  -4   3 -18   55.89   16.46
  -4  -3 -18   49.27   15.43
   4   3 -19   13.14    7.32
   4  -3 -19    5.47    3.74
   4  -3 -19    4.25    3.32
  -4   3 -19   17.44    5.82
  -4  -3 -19   14.20    8.14
   4   3 -20    6.63    3.24
   4  -3 -20   14.72    5.57
   4  -3 -20    9.82    5.75
  -4  -3 -20    8.15    4.20
  -4   4   0  149.56   23.00
   4   4   0  130.21    9.25
   4   4   0  158.64   10.74
   4  -4   0  173.35   30.62
  -4   4  -1 2889.95   22.71
  -4   4   1 2889.53   23.52
   4   4   1 2922.42   22.31
   4   4  -1 2844.90   82.62
  -4  -4  -1 2871.96   80.25
   4  -4  -1 2881.10   82.12
  -4   4   1 2819.04   77.67
  -4   4  -2 1826.30   53.25
  -4   4   2 1653.59   48.27
   4   4   2 1804.78   53.21
   4   4   2 1858.68   53.22
   4   4  -2 1656.13   48.31
  -4  -4  -2 1621.19   46.65
   4  -4  -2 1750.94   51.93
   4  -4  -2 1863.48   52.20
  -4   4   2 1635.77   45.99
  -4   4  -3   62.18   18.37
  -4   4   3   80.73   10.46
   4   4  -3   90.04   14.95
   4   4   3   70.03   13.15
   4   4   3   59.42    5.90
   4   4  -3   77.25    9.24
  -4  -4  -3   74.77    7.61
   4  -4  -3   64.79   13.83
   4  -4  -3   68.60    5.87
  -4   4   3   66.46   12.53
   4  -4   3   74.53    5.41
  -4   4  -4  197.64   13.47
  -4   4   4  212.12   12.14
   4   4  -4  232.98   13.42
   4   4   4  228.11   16.18
  -4  -4  -4  210.01   10.68
   4   4  -4  214.37   12.44
   4  -4  -4  211.38   15.38
  -4   4  -4  209.82   10.72
   4  -4  -4  221.00   13.75
   4  -4   4  221.64   11.01
  -4   4   5  120.82   14.79
   4   4  -5  117.42    7.04
   4   4   5  130.78   13.86
  -4  -4  -5  107.72    7.94
   4   4  -5  109.11   20.50
   4  -4  -5  130.97   16.95
  -4   4  -5  106.89    6.18
   4  -4  -5  106.00    8.18
   4  -4   5  105.08    4.79
  -4   4  -6  184.84   12.95
  -4   4   6  185.88   10.58
   4   4  -6  187.82   10.75
   4   4   6  186.61   20.20
  -4  -4  -6  180.87    8.95
   4   4  -6  189.47   13.12
   4  -4  -6  199.74   16.93
  -4  -4  -6  198.13    9.92
  -4   4  -6  174.65    9.49
   4  -4  -6  221.24   24.42
   4  -4   6  188.96   18.46
  -4  -4  -6  188.58   12.63
  -4   4  -7  345.62   18.86
  -4   4   7  339.69   17.44
   4   4  -7  343.53   18.89
   4   4   7  346.81   19.46
  -4  -4   7  322.17   17.73
  -4  -4  -7  322.09   15.30
   4   4  -7  331.55   18.79
   4  -4  -7  350.39   20.83
  -4  -4  -7  345.43   16.59
  -4   4  -7  328.94   16.74
   4  -4  -7  361.11   26.34
  -4  -4  -7  324.42   18.96
  -4   4   8   23.34    3.71
   4   4  -8   26.22    6.33
   4   4   8   25.77    6.27
  -4  -4   8   12.78    5.00
  -4  -4  -8   15.47    3.25
   4   4  -8   25.45    7.80
  -4  -4  -8   20.59    4.46
   4  -4  -8   24.88    6.21
  -4   4  -8   18.94    5.17
   4  -4  -8   19.21    5.18
  -4  -4  -8   25.85    7.46
  -4   4   9   99.56   12.88
   4   4  -9   96.04    7.46
   4   4   9   81.78   14.64
  -4  -4   9   63.67   11.63
   4  -4   9   91.07   11.51
  -4  -4  -9   88.76    4.06
   4   4  -9  131.38   23.43
  -4  -4  -9  102.28    7.63
   4  -4  -9  112.89   21.54
  -4   4  -9   87.71   22.15
   4  -4  -9   96.93   19.68
  -4  -4  -9  115.52   23.42
  -4   4  10  347.66   12.80
   4   4 -10  339.89   11.88
   4  -4 -10  307.21   12.26
   4   4  10  295.49   14.22
  -4  -4  10  283.95   17.64
   4  -4  10  368.87   33.26
  -4  -4 -10  319.24   10.47
   4   4 -10  328.95   17.08
  -4  -4 -10  339.60   11.50
  -4   4 -10  360.04   15.12
   4  -4 -10  343.62   25.06
  -4  -4 -10  304.97   18.13
  -4   4  11  257.42   11.26
   4   4 -11  255.84    9.50
   4  -4 -11  238.79    9.59
   4   4  11  280.73   21.72
  -4  -4  11  218.58   12.17
   4  -4  11  264.57   24.81
  -4   4 -11  236.72   11.46
   4   4 -11  223.20   14.07
  -4  -4 -11  251.66    9.17
  -4   4 -11  248.03   17.65
   4  -4 -11  234.84   20.44
  -4  -4 -11  227.60   13.65
  -4   4  12   20.60    7.54
   4   4 -12   15.33    4.47
   4   4  12   27.05   10.31
   4  -4  12   30.63   11.20
  -4   4 -12   25.17    5.93
   4   4 -12   28.75   10.57
  -4  -4 -12   23.26    6.50
  -4   4 -12   26.79    6.08
   4  -4 -12   35.13    6.33
  -4  -4 -12   35.02    9.89
   4   4  13  183.60    9.57
   4  -4  13  209.67   23.67
   4  -4 -13  154.10    7.33
  -4   4 -13  182.47    7.22
   4   4 -13  183.92   25.86
  -4  -4 -13  181.61    6.54
   4  -4 -13  168.15   28.78
  -4   4 -13  159.72   28.63
   4  -4 -13  182.55   22.28
  -4  -4 -13  209.78   28.39
   4   4  14  248.80   19.41
   4  -4  14  234.45   22.61
  -4   4 -14  262.36   10.43
   4   4 -14  259.05   13.15
   4  -4 -14  269.85   45.99
  -4   4 -14  270.66   11.46
   4  -4 -14  255.12   18.01
  -4  -4 -14  276.87   39.90
   4   4  15    3.22    4.14
   4  -4  15    4.13    3.23
  -4   4 -15    1.10    2.62
   4  -4 -15    4.63    4.00
  -4   4 -15    3.72    4.92
   4  -4 -15    5.60    2.39
  -4  -4 -15   15.47   10.73
   4   4  16   37.35   13.74
   4  -4  16   31.21   14.24
  -4   4 -16   25.30    4.99
   4  -4 -16   38.83   12.35
  -4   4 -16   36.92   10.42
   4  -4 -16   56.93   13.07
  -4  -4 -16   37.10    8.30
   4   4 -17   28.90    8.87
   4  -4 -17   14.87    4.31
  -4   4 -17   24.37    6.70
   4  -4 -17   33.55    9.03
  -4  -4 -17   42.45   10.20
   4   4 -18   18.26    5.58
   4  -4 -18   17.81    7.30
  -4   4 -18   19.13    7.44
   4  -4 -18   22.30    9.99
  -4  -4 -18   11.12    7.32
   4   4 -19   15.27    4.83
   4  -4 -19    2.07    5.89
  -4   4 -19    6.56    3.20
   4  -4 -19    8.03    2.41
  -4  -4 -19    4.83    4.09
   4   4 -20    9.52    3.67
   4  -4 -20    8.65    5.16
  -4   4 -20    7.30    4.25
   4  -4 -20    5.82    4.03
  -4  -4 -20   -3.90    5.87
  -4   5   0 2091.89   63.48
   4   5   0 2206.63   64.39
   4   5   0 2086.86   59.77
   4  -5   0 2210.36   64.52
   4  -5   0 2180.16   59.98
  -4   5  -1  346.50   18.85
  -4   5   1  366.59   20.37
   4   5   1  385.93   21.02
   4   5   1  382.13   30.13
   4   5  -1  298.41   16.39
   4  -5  -1  401.10   22.46
   4  -5  -1  386.37   18.71
  -4   5  -2  453.95   23.95
  -4   5   2  475.38   11.12
   4   5   2  449.46   24.30
   4   5   2  467.29   31.46
   4   5  -2  440.31   24.83
  -4  -5  -2  426.32   29.62
   4  -5  -2  464.93   24.58
   4  -5  -2  460.75   22.33
  -4   5   2  449.20   21.75
  -4   5  -3  271.31   15.26
  -4   5   3  300.13   16.29
   4   5  -3  307.65   21.35
   4   5   3  284.15   16.67
   4   5   3  285.70   14.63
   4   5  -3  301.53   16.91
  -4  -5  -3  297.84   15.54
   4  -5  -3  286.67   17.37
   4  -5  -3  292.62   15.00
   4  -5   3  311.07   14.76
  -4   5   3  284.55   14.50
  -4   5  -4  851.57   31.41
  -4   5   4  860.64   30.78
   4   5  -4  920.12   38.03
   4   5   4  846.19   31.92
  -4  -5  -4  849.56   28.94
   4   5  -4  882.15   32.27
   4  -5  -4  821.66   31.23
   4  -5  -4  823.60   28.90
   4  -5   4  939.40   31.13
  -4   5   5  645.55   24.09
   4   5  -5  669.60   24.77
   4   5   5  680.81   31.11
  -4  -5  -5  623.27   21.80
   4   5  -5  661.81   25.37
   4  -5  -5  629.20   30.51
   4  -5  -5  667.21   24.39
   4  -5   5  629.72   21.61
  -4   5  -6  335.56   18.82
  -4   5   6  310.78   17.17
   4   5  -6  340.22   17.99
   4   5   6  358.29   12.34
  -4  -5  -6  297.46   14.58
   4   5  -6  331.42   19.18
   4  -5  -6  366.95   14.49
   4  -5  -6  358.00    9.73
   4  -5   6  318.00   15.90
  -4  -5  -6  345.68   19.94
  -4   5  -7  250.28   12.56
  -4   5   7  254.15   20.50
   4   5  -7  268.36   11.18
   4   5   7  276.71   29.77
  -4  -5  -7  253.26    9.16
   4   5  -7  248.16   13.35
   4  -5  -7  230.36   31.68
  -4  -5  -7  266.69    9.99
  -4   5  -7  249.08   11.90
   4  -5  -7  244.02   11.58
  -4  -5  -7  305.84   45.46
  -4   5  -8  186.04   13.84
  -4   5   8  226.70   15.95
   4   5  -8  236.74   13.96
   4   5   8  208.94   17.97
  -4  -5  -8  214.12    8.01
   4   5  -8  280.06   39.57
   4  -5  -8  233.74   28.25
  -4  -5  -8  237.96   10.12
  -4   5  -8  207.20    9.51
   4  -5  -8  222.02   24.61
  -4  -5  -8  237.90   13.78
  -4   5  -9   65.39   12.04
  -4   5   9   42.95   11.26
   4   5  -9   38.50   11.64
   4   5   9   63.00   15.15
  -4  -5  -9   24.46    5.46
   4   5  -9   50.00   12.42
  -4  -5  -9   35.98    7.96
   4  -5  -9   63.09   15.70
  -4   5  -9   54.16   14.76
   4  -5  -9   50.49    9.42
  -4  -5  -9   40.00    7.06
  -4   5  10   46.68    9.67
   4   5 -10   40.17    9.30
   4   5  10   31.15    8.12
  -4  -5  10   15.70    4.75
   4  -5  10   47.51   11.49
  -4  -5 -10   27.20    6.11
   4   5 -10   56.78   11.56
  -4  -5 -10   35.73    9.04
  -4   5 -10   42.84    9.07
   4  -5 -10   39.44   10.64
  -4  -5 -10   43.69    8.54
  -4   5  11  165.97   16.06
   4   5 -11  164.06    6.22
   4   5  11  165.87   28.12
   4  -5  11  174.19   19.82
   4   5 -11  155.36   35.34
  -4  -5 -11  155.33    5.85
  -4   5 -11  163.33    9.27
   4  -5 -11  178.35   27.51
  -4  -5 -11  167.10   34.44
  -4   5  12  274.10   10.41
   4   5 -12  276.87    7.52
   4   5  12  279.27   12.14
   4  -5  12  272.84   11.25
   4   5 -12  262.89   12.81
  -4  -5 -12  255.52    5.84
   4  -5 -12  295.87   14.42
  -4   5 -12  295.48   10.98
   4  -5 -12  347.35   28.02
  -4  -5 -12  241.72   33.11
  -4   5  13   12.82    4.40
   4   5  13   22.52    4.71
   4  -5  13   16.67    5.06
  -4   5 -13   18.31    6.67
   4   5 -13   16.53    5.35
  -4  -5 -13   13.18    4.64
   4  -5 -13   19.71    8.82
  -4   5 -13   16.67    5.94
   4  -5 -13   13.28    4.52
  -4  -5 -13   22.83    6.95
   4   5  14   13.41    4.16
   4  -5  14   24.64    7.03
  -4   5 -14   19.63    6.26
   4   5 -14   35.38    9.18
   4  -5 -14   22.62    9.07
  -4   5 -14   29.54    7.87
   4  -5 -14   19.50    5.13
  -4  -5 -14   28.90    9.59
   4   5  15   32.48    8.38
  -4   5 -15   31.95    9.08
   4   5 -15   46.42   14.24
   4  -5 -15   43.36   12.63
  -4   5 -15   44.85   15.02
   4  -5 -15   60.00    8.42
  -4  -5 -15   49.09   14.18
   4   5  16   39.38   12.79
   4  -5  16   35.88   10.33
  -4   5 -16   52.19   15.45
   4  -5 -16   50.18   19.63
  -4   5 -16   55.86   18.46
   4  -5 -16   55.33   13.43
  -4  -5 -16   50.15   16.44
   4  -5 -17   69.92   25.51
  -4   5 -17   99.24   23.68
   4  -5 -17  100.39   19.37
  -4  -5 -17  109.36   33.37
   4   5 -18   29.27    6.08
   4  -5 -18   30.51   10.62
  -4   5 -18   38.59   11.64
   4  -5 -18   43.32    9.01
  -4  -5 -18   19.05    5.08
   4   5 -19   18.02    7.92
   4  -5 -19    7.84    4.09
  -4   5 -19    9.21    2.61
   4  -5 -19   11.86    4.01
  -4  -5 -19    7.45    4.83
  -4   6   0  101.47    7.97
   4   6   0  120.70   24.85
   4   6   0  112.07   11.14
   4  -6   0  106.43    4.28
  -4   6  -1  140.64   16.20
  -4   6   1  141.63   15.45
   4   6  -1  146.28   24.16
   4   6   1  165.16   24.89
   4   6   1  125.50   15.92
   4   6  -1  125.56   18.78
   4  -6  -1  121.71   24.22
   4  -6  -1  123.09    5.83
   4  -6   1  127.16    5.12
  -4   6  -2   64.89   14.91
  -4   6   2   79.64   14.46
   4   6   2   72.94   15.92
   4   6   2   66.52   10.95
   4   6  -2   71.50   18.33
   4  -6  -2   80.51   17.24
   4  -6   2   61.73    3.46
   4  -6  -2   77.83    9.66
  -4   6  -3   77.36   17.60
  -4   6   3   90.25    9.05
   4   6  -3   97.14   24.58
   4   6   3   80.10   23.17
   4   6  -3   92.90   16.29
   4  -6  -3   75.83   17.63
   4  -6   3   72.32    2.87
   4  -6  -3   82.84   10.34
  -4   6  -4  990.00   36.07
  -4   6   4 1017.31   36.23
   4   6  -4 1088.98   39.43
   4   6   4 1018.67   38.38
   4   6  -4  969.00   35.00
   4  -6  -4  952.05   35.73
   4  -6   4 1068.40   35.34
   4  -6  -4  963.71   33.41
  -4   6   5   15.43    4.49
   4   6  -5    9.84    3.59
   4   6   5   14.45    6.28
  -4  -6  -5    7.30    1.44
   4   6  -5   16.63    7.91
   4  -6  -5    7.90    4.29
   4  -6  -5   14.48    3.89
   4  -6   5    6.49    1.57
  -4   6   6   98.05   21.43
   4   6  -6  116.14   22.33
   4   6   6  119.32   28.15
  -4  -6  -6   84.26    8.46
   4   6  -6   97.79   20.46
   4  -6  -6  123.74   25.72
   4  -6  -6  108.21   10.10
   4  -6   6   94.85    4.91
  -4  -6  -6  115.71   24.28
  -4   6  -7  176.94   10.89
  -4   6   7  181.81   15.77
   4   6  -7  169.10    9.15
   4   6   7  204.76   34.90
  -4  -6  -7  143.08   11.54
   4   6  -7  148.48   12.57
   4  -6  -7  190.03   36.26
  -4  -6  -7  188.86    8.72
   4  -6  -7  176.94   20.57
  -4  -6  -7  178.47   21.86
  -4   6  -8  572.13   22.26
  -4   6   8  595.25   21.87
   4   6  -8  565.46   20.12
   4   6   8  568.13   23.19
   4   6  -8  562.60   22.95
   4  -6  -8  527.17   23.00
  -4  -6  -8  572.16   19.51
   4  -6  -8  561.31   22.01
  -4  -6  -8  589.06   24.49
  -4   6  -9   61.04   16.02
  -4   6   9   81.18    8.54
   4   6  -9   72.27   17.24
   4   6   9   59.48   12.41
  -4  -6  -9   33.02    8.96
   4   6  -9   78.87   14.77
   4  -6  -9   37.97   13.35
  -4  -6  -9   60.02   13.41
   4  -6  -9   66.79   12.14
  -4  -6  -9   68.62   14.94
  -4   6 -10   25.55    7.51
  -4   6  10   27.58    7.87
   4   6 -10   19.62    6.05
   4   6  10   22.80    6.24
  -4  -6 -10    8.68    3.31
   4   6 -10   35.59    7.18
  -4  -6 -10   18.91    5.45
   4  -6 -10   14.44    7.76
  -4  -6 -10   38.03    8.59
  -4   6 -11   19.71    5.62
  -4   6  11   10.58    5.01
   4   6 -11    7.81    3.83
   4   6  11   20.47    5.94
   4   6 -11    9.07    7.13
  -4  -6 -11    9.08    3.17
   4  -6 -11   20.91    6.68
  -4  -6 -11   17.78    8.27
  -4   6  12  117.29   10.96
   4   6 -12  106.62    7.85
   4   6  12  108.58   20.62
   4  -6  12  114.26   24.32
   4   6 -12  114.65   21.97
  -4  -6 -12  109.10    9.94
   4  -6 -12  107.00   21.05
   4  -6 -12  127.57   15.35
  -4  -6 -12  112.27   20.47
  -4   6  13    2.76    1.33
   4   6 -13    2.82    1.38
   4   6  13   12.05    3.20
   4  -6  13    4.33    2.28
   4   6 -13    8.63    4.43
  -4  -6 -13    2.52    1.47
   4  -6 -13   28.33    7.97
   4  -6 -13    7.28    6.39
  -4  -6 -13    9.00    5.68
   4   6  14   12.46    3.96
   4  -6  14   14.31    6.61
   4   6 -14   17.59    4.97
   4  -6 -14   11.38    5.81
   4  -6 -14   25.90    7.51
  -4  -6 -14   21.32    9.16
   4   6  15   59.20   14.68
   4  -6  15   47.47   18.22
   4   6 -15   47.21   23.30
   4  -6 -15   55.96   16.00
   4  -6 -15   80.41   11.48
  -4  -6 -15   70.12   19.29
   4   6  16   64.78   20.22
   4   6 -16   45.02   17.46
   4  -6 -16   47.10   12.63
   4  -6 -16   68.50   12.69
  -4  -6 -16   63.15   17.03
   4  -6 -17   24.23   10.38
   4  -6 -17   45.83   10.35
  -4  -6 -17   26.38    8.18
   4  -6 -18    6.34    3.79
   4  -6 -18    3.46    5.56
  -4  -6 -18   12.41    5.51
   4   6 -19    9.59    6.07
   4  -6 -19    5.69    3.69
  -4  -6 -19   12.58    7.61
  -4   7   0  259.90   35.87
   4   7   0  250.06   36.34
   4   7   0  217.15   12.75
   4  -7   0  214.18   11.47
  -4   7  -1  178.15   19.86
  -4   7   1  189.68   12.44
   4   7  -1  184.09   12.90
   4   7   1  185.09   13.92
   4   7   1  181.75   17.22
   4   7  -1  202.66   29.47
   4  -7  -1  180.85   12.42
   4  -7  -1  183.74   10.57
   4  -7   1  194.78   10.03
  -4   7  -2  187.13   15.77
  -4   7   2  219.56   15.77
   4   7   2  198.78   14.01
   4   7   2  190.26   21.78
   4   7  -2  217.35   27.66
   4  -7  -2  188.75   14.28
   4  -7  -2  201.25   11.00
  -4   7  -3   18.79    4.67
  -4   7   3   17.82    4.43
   4   7   3   12.10    4.46
   4   7  -3   16.40    4.83
   4  -7  -3   17.82    6.59
   4  -7   3   14.63    3.00
   4  -7  -3   17.15    3.42
  -4   7  -4  295.84   15.68
  -4   7   4  281.42   11.38
   4   7  -4  299.18   19.10
   4   7   4  286.27   15.26
   4   7  -4  261.44   15.11
   4  -7  -4  296.18   16.05
   4  -7   4  306.32   12.40
   4  -7  -4  300.92   13.50
  -4   7  -5  300.72   26.99
  -4   7   5  334.84   29.08
   4   7  -5  298.60   15.17
   4   7   5  341.75   18.49
   4   7  -5  291.63   28.39
   4  -7  -5  288.42   16.23
   4  -7   5  275.11   19.28
   4  -7  -5  320.31   16.86
  -4   7   6   54.33    9.93
   4   7  -6   58.18   12.90
   4   7   6   76.87   14.41
   4   7  -6   50.46   15.10
   4  -7  -6   84.41   16.05
   4  -7   6   32.08    7.25
   4  -7  -6   66.62   19.10
  -4  -7  -6   69.85   13.01
  -4   7  -7   93.47   22.20
  -4   7   7   92.44   19.05
   4   7  -7   93.96   19.99
   4   7   7  122.36   27.93
   4   7  -7   98.13   19.70
   4  -7  -7  109.50   18.31
   4  -7  -7  100.32   14.49
  -4  -7  -7  122.22   26.66
  -4   7  -8   98.88   19.66
  -4   7   8   80.97   23.86
   4   7  -8   89.98   21.54
   4   7   8   96.41   18.01
   4   7  -8   91.17   21.47
   4  -7  -8   88.09   15.98
  -4  -7  -8   99.12   16.81
   4  -7  -8   89.74    9.04
  -4  -7  -8  102.15   19.97
  -4   7  -9   11.86    4.58
  -4   7   9    9.72    2.50
   4   7  -9   11.34    4.49
   4   7   9    7.08    5.31
   4   7  -9   13.15    5.73
   4  -7  -9    1.56    4.78
  -4  -7  -9    3.91    2.90
   4  -7  -9    3.73    3.11
  -4  -7  -9    3.80    4.75
  -4   7 -10   20.37    6.34
  -4   7  10   24.37    6.27
   4   7 -10   22.81    8.10
   4   7  10   10.96    5.09
   4   7 -10   19.64    6.29
  -4  -7 -10   17.71    5.49
   4  -7 -10   15.74    6.81
  -4  -7 -10   22.05    7.46
  -4   7 -11  219.48   10.02
  -4   7  11  225.81   19.28
   4   7 -11  209.66    8.11
   4   7  11  223.98   17.09
   4   7 -11  202.62   35.27
  -4  -7 -11  211.18   18.24
   4  -7 -11  219.44   18.12
  -4  -7 -11  229.59   38.18
  -4   7 -12   22.77    6.70
  -4   7  12   33.50   10.53
   4   7 -12   32.95   11.33
   4   7  12   37.09   12.94
   4   7 -12   36.23   11.67
  -4  -7 -12   28.91    6.37
   4  -7 -12   30.23    7.52
   4  -7 -12   34.26    8.21
  -4  -7 -12   36.97   11.01
  -4   7  13   12.71    5.74
   4   7 -13   14.06    3.21
   4   7  13   10.34    4.77
   4  -7  13   11.75    7.87
   4   7 -13   12.33    5.66
   4  -7 -13   21.97   11.76
   4  -7 -13   12.26    4.41
  -4  -7 -13   10.06    9.11
   4   7  14  151.04   24.18
   4  -7  14  124.69   18.74
   4   7 -14  140.54   18.65
   4  -7 -14  117.82   33.60
   4  -7 -14  138.89   27.23
  -4  -7 -14  119.10   39.76
   4   7  15   10.43    3.76
   4  -7  15    3.40    3.85
   4   7 -15    6.91    4.87
   4  -7 -15    8.31    5.86
   4  -7 -15   10.72    5.42
  -4  -7 -15    3.31    4.65
   4   7  16   66.47   25.79
   4   7 -16   93.61   24.63
   4  -7 -16   63.23   20.31
   4  -7 -16   90.45   27.20
  -4  -7 -16   95.54   20.29
   4   7 -17   22.32   10.17
   4  -7 -17   27.61   10.32
   4  -7 -17   44.68   20.05
  -4  -7 -17   28.05    7.05
   4  -7 -18   22.33    5.98
   4  -7 -18   27.67   10.72
  -4   8   0   88.17   18.20
   4   8   0   84.33   20.23
   4   8   0   68.22   17.91
   4  -8   0   71.41    9.08
  -4   8  -1  277.56   29.99
  -4   8   1  300.65   15.25
   4   8  -1  289.29   15.30
   4   8   1  241.93   13.35
   4   8   1  305.76   25.59
   4   8  -1  332.56   15.81
   4  -8  -1  291.90   13.04
   4  -8   1  303.35   13.50
  -4   8  -2  809.17   33.76
  -4   8   2  754.46   36.08
   4   8  -2  783.47   39.71
   4   8   2  770.94   31.94
   4   8  -2  722.54   29.78
   4  -8  -2  829.38   34.96
   4  -8  -2  774.81   29.33
  -4   8  -3   46.76   12.65
  -4   8   3   50.87   11.34
   4   8   3   48.87   13.73
   4   8  -3   35.72    7.19
   4  -8  -3   45.59   12.16
   4  -8   3   34.63    7.58
   4  -8  -3   43.19   10.39
  -4   8  -4  402.65   20.24
  -4   8   4  407.98   41.90
   4   8  -4  335.85   17.70
   4   8   4  330.12   18.54
   4   8  -4  337.44   18.28
   4  -8  -4  335.39   57.04
   4  -8   4  307.47   12.78
   4  -8  -4  349.14   15.63
  -4   8  -5   60.43   15.65
  -4   8   5   58.75   14.06
   4   8  -5   43.98   13.65
   4   8   5   57.22   16.48
   4   8  -5   48.78   13.83
   4  -8  -5   59.68   12.26
   4  -8   5   33.95    3.82
   4  -8  -5   55.56   10.93
  -4   8   6    9.03    3.55
   4   8  -6   10.35    2.52
   4   8   6   19.86    9.38
   4   8  -6   19.39    6.81
   4  -8  -6   22.08   10.45
   4  -8   6    6.59    2.11
   4  -8  -6   16.11    3.96
  -4   8   7   12.31    5.75
   4   8  -7   10.62    3.12
   4   8   7   13.57    9.57
   4   8  -7   12.16    5.99
   4  -8  -7    8.65    5.54
   4  -8  -7   14.83    6.39
  -4  -8  -7    5.06    6.11
  -4   8  -8  121.86   29.37
  -4   8   8  138.71   12.53
   4   8  -8  116.98   20.45
   4   8   8  113.58   21.08
   4   8  -8   90.91   17.61
   4  -8  -8  118.14   30.13
  -4  -8  -8   99.93   19.34
   4  -8  -8  137.36   10.55
  -4  -8  -8  137.36   32.33
  -4   8  -9  163.83   22.15
  -4   8   9  222.33   22.35
   4   8  -9  186.55    9.96
   4   8   9  174.74   31.83
   4   8  -9  202.77   34.25
   4  -8  -9  168.01   39.92
  -4  -8  -9  183.12    8.78
   4  -8  -9  174.09   21.44
  -4  -8  -9  231.19   24.02
  -4   8 -10  283.77   12.46
  -4   8  10  294.56   27.94
   4   8 -10  264.76   15.35
   4   8  10  282.11   22.72
   4   8 -10  254.45   16.96
  -4  -8 -10  239.96   30.51
   4  -8 -10  292.00   32.21
  -4  -8 -10  241.46   12.86
  -4   8 -11   45.35   10.26
  -4   8  11   37.06   11.97
   4   8 -11   35.30    8.91
   4   8  11   46.60    9.82
   4   8 -11   35.97   13.66
  -4  -8 -11   33.98    9.11
   4  -8 -11   43.92    9.07
  -4  -8 -11   56.72   13.18
  -4   8 -12    6.74    2.78
  -4   8  12    7.68    3.94
   4   8 -12   10.61    4.29
   4   8  12   17.37    4.98
   4   8 -12   12.52    7.42
  -4  -8 -12   10.97    3.15
   4  -8 -12   16.48    6.29
   4  -8 -12    9.98    3.55
  -4  -8 -12    5.50    7.28
  -4   8 -13   44.24    8.93
  -4   8  13   27.89   13.16
   4   8 -13   25.20    6.97
   4   8  13   35.34    9.33
   4   8 -13   40.94   12.97
   4  -8 -13   40.35   11.71
   4  -8 -13   35.35    9.51
  -4  -8 -13   45.67   12.96
   4   8  14  140.64   19.41
   4  -8  14  180.72    9.48
   4   8 -14  161.11   22.21
   4  -8 -14  135.85   39.77
   4  -8 -14  186.25   23.62
  -4  -8 -14  200.34   22.32
   4   8  15   20.47    7.59
   4  -8  15   16.59    7.88
   4   8 -15   25.97    9.27
   4  -8 -15   21.40    8.53
   4  -8 -15   29.14    9.20
  -4  -8 -15   21.80   15.35
   4   8  16   36.17    9.77
   4   8 -16   29.69    5.12
   4  -8 -16   34.44   10.19
   4  -8 -16   29.14    6.97
  -4  -8 -16   29.22    7.90
   4   8 -17   13.59    5.77
   4  -8 -17   12.29    7.93
   4  -8 -17   12.42    3.70
  -4  -8 -17   13.46    8.52
   4   8 -18    5.38    5.13
   4  -8 -18   18.04    5.82
   4  -8 -18   30.92    8.85
  -4  -8 -18   19.86    6.16
  -4   9   0   53.23   16.02
   4   9   0   55.61   12.53
   4   9   0   56.64    9.64
   4  -9   0   55.52    5.96
  -4   9  -1  244.38   13.92
  -4   9   1  292.63   34.27
   4   9  -1  288.79   50.25
   4   9   1  232.70   21.63
   4   9   1  267.50   18.00
   4   9  -1  263.00   27.88
   4  -9  -1  250.56   10.50
   4  -9   1  261.98    9.92
  -4   9  -2   42.18   13.98
  -4   9   2   46.63   11.45
   4   9  -2   38.11   13.44
   4   9   2   51.35   13.98
   4   9  -2   21.27    4.53
   4  -9  -2   27.63    9.08
   4  -9  -2   40.15    9.24
  -4   9  -3  132.49   30.59
  -4   9   3  159.79   16.43
   4   9   3  136.68   23.93
   4   9  -3  148.52   23.29
   4  -9  -3  156.45   36.81
   4  -9  -3  139.30   12.53
  -4   9  -4   58.56   15.50
  -4   9   4   80.23   14.44
   4   9  -4   59.11   14.60
   4   9   4   71.50   15.73
   4   9  -4   69.37   13.11
   4  -9  -4   71.62   15.56
   4  -9   4   30.94    9.07
   4  -9  -4   57.61    9.00
  -4   9  -5   19.89    4.66
  -4   9   5   14.90    6.22
   4   9  -5   15.33    7.61
   4   9   5   22.15    7.11
   4   9  -5   18.33    6.15
   4  -9  -5   33.25    8.88
   4  -9   5    8.23    2.84
   4  -9  -5   19.15    3.93
  -4   9  -6  756.33   30.43
  -4   9   6  878.04  131.28
   4   9  -6  833.21  124.43
   4   9   6  806.06   40.62
   4   9  -6  816.43  122.20
   4  -9  -6  757.60   40.14
   4  -9  -6  862.49  128.56
  -4   9   7   56.83    9.17
   4   9  -7   46.93   10.83
   4   9   7   35.70   10.32
   4   9  -7   50.93   13.05
   4  -9  -7   41.21   14.24
   4  -9  -7   48.31   10.94
  -4  -9  -7   52.58   11.12
  -4   9  -8   17.24    6.68
  -4   9   8   28.85    8.82
   4   9  -8   39.70   11.57
   4   9   8   27.70    9.68
   4   9  -8   22.04    7.29
   4  -9  -8   26.88    8.44
  -4  -9  -8   27.60    8.39
   4  -9  -8   28.64    7.44
  -4  -9  -8   28.90    7.66
  -4   9  -9   74.87   15.18
  -4   9   9   79.95   20.09
   4   9  -9   69.85   16.03
   4   9   9   98.12   16.17
   4   9  -9   69.03   18.86
   4  -9  -9   89.88   16.96
  -4  -9  -9   73.55   17.94
   4  -9  -9   98.48   12.05
  -4  -9  -9  100.01   17.50
  -4   9 -10  144.89   28.48
  -4   9  10  172.11   15.50
   4   9 -10  152.78    7.78
   4   9  10  138.71   18.01
   4   9 -10  149.71   17.80
  -4  -9 -10  125.43   17.00
   4  -9 -10  149.23   16.79
  -4  -9 -10  132.43   23.67
  -4   9 -11  119.51   20.15
   4   9 -11  103.80   18.82
   4   9  11  101.24   31.54
   4   9 -11   96.92   26.41
  -4  -9 -11   86.81   18.67
   4  -9 -11  111.99   15.00
  -4  -9 -11  129.31   27.99
  -4   9 -12    8.73    4.42
  -4   9  12    3.21    2.92
   4   9 -12    4.62    2.86
   4   9  12    9.00    4.81
   4   9 -12    9.16    5.75
   4  -9 -12    7.70    8.23
  -4  -9 -12    4.81    2.94
   4  -9 -12    7.60    5.59
  -4  -9 -12    1.89    5.49
  -4   9 -13   33.44   10.53
  -4   9  13   18.89    9.59
   4   9 -13   27.11   11.01
   4   9  13   29.21    8.85
   4   9 -13   27.71    6.69
   4  -9 -13   43.22   19.64
   4  -9 -13   29.25    6.65
  -4  -9 -13   44.37   10.74
  -4   9 -14    8.94    3.23
   4   9  14   10.56    4.75
   4   9 -14   15.29    4.50
   4  -9 -14   12.77    4.75
   4  -9 -14   10.60    4.42
  -4  -9 -14   18.67    7.99
   4   9  15   13.89    9.55
   4  -9  15   23.74   10.33
   4   9 -15   36.25    9.76
   4  -9 -15   33.72   12.31
   4  -9 -15   26.44    7.35
  -4  -9 -15   28.63   13.76
   4   9  16    9.98    5.08
   4   9 -16    9.98    4.82
   4  -9 -16    5.22    4.55
   4  -9 -16    9.47    6.24
  -4  -9 -16   -2.67    6.01
   4   9 -17    3.47    3.27
   4  -9 -17    2.64    5.27
   4  -9 -17    8.90    3.09
  -4  -9 -17   -0.77    6.90
  -4  10   0   40.88    9.86
   4  10   0   46.36   12.58
   4  10   0   49.02   12.36
   4 -10   0   34.05   10.47
  -4  10  -1   85.36   20.95
  -4  10   1   76.02   17.01
   4  10  -1   77.12   20.86
   4  10   1   60.46   15.79
   4  10  -1   69.13   11.44
   4 -10  -1   76.27    9.07
   4 -10   1   59.17    9.71
  -4  10  -2   77.50   21.33
  -4  10   2   71.54   12.36
   4  10  -2   80.92   20.01
   4  10   2   79.08   14.35
   4  10  -2   72.56   12.58
   4 -10  -2   71.81    9.11
  -4  10  -3  119.14   26.00
  -4  10   3  114.14   20.43
   4  10  -3  106.41   19.92
   4  10   3  107.94   22.81
   4  10  -3   95.79   19.83
   4 -10  -3  134.46   23.27
   4 -10  -3   97.96   22.14
  -4  10  -4  234.85   13.48
  -4  10   4  241.57   40.60
   4  10   4  273.88   45.55
   4  10  -4  212.10   30.47
   4 -10  -4  250.31   38.10
   4 -10  -4  251.35   12.18
  -4  10  -5  225.68   39.43
  -4  10   5  269.67   28.92
   4  10  -5  255.23   26.00
   4  10   5  276.38   28.80
   4  10  -5  274.82   48.27
   4 -10  -5  255.57   34.32
   4 -10  -5  249.00   16.78
  -4  10  -6   28.29    8.28
  -4  10   6   26.81   12.08
   4  10  -6   31.24   10.50
   4  10   6   39.98    8.13
   4  10  -6   35.88    7.61
   4 -10  -6   44.82   12.09
   4 -10  -6   39.07   13.60
  -4  10   7  217.15   16.42
   4  10  -7  205.15   32.54
   4  10   7  166.57   19.17
   4  10  -7  201.65   30.89
   4 -10  -7  177.49   37.36
   4 -10  -7  206.63   15.00
  -4 -10  -7  211.40   27.09
  -4  10  -8  177.34   31.97
  -4  10   8  219.16   22.32
   4  10  -8  237.97   10.97
   4  10   8  196.17   38.85
   4  10  -8  232.37   27.82
   4 -10  -8  199.15   29.80
  -4 -10  -8  242.14   10.16
   4 -10  -8  218.42   24.72
  -4 -10  -8  244.14   26.32
  -4  10  -9   88.29   14.13
  -4  10   9   75.41   16.33
   4  10  -9   62.17   13.42
   4  10   9   78.51   15.36
   4  10  -9   84.44   16.94
   4 -10  -9   98.06   23.16
  -4 -10  -9   63.47   19.27
   4 -10  -9  102.39   19.92
  -4 -10  -9  109.95   22.13
  -4  10 -10  140.80   33.78
  -4  10  10  163.28   16.58
   4  10 -10  135.15   17.18
   4  10  10  134.88   19.12
   4  10 -10  141.17   19.93
  -4 -10 -10  140.94    7.67
   4 -10 -10  178.54   40.83
  -4 -10 -10  149.02   27.44
  -4  10 -11   40.70   11.47
  -4  10  11   32.67    5.44
   4  10 -11   26.14   10.17
   4  10  11   42.94   11.46
   4  10 -11   52.25   10.19
  -4 -10 -11   28.77    8.16
   4 -10 -11   40.47    8.98
  -4 -10 -11   35.86   10.44
  -4  10 -12   18.49    4.71
  -4  10  12   13.17    3.86
   4  10 -12   12.90    6.55
   4  10  12   16.49    6.66
   4  10 -12   20.03    6.54
   4 -10 -12   24.34   10.21
   4 -10 -12   25.71    6.69
  -4 -10 -12   30.07    7.82
  -4  10 -13    6.86    4.92
  -4  10  13    2.59    4.38
   4  10 -13    5.65    3.92
   4  10  13    3.30    3.57
   4  10 -13   15.31    5.66
   4 -10 -13    7.78    5.81
   4 -10 -13    9.92    5.73
  -4 -10 -13   15.96    6.65
  -4  10 -14   28.36   14.35
   4  10  14    8.92    4.70
   4  10 -14   42.92   11.61
   4 -10 -14   17.57    5.12
   4 -10 -14   22.52   11.42
   4  10  15   10.56    5.29
   4  10 -15    9.87    4.83
   4 -10 -15    6.15    6.73
   4 -10 -15   10.90    4.62
  -4 -10 -15    8.45    3.74
   4  10  16   17.17    7.91
   4  10 -16   14.05    9.91
   4 -10 -16   12.24    4.56
   4 -10 -16   13.35    7.76
  -4 -10 -16    9.52   10.60
   4  10 -17   14.34    4.71
   4 -10 -17   -0.66    5.23
   4 -10 -17   14.00    6.55
  -4 -10 -17   -0.45    6.61
  -4  11   0  594.76   30.37
   4  11   0  585.38   21.93
   4 -11   0  579.05   21.05
  -4  11  -1   81.74   16.37
  -4  11   1   98.13   16.81
   4  11  -1   85.88   13.29
   4  11   1   81.09   20.32
   4  11  -1   92.38   14.19
   4 -11  -1   95.44   12.17
   4 -11   1   77.20    8.80
  -4  11  -2   53.55   12.02
  -4  11   2   52.07   13.18
   4  11  -2   72.50   16.67
   4  11   2   37.47   13.20
   4  11  -2   41.73    8.49
   4 -11  -2   36.82   11.31
  -4  11  -3  333.99   20.40
  -4  11   3  317.04   14.76
   4  11  -3  322.76   23.88
   4  11   3  305.41   15.19
   4  11  -3  316.39   16.90
   4 -11  -3  346.62   48.67
   4 -11  -3  341.21   12.27
  -4  11  -4  212.37   20.63
  -4  11   4  279.75   16.41
   4  11   4  259.09   13.11
   4  11  -4  267.42   28.85
   4 -11  -4  277.12   56.31
   4 -11  -4  268.34   11.47
  -4  11  -5   28.53    6.29
  -4  11   5   24.97    6.92
   4  11  -5   27.99    6.43
   4  11   5   36.91   10.14
   4  11  -5   12.41    5.21
   4 -11  -5   27.30   12.51
   4 -11  -5   36.62   10.40
  -4  11  -6  133.49   27.46
  -4  11   6  155.91   27.57
   4  11  -6  147.70   28.46
   4  11   6  152.43   33.03
   4  11  -6  160.66   33.33
   4 -11  -6  169.91   39.28
   4 -11  -6  152.33   21.26
  -4  11   7   81.92   19.63
   4  11  -7   87.28   15.26
   4  11   7  101.29   32.30
   4  11  -7  100.48   25.65
   4 -11  -7   79.81   16.72
   4 -11  -7   68.08   18.86
  -4 -11  -7  101.33   23.12
  -4  11   8   50.46    9.91
   4  11  -8   55.40   12.19
   4  11   8   47.73   10.77
   4  11  -8   47.99   11.71
   4 -11  -8   49.40   12.95
  -4 -11  -8   38.23   11.71
   4 -11  -8   51.22   17.70
  -4 -11  -8   50.04   13.83
  -4  11  -9  266.71   42.71
  -4  11   9  282.00   12.28
   4  11  -9  257.42   11.44
   4  11   9  291.65   25.34
   4  11  -9  240.68   32.84
   4 -11  -9  233.55   49.69
  -4 -11  -9  237.32   32.85
   4 -11  -9  231.39   23.84
  -4 -11  -9  278.21   56.16
  -4  11 -10   19.94    7.73
  -4  11  10   14.65    7.10
   4  11 -10   18.59    6.39
   4  11  10    4.73    6.40
   4  11 -10   15.02    5.65
  -4 -11 -10    9.61    3.22
   4 -11 -10   10.11    5.50
  -4 -11 -10   13.01    4.99
  -4  11 -11   36.09   10.58
  -4  11  11   37.84   14.03
   4  11 -11   28.53   12.95
   4  11  11   40.82   17.73
   4  11 -11   47.11   11.49
  -4 -11 -11   26.60    6.56
   4 -11 -11   36.88   12.43
  -4 -11 -11   60.77   17.30
  -4  11 -12  156.37   35.81
  -4  11  12  165.71   23.40
   4  11 -12  133.56   33.97
   4  11  12  156.89   20.55
   4  11 -12  161.58   40.49
   4 -11 -12  121.73   44.87
   4 -11 -12  150.14   37.08
  -4 -11 -12  144.03   38.23
  -4  11 -13   17.92    8.90
  -4  11  13   12.42    6.24
   4  11  13    8.62    3.19
   4  11 -13   22.92    7.73
   4 -11 -13    7.24    6.78
   4 -11 -13   10.18    4.70
  -4 -11 -13   13.98    5.11
  -4  11 -14    9.29    3.95
   4  11  14    6.10    3.99
   4  11 -14    5.13    5.07
   4 -11 -14    3.54    4.89
   4 -11 -14    2.70    3.59
  -4 -11 -14    4.73    4.01
  -4  11 -15   16.59    4.70
   4  11  15   17.09    5.93
   4  11 -15   11.63    7.03
   4 -11 -15   20.02    7.18
   4 -11 -15   14.23    5.07
  -4 -11 -15   17.91    5.43
   4  11  16   24.90   17.26
   4  11 -16   46.42   13.62
   4 -11 -16   53.55   20.34
   4 -11 -16   63.32   20.65
  -4 -11 -16   50.32   23.51
  -4  12   0   73.43   17.43
   4  12   0  104.84   28.54
   4 -12   0   52.56   15.87
  -4  12  -1  167.35   34.57
  -4  12   1  214.35   28.70
   4  12  -1  198.29   42.63
   4  12   1  211.82   51.17
   4 -12  -1  168.45    7.35
   4 -12   1  168.99   10.18
  -4  12  -2   10.39    3.62
  -4  12   2   12.56    4.85
   4  12  -2   -1.17    6.73
   4  12   2   -1.42    8.00
   4  12  -2    9.24    4.56
   4 -12  -2    0.01    2.93
  -4  12  -3   43.01   10.12
  -4  12   3   61.92   16.70
   4  12  -3   53.05   15.41
   4  12   3   50.07   14.35
   4  12  -3   59.52   14.43
   4 -12  -3   43.00   16.12
   4 -12  -3   46.74   12.27
  -4  12  -4   37.29   10.66
  -4  12   4   43.50   14.68
   4  12   4   58.93   13.91
   4  12  -4   52.82   11.59
   4 -12  -4   29.66    8.40
   4 -12  -4   34.49    5.36
  -4  12  -5   14.17    5.63
  -4  12   5    5.99    3.63
   4  12   5   34.24   10.76
   4  12  -5    9.65    3.52
   4 -12  -5   24.47   12.71
   4 -12  -5   16.65    5.55
  -4  12  -6   13.65    6.11
  -4  12   6   14.07    5.23
   4  12  -6    9.42    5.04
   4  12   6   19.65    7.46
   4  12  -6   11.10    5.79
   4 -12  -6   18.13    8.94
   4 -12  -6   12.34    4.36
  -4  12  -7    9.78    5.93
  -4  12   7   12.17    3.49
   4  12  -7    8.94    3.16
   4  12   7    8.62    3.63
   4  12  -7   14.16    5.61
   4 -12  -7   17.73    9.84
   4 -12  -7   -0.11    4.12
  -4 -12  -7   -1.36    7.22
  -4  12   8   21.88    7.45
   4  12  -8   19.67    7.06
   4  12   8   14.72    5.47
   4  12  -8   19.23    7.28
   4 -12  -8   32.27    9.28
  -4 -12  -8    8.19    3.41
   4 -12  -8   22.75    8.00
  -4 -12  -8   21.27    9.60
  -4  12  -9   51.26   11.23
  -4  12   9   40.07   12.51
   4  12  -9   24.79   11.73
   4  12   9   32.09    9.33
   4  12  -9   18.40    8.39
   4 -12  -9   45.03   16.50
  -4 -12  -9   22.31   13.00
   4 -12  -9   50.25   12.01
  -4 -12  -9   50.41   12.91
  -4  12 -10   13.82    3.62
  -4  12  10   15.26    3.45
   4  12 -10   19.90    6.27
   4  12  10   23.20    6.43
   4  12 -10   22.32    6.04
   4 -12 -10   19.21    9.88
  -4 -12 -10   12.08    4.29
   4 -12 -10   20.06    8.14
  -4 -12 -10   11.56    5.40
  -4  12 -11   55.31   14.13
  -4  12  11   58.83   18.93
   4  12 -11   63.89   14.26
   4  12  11   57.03   22.07
   4  12 -11   69.01   15.47
  -4 -12 -11   41.11   15.95
   4 -12 -11   56.89   18.32
  -4 -12 -11   76.63   12.60
  -4  12 -12    8.33    5.92
  -4  12  12   12.25    4.71
   4  12 -12   10.26    5.57
   4  12  12    5.35    4.00
   4  12 -12   17.89    7.21
   4 -12 -12   12.06    7.76
   4 -12 -12   18.71    5.71
  -4 -12 -12   12.27    9.19
  -4  12 -13   73.01   27.91
  -4  12  13   59.47   24.77
   4  12  13   69.74   29.65
   4  12 -13   82.97   20.56
   4 -12 -13   77.03   22.63
   4 -12 -13   81.47   14.99
  -4 -12 -13  110.09   24.88
  -4  12 -14   14.87    4.72
   4  12  14    9.16    5.08
   4 -12 -14    6.96    3.81
  -4 -12 -14   10.69    5.66
  -4  12 -15   24.83    6.86
   4  12  15   20.01   11.30
   4  12 -15   21.95    5.63
   4 -12 -15   19.93    9.40
   4 -12 -15   13.74    3.71
  -4 -12 -15   25.06    8.51
  -4  13   0  104.13   30.97
   4  13   0   74.57   14.34
   4 -13   0   69.72    9.06
  -4  13  -1   15.83    6.05
  -4  13   1   32.21    9.89
   4  13  -1   15.29    5.09
   4  13   1   13.82    5.36
   4 -13  -1   23.18    7.22
   4 -13   1   22.57    6.71
  -4  13  -2   96.49   15.38
  -4  13   2  127.08   33.98
   4  13  -2   91.65   16.91
   4  13   2  102.59   23.46
   4 -13  -2   77.33   17.94
  -4  13  -3   51.62   11.45
  -4  13   3   42.85   11.70
   4  13  -3   31.43    8.66
   4  13   3   24.27    7.21
   4  13  -3   23.52    6.89
   4 -13  -3   32.62    9.34
   4 -13  -3   27.04    5.76
  -4  13  -4  109.43   26.35
  -4  13   4  137.98   12.81
   4  13  -4  105.98   22.16
   4  13   4  125.18   25.00
   4  13  -4  122.28   21.82
   4 -13  -4  107.59   24.43
   4 -13  -4  103.23   24.07
  -4  13  -5   89.79   19.11
  -4  13   5   82.29   17.03
   4  13   5   92.87   19.52
   4  13  -5   78.67   16.58
   4 -13  -5  104.03   28.51
   4 -13  -5  118.93   27.69
  -4  13  -6   32.47   10.19
  -4  13   6   42.35   13.04
   4  13  -6   39.56   19.11
   4  13   6   35.70   14.89
   4  13  -6   44.29    8.06
   4 -13  -6   20.58    7.90
   4 -13  -6   31.12   10.93
  -4 -13  -6   41.02    8.54
  -4  13  -7  116.62   18.27
  -4  13   7   98.48   17.05
   4  13  -7  114.35   28.09
   4  13   7  122.44   29.61
   4  13  -7  110.60   16.20
   4 -13  -7  110.70   39.69
   4 -13  -7   95.51   22.01
  -4 -13  -7  131.40   47.04
  -4  13   8   14.60    4.91
   4  13  -8    9.91    4.55
   4  13   8    9.32    5.82
   4  13  -8   14.73    8.16
   4 -13  -8    5.60    7.46
  -4 -13  -8    6.71    6.71
   4 -13  -8    3.22    2.12
  -4 -13  -8   15.16    9.22
  -4  13  -9   58.52   18.27
  -4  13   9   62.47   22.27
   4  13  -9   74.75   15.93
   4  13   9   62.70   19.20
   4  13  -9   72.27   15.76
   4 -13  -9   83.81   24.85
  -4 -13  -9   44.96   15.90
   4 -13  -9   62.15   19.04
  -4 -13  -9   71.10   16.50
  -4  13 -10   33.51    7.96
  -4  13  10   27.05   10.37
   4  13 -10   27.37    8.58
   4  13  10   31.41   10.40
   4  13 -10   31.50    9.18
   4 -13 -10   26.64   10.06
  -4 -13 -10   24.00    6.89
   4 -13 -10   30.46    7.13
  -4 -13 -10   38.15   10.70
  -4  13 -11    1.85    3.39
  -4  13  11    2.39    4.47
   4  13 -11   -0.78    4.05
   4  13  11   13.06    5.63
   4  13 -11    0.83    3.88
   4 -13 -11    8.59    6.27
  -4 -13 -11   10.41    6.39
  -4  13 -12   26.58   10.97
   4  13 -12   17.45    8.91
   4  13  12   23.37   12.26
   4  13 -12   29.70    8.11
   4 -13 -12   14.02    7.63
   4 -13 -12   16.79    8.32
  -4 -13 -12   22.78    9.75
  -4  13 -13   28.45    9.57
  -4  13  13   27.38   16.75
   4  13  13   24.42   13.04
   4  13 -13   33.57    9.25
   4 -13 -13   18.35   10.06
   4 -13 -13   19.31   13.61
  -4 -13 -13   42.61   12.76
  -4  13 -14    7.60    6.30
   4  13  14   11.23    5.18
   4  13 -14    7.65    7.44
   4 -13 -14   14.04    5.45
   4 -13 -14    3.90    2.80
  -4 -13 -14    7.11    3.49
  -4  14   0   36.31    7.64
   4  14   0   49.60   14.47
   4 -14   0   25.17   11.90
  -4  14  -1   55.82   19.65
  -4  14   1   65.99   11.57
   4  14  -1   44.98   13.39
   4  14   1   59.42   13.56
   4 -14  -1   33.82   10.78
   4 -14   1   30.15   10.39
  -4  14  -2   32.05   11.40
  -4  14   2   38.80    8.47
   4  14  -2   50.26   15.35
   4  14   2   31.65   10.15
   4 -14  -2   20.03    5.35
   4 -14   2   29.36    8.61
  -4  14  -3   19.51    8.95
  -4  14   3   16.87    6.05
   4  14  -3   12.51    5.37
   4  14   3    9.66    9.85
   4 -14  -3   18.57   14.30
  -4  14  -4   19.57    9.13
  -4  14   4   12.25    6.69
   4  14  -4   11.84    6.54
   4  14   4   14.37    6.29
   4 -14  -4   10.50    9.55
   4 -14  -4    6.44    3.84
  -4  14  -5   84.29   22.79
  -4  14   5   97.88   26.62
   4  14   5   75.05   20.88
   4  14  -5  108.73   30.79
   4 -14  -5   90.75   29.99
   4 -14  -5   72.82   12.88
  -4  14  -6   21.18    7.45
  -4  14   6   20.68    6.61
   4  14  -6   21.20    7.12
   4  14   6   26.70    9.67
   4  14  -6   14.56    4.35
   4 -14  -6   27.52    8.74
   4 -14  -6   11.75    4.18
  -4 -14  -6   16.81   14.55
  -4  14  -7   89.48   28.48
  -4  14   7   76.30   19.04
   4  14  -7   84.70   24.03
   4  14   7   88.72   24.64
   4  14  -7   91.39   26.06
   4 -14  -7   91.48   24.88
   4 -14  -7   69.85   23.38
  -4 -14  -7  101.76   23.95
  -4  14  -8   13.77    8.70
  -4  14   8   13.88    6.28
   4  14  -8   13.68    6.08
   4  14   8   11.60    7.74
   4  14  -8    6.08    3.79
   4 -14  -8    7.51    5.11
   4 -14  -8    8.30    4.34
  -4 -14  -8   17.34    9.36
  -4  14   9   18.88    8.69
   4  14  -9   32.90    9.91
   4  14   9   18.17    7.00
   4  14  -9   30.77    7.26
   4 -14  -9   42.01   17.67
  -4 -14  -9   21.76    9.45
   4 -14  -9   22.66    7.00
  -4 -14  -9   19.92    9.03
  -4  14 -10    6.08    3.40
  -4  14  10    6.21    2.85
   4  14 -10   13.85    7.73
   4  14  10    9.05    5.90
   4  14 -10    8.32    3.72
   4 -14 -10   20.76   10.69
  -4 -14 -10   10.17    4.80
   4 -14 -10    6.57    3.46
  -4 -14 -10   11.69    4.19
  -4  14 -11   18.65    6.78
  -4  14  11   17.96    8.90
   4  14 -11   22.59    8.09
   4  14  11   38.61   11.07
   4  14 -11   31.65    8.12
   4 -14 -11   23.64    8.58
  -4 -14 -11   25.98    9.92
  -4  14 -12   15.26    5.02
  -4  14  12   13.47    6.45
   4  14 -12    9.53    4.79
   4  14  12   22.28   10.59
   4  14 -12   13.85    6.83
   4 -14 -12   10.83    6.10
   4 -14 -12   11.70    5.35
  -4 -14 -12   14.44    6.54
  -4  14 -13    4.21    6.10
  -4  14  13   11.61    2.93
   4  14  13    6.80    5.18
   4  14 -13    7.87    4.08
   4 -14 -13   -4.87    8.47
   4 -14 -13    8.11    6.31
  -4 -14 -13    5.81    5.41
  -4  15   0    8.58    4.21
   4  15   0    5.14    3.53
  -4  15  -1   78.07   24.03
  -4  15   1  151.97   30.09
   4  15  -1  130.92   32.25
   4  15   1  121.53   26.87
  -4  15  -2   35.58   15.79
  -4  15   2   35.63   12.84
   4  15  -2   25.98    7.80
   4  15   2   33.21    9.74
   4 -15  -2   20.69    6.30
  -4  15  -3   57.85   21.21
  -4  15   3   49.75   18.28
   4  15  -3   61.35   18.49
   4  15   3   49.20   14.26
   4 -15  -3   43.31   17.06
   4 -15  -3   36.74    8.68
  -4  15  -4    5.15    3.41
  -4  15   4    3.66    3.60
   4  15  -4    2.75    4.08
   4  15   4   13.45    8.79
   4 -15  -4   12.48    6.39
   4 -15  -4    5.85    2.98
  -4  15  -5   30.70    7.37
  -4  15   5   24.13    8.94
   4  15  -5   35.55    9.00
   4  15   5   15.14    9.54
   4 -15  -5   24.14   11.25
   4 -15  -5   20.37    7.95
  -4  15  -6   34.16    9.64
  -4  15   6   19.88    7.79
   4  15   6   15.05    7.11
   4 -15  -6   24.59   12.88
   4 -15  -6   23.85    9.77
  -4 -15  -6   22.79    6.58
  -4  15  -7    8.01    4.19
  -4  15   7    6.05    3.71
   4  15  -7    8.59    6.14
   4  15   7   13.77    5.49
   4  15  -7    7.32    6.67
   4 -15  -7    8.74    8.07
   4 -15  -7    6.96    4.47
  -4 -15  -7    7.91    4.26
  -4  15  -8   12.76    5.20
  -4  15   8    9.12    9.38
   4  15  -8    3.57    3.47
   4  15   8    7.68    5.44
   4  15  -8    9.21    4.11
   4 -15  -8   16.06    9.04
  -4 -15  -8    7.36    6.13
   4 -15  -8   19.29    5.47
  -4 -15  -8   10.92    8.60
  -4  15   9   13.75    5.69
   4  15  -9    5.08    7.85
   4  15   9   12.17    5.50
   4  15  -9   18.89    6.21
   4 -15  -9   13.43    7.86
  -4 -15  -9    3.87    4.21
   4 -15  -9   22.55    7.49
  -4 -15  -9   12.38   10.88
  -4  15 -10   27.28   10.25
  -4  15  10   13.27    8.39
   4  15 -10   14.95   11.93
   4  15  10   18.94    7.48
   4  15 -10   16.20    5.99
   4 -15 -10   17.14   11.78
   4 -15 -10   25.66   12.30
  -4 -15 -10   30.28   11.33
  -4  15 -11   23.53    9.85
  -4  15  11   17.75   14.04
   4  15 -11   11.75    8.16
   4  15  11    8.96    9.27
   4  15 -11   13.95    7.03
   4 -15 -11   16.57    7.71
  -4 -15 -11   24.64    9.03
  -4  16   0   18.66   10.52
   4  16   0   17.11    6.42
  -4  16  -1   77.56   27.41
  -4  16   1   87.32   29.17
   4  16  -1   80.38   31.07
   4  16   1   51.16   14.57
  -4  16  -2   36.04   13.25
  -4  16   2   31.66   13.90
   4  16  -2   62.56   15.51
   4  16   2   52.67   26.93
   4 -16  -2   55.59   17.46
  -4  16  -3   -0.13    6.03
  -4  16   3    9.05    5.30
   4  16  -3    3.69    3.50
   4  16   3    3.63    3.24
   4 -16  -3   13.11    5.61
  -4  16  -4    6.69    3.75
  -4  16   4    4.60    4.81
   4  16  -4   12.57    3.87
   4  16   4    3.77    7.76
   4 -16  -4   17.14    8.62
  -4  16  -5   34.83   10.66
  -4  16   5   44.32   17.88
   4  16  -5   43.47   14.91
   4  16   5   42.27   18.21
   4 -16  -5   51.24   14.05
  -4  16  -6   10.18    5.22
  -4  16   6   13.03    5.66
   4  16   6   20.25   12.66
   4 -16  -6   14.87    6.04
  -4 -16  -6   19.34    8.89
  -4  16  -7   17.88    5.79
  -4  16   7   25.46   11.45
   4  16  -7   19.54    7.87
   4  16   7   28.77    9.24
   4 -16  -7   16.30    7.82
   4 -16  -7   12.94    4.03
  -4 -16  -7   46.07   16.67
  -4  16  -8   10.92    5.91
  -4  16   8   14.13    9.27
   4  16  -8   10.14    4.84
   4  16   8   15.79    5.47
   4 -16  -8   12.34    6.02
  -4 -16  -8   16.00    3.65
   4 -16  -8    1.83    4.22
  -4 -16  -8    7.60    6.60
  -4  16   9    6.25    7.72
   4  16  -9    4.00    5.85
   4  16   9    9.40    6.19
   4  16  -9    7.38    2.94
   4 -16  -9   -1.49    7.63
  -4 -16  -9    5.63    3.80
   4 -16  -9   13.57    6.27
  -4 -16  -9    5.39    4.48
  -4  17   0   17.32    7.52
   4  17   0   18.42    7.43
  -4  17  -1   24.01   11.89
  -4  17   1    7.16    4.42
   4  17  -1   16.76    6.24
   4  17   1   14.38    8.96
  -4  17  -2    2.89    2.73
  -4  17   2   10.69    4.88
   4  17  -2    7.52    4.86
   4  17   2    7.92    5.36
   4 -17  -2    6.97    7.17
  -4  17  -3   20.55   17.06
  -4  17   3   18.74    8.73
   4  17  -3   10.48    5.08
   4  17   3   15.83    7.34
   4 -17  -3    9.90    7.26
  -4  17  -4   14.09    7.12
  -4  17   4    6.84    4.46
   4  17  -4   10.50    4.20
   4  17   4    9.52    5.53
   4 -17  -4   34.21   14.09
  -4  17  -5   70.05   33.53
  -4  17   5   97.40   28.88
   4  17  -5   92.09   27.57
   4  17   5   74.54   29.71
   4 -17  -5   97.90   40.18
  -4 -17  -5   77.86   26.82
  -4  17  -6   26.36    9.44
  -4  17   6   30.44   10.51
   4  17   6   33.64   11.70
   4 -17  -6   17.79    7.11
  -4 -17  -6   33.53   20.78
  -4  17  -7   48.59   19.28
  -4  17   7   55.27   13.91
   4  17  -7   47.67   16.79
   4  17   7   52.02   17.58
   4 -17  -7   56.22   20.36
  -4 -17  -7   45.34   12.08
  -4  18   0    6.16    5.85
   4  18   0    8.86    7.05
  -4  18  -1   11.67    5.87
  -4  18   1   29.19   14.34
   4  18  -1   14.47    5.71
   4  18   1   15.68    7.03
  -4  18  -2    7.51    4.44
  -4  18   2   14.62    9.45
   4  18  -2   14.21    4.87
   4  18   2   11.05    5.32
   4 -18  -2   17.91   23.28
   5   0   0    1.89    5.80
   5   0   0    5.66    3.69
  -5   0   0    4.17    3.33
   5   0   1  147.15    9.34
   5   0  -1  137.10    7.92
   5   0   1  163.58   20.96
  -5   0  -1  137.69   19.46
   5   0  -2   24.49    5.71
   5   0   2   20.34    5.74
   5   0  -2   15.19    6.26
   5   0   2   15.83    3.12
  -5   0  -2    9.36    2.87
   5   0  -3  154.09   14.91
   5   0   3  157.14   10.66
   5   0  -3  197.22   24.15
   5   0   3  163.95    8.99
  -5   0  -3  157.61   11.91
   5   0  -4  266.44   15.14
   5   0  -4  294.33   15.75
   5   0   4  317.33   18.56
   5   0  -4  305.34   17.92
   5   0   4  302.21   15.07
  -5   0  -4  294.94   15.48
   5   0  -5  385.93   19.16
   5   0  -5  403.12   20.54
   5   0   5  434.44   23.72
   5   0   5  442.98   20.98
   5   0  -5  402.66   21.57
   5   0   5  428.81   20.60
  -5   0  -5  405.05   20.75
   5   0  -6   17.57    4.25
   5   0  -6   22.06    5.08
   5   0   6   36.78    8.93
   5   0   6   17.46    2.54
   5   0  -6   26.89    4.86
   5   0   6   20.39    3.46
  -5   0  -6   23.56    4.88
   5   0  -7  221.86   13.10
   5   0  -7  241.46   13.78
   5   0   7  254.17   27.37
   5   0  -7  275.61   39.02
  -5   0  -7  227.57   18.16
   5   0  -8 1061.46   38.42
   5   0  -8 1080.57   39.24
   5   0   8 1109.06   43.29
   5   0  -8 1140.62   44.77
  -5   0  -8 1088.06   41.48
   5   0  -9  478.98   17.88
   5   0  -9  479.26   18.13
   5   0   9  478.16   25.63
   5   0  -9  497.57   22.94
  -5   0  -9  496.48   22.07
   5   0 -10  179.70    3.08
   5   0 -10  160.00    4.87
   5   0  10  157.16   34.13
   5   0 -10  164.75   10.13
   5   0  10  169.33    4.62
   5   0 -10  191.37   20.83
  -5   0 -10  191.80   28.80
   5   0  11   63.51   23.57
   5   0 -11   66.14   11.31
   5   0  11   45.58    4.78
   5   0 -11   63.14   19.69
  -5   0 -11   70.29   10.47
   5   0  12   42.25    9.94
   5   0 -12   30.98    9.98
   5   0  12   16.22    5.41
   5   0 -12   41.38   10.42
  -5   0 -12   26.37    9.50
   5   0  13   -0.90    3.60
   5   0 -13   10.16    4.60
   5   0 -13   14.49    5.53
  -5   0 -13    7.89    4.70
   5   0  14   23.24    7.89
   5   0 -14   27.10    6.83
  -5   0 -14   20.74    7.38
   5   0  15    5.70    3.47
   5   0 -15   10.48    6.07
  -5   0 -15    2.25    3.68
   5   0  16   26.51   12.48
   5   0 -16   46.59   10.47
  -5   0 -16   44.98   11.84
   5   0 -17   79.35    9.25
   5   0 -17   76.05   25.65
  -5   0 -17   65.60   17.92
   5   0 -18    5.76    7.67
   5   0 -18   11.66    8.30
  -5   0 -18    9.46    4.17
   5   0 -19    0.88    3.45
   5   0 -20   38.17   14.87
   5   1   0  572.77   19.60
   5  -1   0  595.52   20.06
   5   1   0  572.11   18.32
  -5  -1   0  562.84   19.57
   5  -1   0  582.98   20.07
  -5   1   0  592.72   19.14
   5   1   1   28.73    6.93
   5  -1   1   30.26    6.84
   5   1   1   16.88    4.77
   5   1  -1   25.60    6.96
   5  -1  -1   25.42    4.60
  -5  -1  -1   23.94    3.94
   5  -1   1   29.32    6.35
  -5   1  -1   18.44    2.90
   5   1  -2  656.96   21.85
   5   1   2  774.75   25.07
   5  -1   2  683.07   22.40
   5  -1  -2  785.17   25.20
   5   1   2  743.01   21.94
   5   1  -2  683.14   22.40
   5  -1  -2  746.76   24.54
  -5  -1  -2  685.41   20.48
   5  -1   2  654.06   22.01
  -5   1  -2  739.20   22.25
  -5   1   2  666.36   20.23
   5   1  -3  446.91   22.78
   5   1   3  433.00   22.69
   5  -1   3  417.41   22.64
   5  -1  -3  442.28   22.55
   5   1   3  414.51   20.42
   5   1  -3  431.82   22.33
   5  -1  -3  439.62   25.23
   5  -1   3  434.06   21.30
  -5  -1  -3  442.86   21.32
  -5   1   3  416.82   20.62
  -5   1  -3  439.49   23.16
   5   1  -4  699.40   22.23
   5   1   4  651.09   22.77
   5  -1   4  737.14   25.16
   5  -1  -4  633.50   20.29
  -5  -1   4  592.77   18.78
   5   1   4  626.26   17.85
   5   1  -4  678.05   24.62
   5  -1  -4  657.38   22.97
   5  -1   4  651.61   20.98
  -5   1  -4  638.70   19.63
   5  -1  -5  330.32   17.92
   5   1  -5  370.70   19.10
   5   1   5  367.00   21.01
   5  -1   5  376.74   20.52
   5  -1  -5  386.76   19.89
  -5  -1   5  350.97   18.42
   5  -1   5  376.30   18.21
   5   1  -5  368.03   21.45
   5  -1  -5  397.80   22.32
   5  -1   5  369.05   18.91
  -5   1  -5  375.18   19.52
  -5  -1  -5  383.03   20.13
   5  -1  -6  287.52   21.01
   5   1  -6  320.90   16.34
   5   1   6  305.79   17.51
   5  -1   6  314.41   17.31
   5  -1  -6  308.69   15.88
  -5  -1   6  286.02   14.40
   5  -1   6  334.54   16.19
   5   1  -6  316.97   18.10
   5  -1  -6  278.57   16.63
   5  -1   6  331.16   16.34
  -5   1  -6  325.60   16.93
  -5  -1  -6  327.82   18.30
   5   1  -7  214.52   11.83
   5  -1  -7  227.49   11.67
   5   1  -7  229.13   14.72
   5   1   7  274.33   27.74
   5  -1  -7  237.39   12.70
   5  -1   7  264.91   15.67
   5  -1   7  240.46   11.73
   5   1  -7  257.59   23.22
   5  -1  -7  258.54   33.43
   5  -1  -7  267.72   27.79
  -5   1  -7  229.04   12.92
  -5  -1  -7  239.57   14.18
   5   1  -8  804.01   29.46
   5  -1  -8  846.72   31.05
   5   1  -8  829.29   32.01
   5   1   8  871.36   34.64
   5  -1  -8  861.86   33.22
   5  -1   8  844.48   44.60
   5  -1   8  853.36   30.91
   5   1  -8  836.46   34.12
   5  -1  -8  859.10   35.49
   5  -1  -8  896.86   35.49
  -5   1  -8  868.60   33.62
  -5  -1  -8  856.06   33.82
   5   1  -9    5.09    1.30
   5  -1  -9    3.85    1.92
   5   1  -9    4.91    2.44
   5   1   9    9.00    4.93
   5  -1  -9    6.37    3.29
   5  -1   9    7.08    4.96
   5   1  -9    3.95    4.47
   5  -1   9    6.41    1.73
   5  -1  -9    8.72    4.69
   5  -1  -9   15.68    6.66
  -5   1  -9   12.75    5.09
  -5  -1  -9   12.14    4.82
   5   1 -10  211.86    7.09
   5  -1 -10  199.84    4.88
   5   1 -10  199.38    5.24
   5  -1 -10  195.77    7.84
   5   1  10  215.97   22.15
   5  -1  10  237.95   28.55
   5   1 -10  228.43   28.98
   5  -1 -10  196.76   35.77
   5  -1  10  176.43    8.52
   5  -1 -10  237.56   23.45
  -5   1 -10  233.75   31.71
  -5  -1 -10  183.79   10.78
   5   1  11  106.52   32.09
   5  -1  11  119.04   33.00
   5   1 -11  119.87   19.39
   5  -1 -11  109.41   21.99
   5  -1  11   91.66    6.35
   5  -1 -11  118.50   23.45
  -5   1 -11  116.92   29.02
   5   1  12  318.56   32.95
   5  -1  12  411.81   16.08
   5   1 -12  399.99   18.30
   5  -1 -12  365.66   16.82
   5  -1 -12  342.19   36.69
  -5   1 -12  343.98   14.85
   5   1  13  115.64   22.20
   5  -1  13  114.33   13.57
   5   1 -13  126.47   29.85
   5  -1 -13  123.16   31.06
   5  -1 -13  125.28   26.77
  -5   1 -13  120.58   27.55
   5   1  14   72.84   14.78
   5  -1  14   91.43   16.74
   5   1 -14   96.87   19.43
   5  -1 -14   83.19   27.40
  -5   1 -14   87.85   17.07
   5   1  15   42.16   14.81
   5  -1  15   43.80   14.72
   5  -1 -15   38.23   11.59
  -5   1 -15   51.15    8.64
   5   1  16   40.03   15.84
   5  -1  16   36.37   16.38
   5  -1 -16   31.32   18.70
   5  -1 -16   37.29   13.33
  -5   1 -16   46.98    9.55
   5  -1 -17   12.69    4.29
   5  -1 -17   17.97    5.74
  -5   1 -17   18.54    6.42
   5   1 -18   30.90   11.65
   5  -1 -18   27.15    8.93
   5  -1 -18   35.09   12.73
  -5   1 -18   37.69   11.16
   5   1 -19    4.66    2.79
   5  -1 -19    5.04    4.72
   5  -1 -19    7.66    3.28
  -5   1 -19    6.13    6.04
   5   1 -20   32.37    9.30
   5  -1 -20   24.51    8.02
   5  -1 -20   32.72   10.86
  -5   1 -20   30.37   11.87
   5   2   0  130.10   22.51
   5  -2   0  111.64    7.30
   5   2   0  126.73    7.82
  -5  -2   0  116.95    6.31
   5  -2   0  136.13   20.95
   5   2   1  436.75   23.13
   5  -2   1  520.77   18.44
   5   2   1  476.21   16.79
   5   2  -1  500.38   16.97
  -5  -2  -1  497.54   15.86
   5  -2  -1  489.36   19.01
   5  -2   1  485.05   16.83
  -5   2   1  473.28    6.18
   5   2  -2 1280.77   38.50
   5   2   2 1344.23   40.57
   5  -2   2 1209.82   36.52
   5  -2  -2 1358.24   40.30
   5   2   2 1334.98   37.94
   5   2  -2 1286.51   38.71
  -5  -2  -2 1294.21   37.01
   5  -2  -2 1364.91   41.52
   5  -2   2 1285.69   38.98
  -5   2   2 1197.47   34.88
   5   2  -3    3.35    5.22
   5   2   3   17.83    7.08
   5  -2   3    7.21    3.20
   5  -2  -3   11.86    3.33
   5   2   3   10.74    2.66
   5   2  -3    7.15    3.55
  -5  -2  -3    3.64    1.25
   5  -2  -3   15.89    3.97
   5  -2   3    6.32    2.16
  -5   2   3    3.49    2.70
  -5   2  -3    6.25    1.98
   5   2  -4  375.80   19.70
   5   2   4  385.40   21.09
   5  -2   4  371.34   20.05
   5  -2  -4  357.03   22.96
   5   2   4  393.90   18.81
   5   2  -4  348.29   19.17
   5  -2  -4  391.27   21.92
  -5  -2  -4  373.62   17.85
   5  -2   4  364.67   18.34
  -5   2  -4  365.29   18.85
   5   2  -5  559.34   18.61
   5   2   5  539.31   20.25
  -5  -2   5  507.58   19.78
   5  -2   5  526.32   24.58
   5  -2  -5  526.22   17.46
   5  -2   5  543.73   16.66
   5   2  -5  522.04   19.38
   5  -2  -5  532.00   19.27
   5  -2  -5  548.95   23.03
  -5   2  -5  574.02   18.76
  -5  -2  -5  589.93   20.40
   5  -2  -6  112.94    4.29
   5   2  -6  136.12    9.40
   5   2   6  135.63   24.18
  -5  -2   6  111.96    4.61
   5  -2   6  164.01   12.52
   5  -2  -6  121.40   20.45
   5  -2   6  151.52    8.28
   5   2  -6  144.44   14.25
   5  -2  -6  146.62   23.04
   5  -2  -6  137.88   18.72
  -5   2  -6  130.17    7.92
  -5  -2  -6  149.35   24.50
   5  -2  -7  214.43   11.98
   5   2  -7  235.03   14.38
   5   2   7  228.68   14.17
   5  -2   7  233.79   15.46
  -5  -2   7  199.54   12.23
   5  -2  -7  232.40   12.65
   5  -2   7  219.37   12.53
   5   2  -7  212.00   17.59
   5  -2  -7  219.49   23.30
   5  -2  -7  246.44   21.19
  -5   2  -7  207.73   13.55
  -5  -2  -7  242.75   14.53
   5  -2  -8  135.00    7.32
   5   2  -8  123.83    6.02
   5   2   8  155.31   16.70
   5  -2   8  130.96   10.20
   5  -2  -8  147.26   10.37
  -5  -2   8  137.09    6.09
   5  -2   8  122.74    6.52
   5   2  -8  127.59   28.53
   5  -2  -8  183.24   36.86
   5  -2  -8  169.91   15.43
  -5   2  -8  149.83    8.45
   5   2  -9   16.46    4.01
   5  -2  -9   15.87    4.32
   5   2  -9   23.74    5.53
   5   2   9   33.96    9.04
   5  -2   9   19.35    6.69
   5  -2  -9   27.55    9.03
   5  -2   9   17.35    4.04
   5   2  -9   33.64    6.14
   5  -2  -9   33.75    7.65
   5  -2  -9   33.17   12.19
  -5   2  -9   26.70    6.23
   5   2 -10  100.73    5.17
   5  -2 -10   98.66    5.93
   5   2 -10  106.57    6.26
   5   2  10  115.41   12.88
   5  -2 -10  106.69    6.12
   5  -2  10  128.74   16.33
   5   2 -10  118.50   19.33
   5  -2  10   90.27    5.71
   5  -2 -10  111.18   20.11
   5  -2 -10  121.60   20.89
  -5   2 -10  118.42   27.20
   5  -2 -11  138.40    6.50
   5   2  11  150.50   27.45
   5  -2 -11  126.53    4.88
   5  -2  11  135.59   35.01
   5   2 -11  139.38   28.10
   5  -2 -11  148.92   32.25
   5  -2 -11  152.16   21.93
  -5   2 -11  173.70   39.80
   5   2  12    9.95    3.73
   5  -2  12   14.72    5.57
   5   2 -12   13.94    5.73
   5  -2 -12   35.32    8.46
   5  -2 -12   16.65    4.80
  -5   2 -12   23.01    8.13
   5   2  13   93.07   16.87
   5  -2  13  111.07   13.11
   5   2 -13  112.55   21.47
   5  -2 -13  111.55   19.16
  -5   2 -13  107.41   19.76
   5   2  14   99.01   22.81
   5  -2  14  105.84   14.97
   5   2 -14  123.83   26.99
   5  -2 -14  108.35   19.25
  -5   2 -14   97.27   16.98
  -5  -2 -14   57.86   18.77
   5   2  15   24.28    8.43
   5  -2  15   14.01    5.68
   5   2 -15   10.26    7.02
   5  -2 -15   23.95    6.06
  -5   2 -15   20.83    6.43
  -5  -2 -15   24.62    8.52
   5   2  16  103.84   12.57
   5  -2  16   81.40   30.62
   5  -2 -16  110.49   28.72
   5  -2 -16  113.25   25.56
  -5   2 -16  110.31   25.04
  -5  -2 -16  111.16   36.94
   5  -2 -17   54.29   13.76
   5  -2 -17   71.48   10.89
  -5   2 -17   67.22   14.15
  -5  -2 -17   70.21   14.46
   5   2 -18   14.58    6.65
   5  -2 -18   30.90    9.80
   5  -2 -18   11.72    4.83
  -5   2 -18   30.10    8.03
  -5  -2 -18   13.17    5.42
   5   2 -19    7.75    3.80
   5  -2 -19    3.91    2.39
   5  -2 -19    3.21    3.04
  -5   2 -19    3.67    2.34
  -5  -2 -19   -1.60    3.03
   5   2 -20   29.92   12.67
   5  -2 -20   22.34    8.79
   5  -2 -20   29.98    7.34
  -5   2 -20   25.46   12.75
  -5  -2 -20   17.99    6.17
  -5   3   0   32.04    5.70
   5   3   0   43.17   10.46
   5   3   0   43.10    9.15
  -5  -3   0   27.28    6.69
   5  -3   0   35.12    7.52
  -5   3   0   29.42    3.86
  -5   3  -1  450.57   23.70
  -5   3   1  442.07   23.57
   5   3   1  482.50   17.45
   5   3   1  463.65   23.77
   5   3  -1  398.43   23.05
  -5  -3  -1  395.31   19.80
   5  -3  -1  453.84   24.25
   5  -3   1  411.96   21.63
  -5   3  -1  449.75   21.03
  -5   3   1  414.76   19.87
  -5   3   2  541.23   18.40
   5   3  -2  541.92   19.56
   5   3   2  453.49   23.72
   5   3   2  461.15   22.45
   5   3  -2  485.86   17.59
  -5  -3  -2  494.39   15.49
   5  -3  -2  442.49   23.69
   5  -3   2  515.48   17.63
  -5   3   2  529.57   16.19
  -5   3  -2  456.73   21.39
  -5   3  -3  860.52   27.38
  -5   3   3  863.81   27.19
   5   3  -3  847.14   26.98
   5   3   3  875.59   29.00
   5   3   3  887.15   25.71
   5   3  -3  859.34   27.47
  -5  -3  -3  832.88   24.72
   5  -3  -3  878.38   29.03
   5  -3   3  838.17   26.33
   5  -3  -3  943.14   27.98
  -5   3   3  820.86   24.48
  -5   3  -3  884.35   24.98
  -5   3   4   69.31   19.80
   5   3  -4   83.73   16.45
   5   3   4   91.41   24.32
   5  -3   4   87.12   19.32
   5   3   4   78.79    4.15
   5   3  -4   88.57   15.81
  -5  -3  -4   67.13    3.38
   5  -3  -4   95.84   20.19
   5  -3  -4   78.40    7.09
  -5   3  -4   72.87    3.65
  -5   3   5  189.97   18.78
   5   3  -5  168.77   15.10
   5   3   5  201.81   31.54
   5  -3   5  156.77   11.14
   5  -3   5  153.89    8.67
   5   3  -5  182.17   20.19
  -5  -3  -5  159.06    7.88
   5  -3  -5  177.44   32.89
   5  -3  -5  172.65   20.03
  -5   3  -5  158.30   10.40
  -5   3   6  599.40   38.89
   5   3  -6  565.75   21.79
   5   3   6  598.25   29.91
   5  -3   6  595.51   24.36
   5   3  -6  582.05   23.52
   5  -3  -6  645.40   26.92
   5  -3  -6  621.87   25.77
  -5   3  -6  631.84   22.23
   5  -3   6  568.41   20.27
  -5   3   7  359.44    8.94
   5   3  -7  368.09    8.09
   5   3   7  435.80   21.01
  -5  -3   7  360.72    7.58
   5  -3   7  352.03   20.53
   5   3  -7  327.71   18.48
   5  -3  -7  388.96   18.47
   5  -3  -7  413.47   17.07
  -5   3  -7  422.47   16.21
  -5   3   8   14.25    3.97
   5  -3  -8    8.75    3.13
   5   3  -8   16.93    4.28
   5   3   8    8.13    6.22
  -5  -3   8    7.42    2.04
   5  -3   8    8.05    4.88
   5   3  -8   22.87    5.65
   5  -3  -8    6.00    8.99
   5  -3  -8    9.88    5.77
  -5   3  -8    9.25    3.65
   5  -3  -9  117.52   10.86
   5   3  -9  140.29   11.02
   5   3   9  152.55   22.74
  -5  -3   9  124.05   11.10
   5  -3   9  158.16   11.40
   5  -3  -9  139.59    8.35
   5   3  -9  145.08   10.65
   5  -3  -9  157.40   27.16
   5  -3  -9  127.01   11.48
  -5   3  -9  164.11    8.86
   5   3 -10   59.99    4.52
   5  -3 -10   47.71    8.16
   5   3  10   64.57   17.67
   5  -3  10   75.05   14.21
  -5  -3  10   48.92    6.96
   5  -3 -10   61.95   14.42
   5   3 -10   64.22   15.78
   5  -3 -10   74.22   19.02
   5  -3 -10   65.02   17.56
  -5   3 -10   80.22   16.17
  -5  -3 -10   62.25   16.07
   5   3 -11   12.91    3.41
   5   3 -11   14.08    3.95
   5  -3 -11   13.80    4.18
   5   3  11   16.84    7.78
   5  -3  11   29.30    9.54
   5  -3 -11   22.27    5.94
   5   3 -11   12.66    7.44
   5  -3 -11   23.86    6.91
   5  -3 -11   23.37    7.66
  -5   3 -11   19.61    6.96
  -5  -3 -11   15.85    6.48
   5   3  12   37.56   11.05
   5  -3 -12   35.12    7.14
   5  -3  12   56.07   10.55
   5   3 -12   51.37   12.52
   5  -3 -12   61.66   14.47
   5  -3 -12   47.34    9.71
  -5   3 -12   41.46    7.69
  -5  -3 -12   57.74   14.84
   5   3  13  138.37   14.15
   5  -3  13  104.81   26.02
   5   3 -13  123.68   24.50
   5  -3 -13  125.22   17.38
  -5   3 -13  161.66   30.19
  -5  -3 -13  126.25   24.78
   5   3  14   71.07   24.72
   5  -3  14   49.90   11.32
   5   3 -14   69.79   20.84
   5  -3 -14   73.33   14.81
  -5   3 -14   65.96   13.29
  -5  -3 -14   55.69   16.00
   5   3  15   71.10   22.15
   5  -3  15   65.77   13.04
   5   3 -15   69.37   12.82
   5  -3 -15   73.05   21.88
   5  -3 -15   57.45   12.57
  -5   3 -15   66.32   16.53
  -5  -3 -15   60.97   17.49
   5   3  16    4.53    2.84
   5  -3  16    6.61    3.00
   5   3 -16    8.32    3.52
   5  -3 -16   11.57    3.71
   5  -3 -16    7.28    5.77
  -5   3 -16   16.52    4.49
  -5  -3 -16   10.89    5.61
   5  -3 -17   14.95    6.28
   5  -3 -17   -1.80    5.24
  -5   3 -17   18.26    6.66
  -5  -3 -17   -0.36    5.05
   5  -3 -18   72.28   23.20
   5  -3 -18   84.86   17.53
  -5   3 -18   75.41   14.26
  -5  -3 -18   65.43   21.95
   5   3 -19   49.95   19.15
   5  -3 -19   39.36   11.98
   5  -3 -19   62.08   12.82
  -5   3 -19   51.19   19.72
  -5  -3 -19   43.16   17.01
  -5   4   0 1605.75   47.91
   5   4   0 1623.69   48.64
   5   4   0 1556.90   45.96
   5  -4   0 1579.36   47.39
  -5   4   0 1549.14   42.60
  -5   4  -1  304.07   17.18
  -5   4   1  335.84   18.73
   5   4   1  298.25   17.59
   5   4   1  285.34   15.01
   5   4  -1  304.38   16.34
   5  -4  -1  283.50   16.94
   5  -4   1  343.83   18.98
  -5   4   1  305.18   14.77
  -5   4   2  781.47   25.34
   5   4   2  759.98   30.31
   5   4   2  824.39   26.27
   5   4  -2  753.98   27.41
  -5  -4  -2  799.42   24.00
   5  -4  -2  780.95   28.58
   5  -4   2  809.54   26.41
   5  -4  -2  837.75   24.79
  -5   4   2  816.79   23.85
  -5   4  -3   33.80   10.28
  -5   4   3   48.62   11.97
   5   4  -3   62.09   15.76
   5   4   3   50.99   10.55
   5   4   3   47.29    8.93
   5   4  -3   58.71   11.45
  -5  -4  -3   46.92   10.67
   5  -4  -3   55.89   15.18
   5  -4  -3   47.56    7.21
  -5   4   3   47.92    4.89
  -5   4  -4  428.77   18.15
  -5   4   4  397.98   28.65
   5   4  -4  384.21   16.38
   5   4   4  391.40   20.54
   5   4   4  425.97   15.22
   5   4  -4  380.93   16.39
  -5  -4  -4  384.16   14.59
   5  -4  -4  385.76   17.19
  -5   4  -4  400.55   13.70
   5  -4  -4  419.38   16.70
  -5   4   5  471.85   25.23
   5   4  -5  488.77   18.94
   5   4   5  481.68   21.14
   5   4  -5  474.33   19.80
  -5  -4  -5  455.53   16.04
  -5   4  -5  459.73   16.03
   5  -4  -5  494.10   18.81
   5  -4   5  473.01   16.98
  -5   4   6  727.75   26.43
   5   4  -6  719.70   26.22
   5   4   6  693.77   27.45
   5   4  -6  665.67   26.05
  -5  -4  -6  703.25   23.35
   5  -4  -6  690.96   28.33
   5  -4  -6  679.19   25.27
  -5   4  -6  652.33   22.75
   5  -4   6  697.39   24.24
  -5  -4  -6  668.99   25.71
  -5   4   7  362.73   15.90
   5   4  -7  358.36   16.13
   5   4   7  384.94   44.86
   5  -4   7  365.53   17.60
   5   4  -7  335.16   17.04
  -5  -4  -7  337.29   12.15
   5  -4  -7  351.37   19.72
  -5  -4  -7  351.78   12.70
   5  -4  -7  356.39   16.36
  -5   4  -7  357.43   15.00
  -5  -4  -7  349.98   16.63
  -5   4   8  155.58   13.26
   5   4  -8  141.38    7.49
   5   4   8  155.81   27.74
   5  -4   8  126.26   11.72
   5   4  -8  161.42   36.61
   5  -4  -8  123.78   24.81
   5  -4  -8  143.63   12.78
  -5   4  -8  134.75   16.12
  -5  -4  -8  150.64   27.24
  -5   4   9    3.04    2.31
   5   4  -9    4.09    2.06
   5   4   9   15.18    6.59
  -5  -4   9    4.34    2.22
   5  -4   9    7.37    3.25
   5   4  -9    8.61    8.43
   5  -4  -9   10.98    7.82
   5  -4  -9    3.65    2.88
  -5   4  -9    1.70    1.52
  -5  -4  -9    9.01    3.53
  -5   4  10  239.97   13.76
   5   4 -10  257.99   11.72
   5   4  10  244.08   37.65
  -5  -4  10  221.68    9.12
   5  -4  10  222.34   15.85
   5   4 -10  229.09   16.26
   5  -4 -10  276.12   39.70
  -5   4 -10  267.34   12.95
   5  -4 -10  249.47   20.44
  -5  -4 -10  278.33   45.35
  -5   4  11  278.01    9.34
   5   4 -11  295.27    8.57
   5   4  11  297.51   26.45
   5  -4  11  284.51   13.76
   5   4 -11  309.70   15.38
   5  -4 -11  261.72   16.41
  -5   4 -11  330.36   15.38
   5  -4 -11  277.36   25.91
  -5  -4 -11  299.70   44.83
   5   4 -12   52.10    6.36
   5   4  12   71.42   14.49
   5  -4  12   60.21   14.29
   5  -4 -12   56.09    8.45
   5   4 -12   70.51   17.13
   5  -4 -12   42.94   13.47
  -5   4 -12   75.85   14.33
   5  -4 -12   62.54   15.43
  -5  -4 -12   63.37   16.40
   5   4  13   45.80    9.16
   5  -4  13   52.81   14.38
   5   4 -13   57.44   10.99
  -5   4 -13   48.84   11.60
   5  -4 -13   66.14   11.28
  -5  -4 -13   59.43   13.05
   5  -4  14   44.39   14.52
   5   4 -14   41.17   12.26
  -5   4 -14   57.66    8.99
   5  -4 -14   42.82   10.02
  -5  -4 -14   50.56   15.69
   5   4  15   11.61    4.03
   5  -4  15   17.18    7.47
   5   4 -15   22.00    8.68
   5  -4 -15   14.65    5.80
  -5   4 -15    9.52    4.84
   5  -4 -15   15.21    7.02
  -5  -4 -15   24.77    8.42
   5   4  16   14.31    6.68
   5  -4  16   11.02    5.47
   5   4 -16   28.26    7.54
   5  -4 -16   30.44    8.13
  -5   4 -16    4.84    4.70
   5  -4 -16   27.08    7.29
  -5  -4 -16   16.78    5.34
   5   4 -17   -0.74    4.54
   5  -4 -17   29.23   10.61
  -5   4 -17   20.29    6.80
   5  -4 -17   39.01    8.29
  -5  -4 -17   37.72    9.26
   5  -4 -18   30.32   10.13
  -5   4 -18   39.39   13.37
   5  -4 -18   44.16   11.01
  -5  -4 -18   44.68   17.31
   5   4 -19   10.86    6.80
   5  -4 -19   12.99    6.63
  -5   4 -19   18.57    5.42
   5  -4 -19   20.05    8.55
  -5  -4 -19    9.98    4.97
  -5   5   0  118.46    7.58
   5   5   0  143.23   27.30
   5   5   0  123.05   21.58
   5  -5   0  133.09   27.16
  -5   5  -1  576.92   20.46
  -5   5   1  563.47   20.28
   5   5  -1  572.19   21.23
   5   5   1  542.54   20.54
   5   5   1  574.67   18.96
   5   5  -1  573.23   19.43
   5  -5  -1  570.76   20.36
   5  -5   1  549.97   19.38
   5  -5  -1  581.19   16.87
  -5   5  -2   92.53   17.73
  -5   5   2   62.90   11.94
   5   5   2   89.43   23.00
   5   5   2   81.18    9.33
   5   5  -2   86.67   18.46
   5  -5  -2   90.91   21.36
   5  -5  -2   85.99    3.53
  -5   5   2   78.59   10.07
  -5   5  -3  985.05   35.98
  -5   5   3  954.94   34.14
   5   5  -3  995.33   36.08
   5   5   3  966.25   35.79
   5   5   3  992.50   33.92
   5   5  -3  942.65   36.70
  -5  -5  -3  918.35   31.48
   5  -5  -3  918.63   34.43
   5  -5  -3  969.92   33.00
  -5   5   3  924.50   32.76
  -5   5  -4   74.45   17.71
  -5   5   4   78.50   14.89
   5   5  -4   70.78   17.52
   5   5   4   96.79   23.74
   5   5  -4   78.11   17.97
  -5  -5  -4   59.30    5.79
   5  -5  -4   73.84   15.92
   5  -5  -4   77.34    7.51
  -5   5  -5  139.57   11.60
  -5   5   5  140.10   13.99
   5   5  -5  137.90    9.67
   5   5   5  166.38   21.13
   5   5  -5  151.91   27.91
  -5  -5  -5  117.54    7.42
   5  -5  -5  167.78   36.34
   5  -5  -5  140.24   12.41
   5  -5   5  144.39    7.65
  -5   5   6   73.76   11.48
   5   5  -6   79.79   15.81
   5   5   6   68.25   14.49
   5   5  -6   67.32   15.97
  -5  -5  -6   57.72    5.93
   5  -5  -6   53.44   14.10
   5  -5  -6   74.85   17.13
   5  -5   6   59.36    6.63
  -5  -5  -6   76.63   19.92
  -5   5  -7   40.34    9.36
  -5   5   7   18.89    5.63
   5   5  -7   31.25    7.85
   5   5   7   48.61    9.27
  -5  -5  -7   17.00    3.88
   5   5  -7   24.81    4.74
   5  -5  -7   39.92   12.51
  -5  -5  -7   23.08    5.59
  -5   5  -7   38.66    9.01
   5  -5  -7   39.48    7.92
   5  -5   7   13.98    3.69
  -5  -5  -7   22.91    7.05
  -5   5  -8   53.35   11.43
  -5   5   8   55.88    9.44
   5   5  -8   56.03   16.40
   5   5   8   59.96   14.52
  -5  -5  -8   47.92    5.81
   5   5  -8   77.81   15.50
   5  -5  -8   46.09   10.58
  -5  -5  -8   54.99    6.76
  -5   5  -8   46.49   12.52
   5  -5  -8   60.28   17.39
  -5  -5  -8   66.21   18.83
  -5   5   9  557.35   20.84
   5   5  -9  518.25   19.12
   5   5   9  529.77   23.27
   5  -5   9  512.87   21.65
  -5  -5  -9  479.10   15.59
   5   5  -9  527.65   23.33
  -5  -5  -9  518.19   16.97
   5  -5  -9  518.72   24.10
  -5   5  -9  506.55   19.10
   5  -5  -9  539.11   21.99
  -5  -5  -9  527.91   24.02
  -5   5  10   12.14    3.56
   5   5 -10    7.28    4.52
   5   5  10   13.68    5.71
   5  -5  10    7.35    2.78
  -5  -5 -10    2.94    0.84
   5   5 -10    9.24    4.84
  -5  -5 -10    3.84    1.16
   5  -5 -10   10.00    5.05
  -5   5 -10    6.28    6.03
   5  -5 -10    9.18    3.11
  -5  -5 -10   15.93    6.53
  -5   5  11  135.13   10.16
   5   5 -11  121.86    8.00
   5   5  11  129.49   36.97
   5  -5  11  117.27   26.25
   5   5 -11  121.72   21.19
   5  -5 -11  141.74   29.51
  -5   5 -11  116.20   16.04
   5  -5 -11  118.30   24.35
  -5  -5 -11  138.21   23.78
  -5   5  12   35.90    9.46
   5   5 -12   26.04    8.04
   5   5  12   41.57   11.30
   5  -5  12   42.17   13.90
   5   5 -12   43.88    9.75
  -5   5 -12   47.92   14.28
   5  -5 -12   48.21   10.35
  -5  -5 -12   38.12   10.81
   5   5  13   77.45   24.17
   5  -5  13  101.56   13.12
   5   5 -13   92.71   21.63
  -5   5 -13   98.40   22.78
   5  -5 -13   87.38   12.81
  -5  -5 -13   89.05   21.44
   5   5  14    9.04    4.30
   5  -5  14    0.48    3.76
   5   5 -14   13.67    6.24
  -5   5 -14    1.61    2.27
   5  -5 -14   -2.81    5.60
  -5  -5 -14   13.26    7.46
   5   5  15   98.58   30.65
   5  -5  15  125.74   17.80
   5   5 -15  105.77   31.05
   5  -5 -15  121.42   32.36
  -5   5 -15  105.66   21.81
   5  -5 -15  127.76   15.04
  -5  -5 -15  119.27   30.93
   5   5  16   69.98   24.41
   5  -5  16   85.55   17.86
   5   5 -16   81.37   28.43
   5  -5 -16   76.92   24.00
  -5   5 -16   77.19   26.72
   5  -5 -16   87.98   23.29
  -5  -5 -16   96.89   37.46
   5   5 -17   10.16    5.22
   5  -5 -17   22.64    9.54
  -5   5 -17   29.05    7.30
   5  -5 -17   10.26    8.23
  -5  -5 -17   17.03    6.96
   5  -5 -18    4.70    3.19
  -5   5 -18    6.77    2.94
   5  -5 -18    6.63    4.59
  -5  -5 -18    4.06    5.24
   5  -5 -19   11.34    5.80
  -5   5 -19   14.33    4.69
   5  -5 -19    3.11    5.24
  -5  -5 -19    7.19    6.48
  -5   6   0  757.44   28.85
   5   6   0  741.05   29.56
   5   6   0  761.24   46.60
   5  -6   0  732.36   36.19
   5  -6   0  733.94   23.93
  -5   6  -1  132.73   14.68
  -5   6   1  181.67   20.82
   5   6  -1  182.72   11.96
   5   6   1  172.88   33.20
   5   6   1  161.67   15.40
   5   6  -1  221.65   25.32
   5  -6  -1  140.00   26.46
   5  -6   1  215.34   13.92
   5  -6  -1  159.22    8.08
  -5   6  -2   66.33   15.60
  -5   6   2   75.76   14.76
   5   6   2   78.72   20.47
   5   6   2   62.16    8.96
   5   6  -2   80.40   16.42
   5  -6  -2   73.53   16.96
   5  -6  -2   68.96    7.25
  -5   6  -3  232.23   17.97
  -5   6   3  246.83   14.69
   5   6  -3  231.58   14.96
   5   6   3  228.72   14.85
   5   6   3  241.25   14.71
   5   6  -3  236.50   15.53
   5  -6  -3  228.66   15.76
   5  -6  -3  244.90   12.81
  -5   6   3  213.61   14.41
  -5   6  -4  325.64   18.41
  -5   6   4  360.20   22.31
   5   6  -4  342.86   19.45
   5   6   4  362.62   13.53
   5   6  -4  296.83   16.71
   5  -6  -4  334.13   20.57
   5  -6  -4  357.21    9.97
   5  -6   4  336.39   15.73
  -5   6  -5  277.41   11.80
  -5   6   5  304.82   25.20
   5   6  -5  265.60   13.22
   5   6   5  276.70   16.27
  -5  -6  -5  233.29   10.15
   5  -6  -5  261.94   49.53
   5  -6  -5  285.48    8.84
   5  -6   5  263.75    9.72
  -5   6   6   51.19   13.55
   5   6  -6   85.38   17.28
   5   6   6   70.58   14.12
   5   6  -6   68.26   10.18
  -5  -6  -6   47.64    7.81
   5  -6  -6   55.41   11.58
   5  -6  -6   51.01   13.66
   5  -6   6   51.82    6.33
  -5   6   7  136.10   27.18
   5   6  -7  123.90   22.28
   5   6   7  126.83   13.58
  -5  -6  -7   97.49    6.47
   5   6  -7  125.20   29.92
   5  -6  -7  130.69   27.43
  -5  -6  -7  120.48   14.76
   5  -6  -7  151.14   16.73
  -5  -6  -7  154.44   34.26
  -5   6   8  179.69   24.06
   5   6  -8  172.86   26.76
   5   6   8  181.77   31.72
  -5  -6  -8  148.20    4.87
   5   6  -8  184.07   42.33
   5  -6  -8  169.64   44.61
  -5  -6  -8  176.02   13.64
   5  -6  -8  155.58    9.35
  -5  -6  -8  212.62   39.05
  -5   6  -9   14.32    5.38
  -5   6   9   18.50    6.87
   5   6  -9    7.84    3.11
   5   6   9   12.07    4.49
  -5  -6  -9    8.03    1.85
   5   6  -9   10.96    5.08
   5  -6  -9   -0.33    7.84
  -5  -6  -9    8.08    2.69
   5  -6  -9    7.81    3.09
  -5  -6  -9   14.34    9.58
  -5   6  10   67.86   16.25
   5   6 -10   56.29   10.62
   5   6  10   39.07   14.04
  -5  -6 -10   39.28    5.05
   5   6 -10   60.47    9.43
  -5  -6 -10   52.38    9.05
   5  -6 -10   68.28   12.23
   5  -6 -10   50.95    9.10
  -5  -6 -10   58.65   20.99
  -5   6  11   62.64   14.40
   5   6 -11   59.00   14.75
   5   6  11   83.13   13.57
   5  -6  11   65.70   16.52
   5   6 -11   66.10   10.75
  -5  -6 -11   60.17    4.85
   5  -6 -11   93.15   17.47
  -5   6 -11   87.24   18.50
   5  -6 -11   82.97   18.02
  -5  -6 -11   76.94   19.26
  -5   6  12   80.81   10.07
   5   6 -12   67.98   11.72
   5   6  12   82.62   13.58
   5  -6  12   68.73   15.42
   5   6 -12   74.25   17.90
  -5   6 -12   60.48   13.29
   5  -6 -12   58.55    9.04
  -5  -6 -12   77.99   16.96
  -5   6  13   32.65    9.79
   5   6  13   39.99   16.26
   5  -6  13   42.36   10.16
   5   6 -13   39.16   11.93
  -5   6 -13   43.27   12.35
   5  -6 -13   40.83    7.69
  -5  -6 -13   38.32    7.86
   5   6  14   15.30    4.24
   5  -6  14   21.24    8.41
   5   6 -14   19.26    4.15
   5  -6 -14   20.95    5.96
  -5   6 -14   18.04    4.74
   5  -6 -14   11.18    7.78
  -5  -6 -14   21.51    6.01
   5   6  15   29.68   11.74
   5  -6  15   42.05   12.57
   5   6 -15   41.86   18.88
   5  -6 -15   38.58    9.26
  -5   6 -15   38.33    9.84
   5  -6 -15   43.88    9.90
  -5  -6 -15   42.43   11.02
   5   6  16   96.51   17.29
   5  -6  16   57.80   17.80
   5   6 -16   56.38   18.25
   5  -6 -16   69.10   18.94
  -5   6 -16   90.74   17.25
   5  -6 -16   85.79   29.75
  -5  -6 -16   84.56   23.48
   5   6 -17   69.13   24.84
   5  -6 -17   72.33   18.61
   5  -6 -17   74.03   17.10
  -5  -6 -17   69.67   18.40
   5   6 -18   12.44    5.06
   5  -6 -18    6.58    4.60
   5  -6 -18    8.23    2.71
   5  -6 -19   11.33    4.34
   5  -6 -19    9.60    4.38
  -5  -6 -19   13.62    5.54
  -5   7   0   -3.84    5.33
   5   7   0   -1.45    6.79
   5   7   0    2.60    2.25
   5  -7   0    6.33    6.38
   5  -7   0    1.44    1.16
  -5   7  -1  300.34   15.11
  -5   7   1  321.03   16.15
   5   7  -1  331.53   30.08
   5   7   1  314.74   17.78
   5   7   1  334.62   24.00
   5   7  -1  344.22   15.79
   5  -7  -1  351.02   19.47
   5  -7  -1  335.82   13.01
  -5   7  -2   34.48   16.42
  -5   7   2   48.17   12.33
   5   7   2   53.40   12.50
   5   7   2   51.99    8.07
   5   7  -2   53.60   11.47
   5  -7  -2   58.09   12.55
   5  -7  -2   48.34    9.04
  -5   7  -3  218.42   32.04
  -5   7   3  216.87   11.60
   5   7   3  197.89   12.36
   5   7   3  248.24   13.82
   5   7  -3  270.41   34.09
   5  -7  -3  235.89   26.74
   5  -7  -3  227.91    9.56
  -5   7  -4  328.26   22.59
  -5   7   4  324.73   16.36
   5   7  -4  310.90   27.30
   5   7   4  350.57   17.96
   5   7  -4  331.62   17.12
   5  -7  -4  268.58   24.25
   5  -7  -4  321.37   13.73
   5  -7   4  324.23   11.97
  -5   7  -5   68.11   21.30
  -5   7   5   78.77   12.39
   5   7  -5   87.70   16.57
   5   7   5   87.75   16.99
   5   7  -5   94.80   21.32
   5  -7  -5   98.84   17.89
   5  -7  -5   78.45   17.82
   5  -7   5   67.79    3.29
  -5   7  -6    5.17    5.42
  -5   7   6    8.54    2.90
   5   7  -6    6.98    3.66
   5   7   6   12.85    8.69
   5   7  -6   22.85    6.91
   5  -7  -6    8.74    5.92
   5  -7  -6   14.26    3.91
   5  -7   6    9.50    2.12
  -5   7   7  321.04   14.58
   5   7  -7  361.98   15.98
   5   7   7  361.96   36.42
   5   7  -7  354.31   17.98
   5  -7  -7  348.37   46.69
   5  -7  -7  355.06   15.67
   5  -7   7  318.56   12.02
  -5  -7  -7  347.08   18.61
  -5   7   8  173.03   29.15
   5   7  -8  147.57   22.23
   5   7   8  158.69   15.78
  -5  -7  -8  105.45    3.96
   5   7  -8  132.47   20.58
   5  -7  -8  153.00   33.03
  -5  -7  -8  141.94   14.88
   5  -7  -8  142.52   14.19
  -5  -7  -8  145.48   31.39
  -5   7  -9  196.26   44.01
  -5   7   9  164.81   31.54
   5   7  -9  192.14    9.25
   5   7   9  183.47   31.08
   5   7  -9  176.93   29.14
   5  -7  -9  175.37   49.15
  -5  -7  -9  156.40    6.56
   5  -7  -9  186.86   34.53
  -5  -7  -9  205.06   22.24
  -5   7 -10  121.14   32.21
  -5   7  10  111.06   18.03
   5   7 -10  112.89    6.35
   5   7  10  104.92   23.55
   5   7 -10   99.54   22.88
   5  -7 -10  123.15   21.21
  -5  -7 -10  104.24    8.96
   5  -7 -10  111.90   14.35
  -5  -7 -10  126.63   32.95
  -5   7 -11    6.79    4.88
  -5   7  11    4.80    2.74
   5   7 -11   10.80    3.24
   5   7  11    5.98    3.50
   5   7 -11   11.82    4.45
  -5  -7 -11    6.18    2.71
   5  -7 -11    7.99    6.16
   5  -7 -11    5.54    3.20
  -5  -7 -11   18.57    9.42
  -5   7  12   11.96    3.26
   5   7 -12    4.54    3.36
   5   7  12    9.21    3.06
   5  -7  12    4.66    2.88
   5   7 -12   12.76    6.28
   5  -7 -12    7.72    3.03
  -5  -7 -12   20.13    8.61
  -5   7  13  171.02   10.95
   5   7  13  158.73   34.71
   5  -7  13  171.10   22.19
   5   7 -13  206.85   37.03
   5  -7 -13  174.73   22.70
  -5  -7 -13  185.85   47.86
   5   7  14    4.56    3.21
   5  -7  14    3.36    4.53
   5   7 -14    4.62    3.55
   5  -7 -14    8.60    4.24
   5  -7 -14   11.36    4.75
  -5  -7 -14    3.98    4.95
   5   7  15   78.69   15.94
   5  -7  15   50.00   21.13
   5   7 -15   71.02   15.28
   5  -7 -15   82.14   21.46
   5  -7 -15   63.23   14.90
  -5  -7 -15   65.89   20.26
   5   7  16   27.47   12.37
   5  -7  16   21.66    8.98
   5   7 -16   41.55   11.19
   5  -7 -16   25.06   10.70
   5  -7 -16   26.66    9.98
  -5  -7 -16   32.05   20.40
   5   7 -17    4.93    3.89
   5  -7 -17   -1.59    5.64
   5  -7 -17   13.57    6.19
  -5  -7 -17    9.97    4.12
   5   7 -18    8.05    3.95
   5  -7 -18    5.50    4.69
   5  -7 -18    2.92    8.62
  -5  -7 -18   -1.10    6.57
  -5   8   0  230.93   26.52
   5   8   0  226.95   22.75
   5   8   0  191.18   12.54
   5  -8   0  212.26    7.72
  -5   8  -1  104.87   16.52
  -5   8   1  121.76   28.97
   5   8  -1  136.39   26.21
   5   8   1  125.95   25.87
   5   8   1  122.52   21.86
   5   8  -1   91.17    7.95
   5  -8  -1  138.57   29.37
   5  -8  -1  120.30   10.73
   5  -8   1   91.48    3.68
  -5   8  -2   78.09   14.56
  -5   8   2   66.97   14.26
   5   8  -2   71.00   13.31
   5   8   2   59.49   13.17
   5   8   2   69.20   17.06
   5   8  -2   68.53   14.95
   5  -8  -2   67.60   14.71
   5  -8   2   62.58    2.96
   5  -8  -2   67.41    8.48
   5  -8   2   60.51    1.77
  -5   8  -3    9.92    5.89
  -5   8   3   10.44    4.02
   5   8   3   10.77    8.31
   5   8  -3   16.36    7.64
   5  -8  -3   11.68    8.91
   5  -8   3    2.88    0.93
   5  -8  -3    5.88    2.36
   5  -8   3    3.79    0.90
  -5   8  -4    3.42    4.10
  -5   8   4   -1.72    5.31
   5   8  -4    9.34    4.44
   5   8   4   -3.29    8.55
   5   8  -4   -0.49    2.92
   5  -8  -4   -1.72    9.81
   5  -8   4    2.00    1.33
  -5   8  -5  312.93   29.46
  -5   8   5  355.19   16.36
   5   8  -5  344.84   16.19
   5   8   5  329.33   31.06
   5   8  -5  325.95   15.72
   5  -8  -5  361.03   57.80
   5  -8  -5  294.01   12.42
   5  -8   5  327.62   14.87
  -5   8  -6  152.05   35.30
  -5   8   6  130.30   10.36
   5   8  -6  136.92   21.47
   5   8   6  162.39   33.24
   5   8  -6  130.58   26.52
   5  -8  -6  172.85   46.66
   5  -8  -6  143.00   16.20
   5  -8   6  110.37   10.98
  -5   8   7  272.73   22.24
   5   8  -7  255.90   13.42
   5   8   7  277.73   35.19
   5   8  -7  224.36   37.01
   5  -8  -7  267.49   43.33
   5  -8  -7  242.18   22.54
  -5  -8  -7  219.27   42.71
  -5   8  -8   22.76    9.43
  -5   8   8   28.41    9.20
   5   8  -8   29.04    8.76
   5   8   8   25.45    9.95
   5   8  -8   14.82    6.25
   5  -8  -8   30.89    9.33
  -5  -8  -8   22.76    8.97
   5  -8  -8   22.79    5.24
  -5  -8  -8   21.36    8.95
  -5   8  -9   16.67    5.58
  -5   8   9   25.70    9.37
   5   8  -9   31.93    7.09
   5   8   9   17.96    7.10
   5   8  -9   43.73    8.55
   5  -8  -9   27.75   10.31
  -5  -8  -9   18.45    7.40
   5  -8  -9   17.10    5.78
  -5  -8  -9   20.22    5.32
  -5   8 -10  100.01   28.23
  -5   8  10   95.77   19.83
   5   8 -10  100.12   23.34
   5   8  10   94.25   26.12
   5   8 -10  119.21   33.60
   5  -8 -10   94.56   24.14
  -5  -8 -10  100.02   14.57
   5  -8 -10  102.70   26.21
  -5  -8 -10  118.56   22.19
  -5   8 -11  143.79   39.59
  -5   8  11  167.91   10.59
   5   8 -11  158.91   23.80
   5   8  11  177.70   19.56
   5   8 -11  170.32   30.96
   5  -8 -11  129.91   50.73
  -5  -8 -11  137.95    5.47
   5  -8 -11  186.48   25.68
  -5  -8 -11  169.11   33.14
  -5   8 -12   63.24   16.74
  -5   8  12   73.97   13.39
   5   8 -12   63.04   21.98
   5   8  12   53.26   11.86
   5   8 -12   68.40   21.25
   5  -8 -12   69.86   12.93
  -5  -8 -12   64.85   14.85
  -5   8  13   11.95    4.65
   5   8  13   16.59    6.84
   5  -8  13   11.07    3.77
   5   8 -13    8.56    5.26
   5  -8 -13   20.22    4.77
  -5  -8 -13    7.41    4.07
   5   8  14   10.50    6.94
   5  -8  14    5.17    3.48
   5   8 -14    8.88    4.28
   5  -8 -14   17.05   11.67
   5  -8 -14   19.52    4.86
  -5  -8 -14   21.33    8.54
   5   8  15    6.42    3.03
   5  -8  15    7.11    2.76
   5   8 -15    0.88    3.89
   5  -8 -15    8.42    5.21
   5  -8 -15    7.50    7.64
  -5  -8 -15   11.66    7.91
   5   8  16   12.38    9.95
   5  -8  16   12.97    3.85
   5   8 -16   13.98    6.94
   5  -8 -16    9.83    4.07
   5  -8 -16    8.41    4.70
  -5  -8 -16   32.97    8.77
   5   8 -17   32.16   14.27
   5  -8 -17   33.52    8.19
   5  -8 -17   24.92    9.37
  -5  -8 -17   32.38   10.46
   5   8 -18   15.48    5.11
   5  -8 -18   12.90    4.53
   5  -8 -18   18.69    6.64
  -5  -8 -18   22.93    9.21
  -5   9   0   -1.15    6.46
   5   9   0   25.32    8.48
   5   9   0    2.89    2.80
   5  -9   0    5.79    2.10
  -5   9  -1   97.56   21.31
  -5   9   1  138.92   34.44
   5   9  -1  106.17   25.75
   5   9   1  117.71   25.32
   5   9   1   82.96   13.04
   5   9  -1  113.68   15.03
   5  -9  -1   97.77   19.37
   5  -9  -1   83.21    9.67
   5  -9   1  101.39    6.74
  -5   9  -2  277.47   15.01
  -5   9   2  286.27   24.66
   5   9  -2  266.00   14.61
   5   9   2  277.27   17.63
   5   9  -2  259.20   21.79
   5  -9  -2  257.21   32.94
   5  -9   2  224.43   10.11
   5  -9  -2  269.30   10.74
   5  -9   2  246.17    9.86
  -5   9  -3  450.94   20.80
  -5   9   3  408.17   20.89
   5   9   3  472.72   22.62
   5   9  -3  412.84   25.51
   5  -9  -3  481.32   23.33
   5  -9   3  384.37   12.96
   5  -9  -3  448.93   17.09
  -5   9  -4    8.65    8.92
  -5   9   4   16.40    4.92
   5   9  -4    5.28    3.06
   5   9   4    9.06    6.19
   5   9  -4   19.14    5.99
   5  -9  -4   11.77    6.45
   5  -9   4    6.65    1.60
   5  -9  -4   14.49    5.27
  -5   9  -5    6.75    3.78
  -5   9   5    7.00    4.91
   5   9  -5   10.04    4.61
   5   9   5   11.72    4.59
   5   9  -5    8.03    7.50
   5  -9  -5   15.42    5.75
   5  -9   5    6.14    1.66
   5  -9  -5    7.77    5.03
  -5   9  -6  174.39   31.17
  -5   9   6  188.17   16.45
   5   9  -6  179.22   39.76
   5   9   6  182.17   26.63
   5   9  -6  156.66   31.27
   5  -9  -6  186.90   43.56
   5  -9  -6  158.91    8.84
  -5   9   7   84.99   14.62
   5   9  -7   79.20   18.68
   5   9   7   70.72   14.65
   5   9  -7   70.36   15.31
   5  -9  -7   70.31   18.37
   5  -9  -7   81.20   12.83
  -5  -9  -7   96.51   16.45
  -5   9   8   29.94    6.80
   5   9  -8   33.16    6.64
   5   9   8   34.32    7.44
   5   9  -8   22.78   10.59
   5  -9  -8   34.07    8.51
  -5  -9  -8   23.75    6.50
   5  -9  -8   37.65    9.04
  -5  -9  -8   25.77    9.22
  -5   9  -9   44.26    9.06
  -5   9   9   40.02   13.96
   5   9  -9   41.27   11.37
   5   9   9   45.08   13.69
   5   9  -9   41.70   10.30
   5  -9  -9   31.62    7.90
  -5  -9  -9   33.77   10.26
   5  -9  -9   36.81   14.33
  -5  -9  -9   42.29   11.33
  -5   9 -10  216.38   18.04
  -5   9  10  230.78   22.13
   5   9 -10  231.92    9.62
   5   9  10  230.33   28.73
   5   9 -10  208.63   27.04
   5  -9 -10  184.01   43.56
  -5  -9 -10  184.94   12.05
   5  -9 -10  261.86   29.20
  -5  -9 -10  240.46   27.93
  -5   9 -11   47.58   11.25
  -5   9  11   33.13   18.51
   5   9 -11   34.00   10.49
   5   9  11   45.66   15.27
   5   9 -11   39.72   14.89
   5  -9 -11   44.99    8.05
   5  -9 -11   54.53   14.32
  -5  -9 -11   35.83   11.52
  -5   9 -12   14.71    4.11
  -5   9  12    9.81    6.84
   5   9 -12   13.72    4.86
   5   9  12    6.13    3.25
   5   9 -12   14.08    9.81
   5  -9 -12   16.80    3.40
  -5  -9 -12   15.45    8.37
  -5   9 -13   42.47    9.70
  -5   9  13   31.43   11.15
   5   9  13   33.10    8.38
   5   9 -13   45.73   14.57
   5  -9 -13   42.09   12.79
  -5  -9 -13   40.93   13.51
   5   9  14   48.83   15.11
   5  -9  14   35.09   14.44
   5   9 -14   67.64   17.71
   5  -9 -14   55.11    9.06
   5  -9 -14   79.52   17.19
  -5  -9 -14   69.61   22.08
   5   9  15   54.88   24.44
   5  -9  15   66.30   21.89
   5   9 -15   79.46   19.01
   5  -9 -15   81.11   22.47
   5  -9 -15   84.39   27.44
  -5  -9 -15   77.48   23.11
   5   9  16    2.69    3.43
   5   9 -16    6.66    8.75
   5  -9 -16    7.56    7.31
   5  -9 -16   10.47    5.16
  -5  -9 -16    3.44    6.87
   5   9 -17   11.55    6.24
   5  -9 -17    2.44    3.84
   5  -9 -17   15.80    6.76
  -5  -9 -17   10.68    5.43
  -5  10   0   51.08   13.65
   5  10   0   39.45   10.23
   5  10   0   48.79   12.84
   5 -10   0   32.65    8.48
  -5  10  -1  448.41   21.70
  -5  10   1  404.54   19.92
   5  10  -1  405.06   34.25
   5  10   1  417.76   20.96
   5  10   1  459.72   52.21
   5  10  -1  396.23   39.09
   5 -10  -1  418.79   33.16
   5 -10  -1  383.34   16.18
   5 -10   1  392.03   14.06
  -5  10  -2  107.88   21.84
  -5  10   2  140.89   24.57
   5  10  -2  137.14   33.78
   5  10   2   98.59   27.14
   5  10  -2  133.21   30.76
   5 -10  -2  119.02   23.96
   5 -10  -2   99.24   14.23
   5 -10   2  128.39    4.21
  -5  10  -3  214.00   39.26
  -5  10   3  268.29   36.56
   5  10   3  240.94   17.11
   5  10  -3  241.74   29.23
   5 -10  -3  210.54   48.11
   5 -10   3  181.84    8.89
   5 -10  -3  204.63   13.48
  -5  10  -4   95.01   24.62
  -5  10   4   75.21   15.29
   5  10   4   94.96   20.39
   5  10  -4   88.11   15.55
   5 -10  -4   78.97   15.23
   5 -10  -4   81.09   16.99
  -5  10  -5  301.87   49.54
  -5  10   5  345.74   24.65
   5  10  -5  280.15   16.21
   5  10   5  334.94   37.29
   5  10  -5  294.07   27.64
   5 -10  -5  288.81   59.55
   5 -10  -5  303.32   26.19
  -5  10  -6   56.48    8.93
  -5  10   6   65.40   13.25
   5  10  -6   88.30   19.35
   5  10   6   56.46   13.46
   5  10  -6   59.93   19.03
   5 -10  -6   59.61   20.09
   5 -10  -6   71.89   14.02
  -5  10  -7  222.12   36.40
  -5  10   7  237.89   26.28
   5  10  -7  238.35   11.11
   5  10   7  215.97   33.61
   5  10  -7  233.17   35.81
   5 -10  -7  190.57   50.71
   5 -10  -7  236.65   28.15
  -5 -10  -7  223.83   34.22
  -5  10   8   40.83    7.75
   5  10  -8   39.86   12.17
   5  10   8   38.69    8.80
   5  10  -8   50.12    9.48
   5 -10  -8   34.50   16.46
   5 -10  -8   34.87    7.83
  -5 -10  -8   37.78   13.35
  -5  10  -9   30.89    8.18
  -5  10   9   15.41    6.47
   5  10  -9   27.23    6.60
   5  10   9   31.90    5.66
   5  10  -9   36.89    8.90
   5 -10  -9   65.38   15.91
  -5 -10  -9   17.63    8.30
   5 -10  -9   33.89    9.45
  -5 -10  -9   26.13    5.72
  -5  10 -10  104.25   24.79
  -5  10  10   88.08   21.45
   5  10 -10   86.36   14.81
   5  10  10   86.91   15.05
   5  10 -10   86.44   19.82
   5 -10 -10   85.30   16.02
  -5 -10 -10   67.18   23.16
   5 -10 -10   78.10   17.69
  -5 -10 -10  107.36   22.14
  -5  10 -11  260.05   52.45
  -5  10  11  288.89   25.94
   5  10 -11  285.30   11.27
   5  10  11  289.67   14.30
   5  10 -11  260.17   35.99
   5 -10 -11  284.82   44.11
   5 -10 -11  309.99   13.93
  -5 -10 -11  300.06   63.36
  -5  10 -12   10.45    5.05
  -5  10  12   16.50    7.79
   5  10 -12   16.00    5.43
   5  10  12   10.58    6.55
   5  10 -12   12.43    4.79
   5 -10 -12   11.96    6.56
  -5 -10 -12   10.63    5.43
  -5  10 -13   40.20   10.43
  -5  10  13   36.59   14.57
   5  10  13   36.42   15.92
   5  10 -13   50.53   11.16
   5 -10 -13   50.65   11.49
  -5 -10 -13   38.91   17.46
  -5  10 -14   17.36    6.86
   5  10  14    3.19    3.44
   5  10 -14   24.19    9.26
   5 -10 -14   11.13    8.87
   5 -10 -14   23.56    8.80
  -5 -10 -14   27.37    7.56
   5  10  15    9.10    4.99
   5 -10  15   -3.22    4.22
   5 -10 -15   16.71    7.80
   5 -10 -15   12.89    3.74
  -5 -10 -15   26.02    8.94
   5  10  16    5.41    4.98
   5  10 -16   14.52   16.27
   5 -10 -16    7.77    6.78
   5 -10 -16   13.25    7.36
  -5 -10 -16    5.79    7.84
  -5  11   0  223.46   28.13
   5  11   0  249.71   39.20
   5  11   0  221.77   14.77
   5 -11   0  216.63    8.44
  -5  11  -1   14.16    7.91
  -5  11   1    9.16    8.96
   5  11  -1   15.06    7.36
   5  11   1   13.38    7.57
   5  11  -1   11.71    5.72
   5 -11  -1   12.29    6.08
   5 -11  -1   11.69    3.35
   5 -11   1    4.89    1.87
  -5  11  -2  160.28   32.29
  -5  11   2  170.09   17.72
   5  11  -2  175.15   33.44
   5  11   2  148.16   33.25
   5  11  -2  176.87   23.68
   5 -11  -2  193.65   46.86
   5 -11  -2  154.82    7.07
   5 -11   2  161.10   12.24
  -5  11  -3   30.48    6.68
  -5  11   3   17.69    4.78
   5  11  -3   24.18   10.72
   5  11   3   27.08    8.22
   5  11  -3   22.71    5.01
   5 -11  -3    5.55    7.47
   5 -11  -3   16.09    8.06
   5 -11   3   13.66    4.01
  -5  11  -4   79.33   18.37
  -5  11   4   90.74   11.88
   5  11   4  102.72   23.68
   5  11  -4   75.20   11.98
   5 -11  -4  111.28   28.13
   5 -11  -4   91.00   10.02
  -5  11  -5   30.65   11.39
  -5  11   5   48.11   10.34
   5  11  -5   55.10   12.69
   5  11   5   30.04    5.62
   5  11  -5   41.83    9.43
   5 -11  -5   29.03    8.78
   5 -11  -5   33.58   12.79
  -5  11  -6   58.59   11.82
  -5  11   6   56.21    9.36
   5  11  -6   63.21   19.69
   5  11   6   51.63   10.52
   5  11  -6   70.09   11.11
   5 -11  -6   52.21   12.35
   5 -11  -6   54.64    9.50
  -5  11  -7   17.66    7.55
  -5  11   7    5.29    6.83
   5  11  -7    2.92    5.36
   5  11   7   26.52    7.31
   5  11  -7   17.63    8.03
   5 -11  -7    9.77    5.41
   5 -11  -7   11.01    4.48
  -5 -11  -7   11.10    9.08
  -5  11   8  104.50   24.35
   5  11  -8  109.17   26.73
   5  11   8   82.69   24.88
   5  11  -8  106.24   27.12
   5 -11  -8  111.83   26.49
   5 -11  -8   90.39   15.88
  -5 -11  -8  127.65   33.61
  -5  11  -9   33.50    7.09
  -5  11   9   49.96   13.70
   5  11  -9   43.02   12.89
   5  11   9   39.92   11.88
   5  11  -9   49.98    8.99
   5 -11  -9   33.47    8.71
  -5 -11  -9   34.82   13.74
   5 -11  -9   35.05   14.27
  -5 -11  -9   46.36    9.63
  -5  11 -10   58.60   11.59
  -5  11  10   41.48   12.40
   5  11 -10   60.01   14.88
   5  11  10   64.39   20.22
   5  11 -10   48.85   13.95
   5 -11 -10   54.00   18.95
  -5 -11 -10   34.43   12.12
   5 -11 -10   68.29   21.47
  -5 -11 -10   53.20    9.97
  -5  11 -11   17.24   10.63
  -5  11  11   11.35    4.84
   5  11 -11   10.75    2.87
   5  11  11   18.12    5.17
   5  11 -11   13.07    5.27
   5 -11 -11   17.68    7.54
   5 -11 -11   15.21    7.08
  -5 -11 -11   21.94    7.68
  -5  11 -12   92.59   27.78
  -5  11  12   84.96   25.06
   5  11 -12   78.88   25.80
   5  11  12  102.11   32.63
   5  11 -12  119.05   19.44
   5 -11 -12   96.83   24.86
  -5 -11 -12  108.57   35.69
  -5  11 -13   10.33    4.81
  -5  11  13    7.36    2.75
   5  11  13    9.11    4.59
   5  11 -13    5.45    3.72
   5 -11 -13    2.51    3.82
  -5 -11 -13   18.73    7.51
  -5  11 -14   11.09    4.57
   5  11  14   27.84    7.39
   5  11 -14   29.43   11.16
   5 -11 -14   23.84   10.29
   5 -11 -14   21.11    5.93
  -5 -11 -14   25.08    8.65
   5  11  15    4.04    2.21
   5 -11  15    7.87    3.54
   5  11 -15    4.19    5.80
   5 -11 -15    9.16    3.51
   5 -11 -15    5.41    3.23
  -5 -11 -15   13.78    8.14
  -5  12   0    7.77    6.15
   5  12   0   20.69    6.84
   5 -12   0    9.13    1.73
  -5  12  -1   59.30   17.46
  -5  12   1   36.73   12.74
   5  12  -1   27.66    6.38
   5  12   1   34.91    9.09
   5  12  -1   46.76   10.93
   5 -12  -1   36.90   12.35
   5 -12  -1   36.56    6.81
   5 -12   1   27.19   10.02
  -5  12  -2   94.40   19.24
  -5  12   2   72.22   18.90
   5  12  -2   87.33   19.44
   5  12   2   72.78   28.39
   5  12  -2   70.62   12.91
   5 -12  -2   76.78   20.08
   5 -12  -2   75.87    5.96
   5 -12   2   48.69    8.77
  -5  12  -3   11.05    6.14
  -5  12   3    0.89    6.54
   5  12  -3    4.68    5.94
   5  12   3    9.95    8.09
   5  12  -3   11.81    7.01
   5 -12  -3   15.78    9.35
   5 -12  -3    6.72    2.64
   5 -12   3    0.62    1.59
  -5  12  -4   78.02   21.09
  -5  12   4   83.49   21.17
   5  12   4   93.00   24.87
   5  12  -4   87.07   12.93
   5 -12  -4  108.71   24.55
   5 -12  -4   82.20    9.81
  -5  12  -5   51.36   17.08
  -5  12   5   70.95   20.55
   5  12  -5   68.06   20.71
   5  12   5   51.46    9.14
   5  12  -5   70.41   24.53
   5 -12  -5   65.87   21.46
   5 -12  -5   52.99   13.59
  -5  12  -6   44.70   11.55
  -5  12   6   55.44   18.38
   5  12  -6   41.17   10.05
   5  12   6   56.54   19.16
   5  12  -6   42.26    9.74
   5 -12  -6   42.60   20.26
   5 -12  -6   41.39    8.45
  -5  12  -7  140.48   26.81
  -5  12   7  100.28   26.60
   5  12  -7  118.61   24.24
   5  12   7  124.02   31.84
   5  12  -7  134.24   17.01
   5 -12  -7  123.95   27.40
   5 -12  -7  126.38   19.30
  -5 -12  -7  192.25   29.11
   5  12  -8  100.70   30.88
   5  12   8  109.80   25.28
   5  12  -8  120.43   30.92
   5 -12  -8  136.15   38.42
   5 -12  -8  124.25   19.23
  -5 -12  -8  177.79   28.34
  -5  12   9   25.42   10.01
   5  12  -9   24.96    8.19
   5  12   9   22.92   10.28
   5  12  -9   19.12    6.35
   5 -12  -9   12.71    9.94
  -5 -12  -9   22.69    7.84
   5 -12  -9   21.42    5.09
  -5 -12  -9   36.09   24.74
  -5  12 -10   15.64    6.51
  -5  12  10   20.44    6.01
   5  12 -10   14.55    7.75
   5  12  10   22.31    7.57
   5  12 -10   26.63    8.75
   5 -12 -10   12.26   13.15
  -5 -12 -10   16.70    5.35
   5 -12 -10   22.20    6.56
  -5 -12 -10   24.41    8.14
  -5  12 -11   34.27   11.09
  -5  12  11   29.67   14.60
   5  12 -11   28.25    9.71
   5  12  11   45.55   21.77
   5  12 -11   31.46   10.88
   5 -12 -11   31.37    6.30
   5 -12 -11   38.59   14.34
  -5 -12 -11   41.05   13.05
  -5  12 -12    6.97    6.82
  -5  12  12   10.49    3.92
   5  12 -12    1.37    3.94
   5  12  12    7.22    3.83
   5  12 -12    8.19    4.01
   5 -12 -12    4.73    4.00
  -5 -12 -12   10.84    6.41
  -5  12 -13    2.34    4.01
  -5  12  13    3.04    1.95
   5  12  13    7.74    3.24
   5  12 -13    5.03    4.84
   5 -12 -13    3.76    6.85
  -5 -12 -13   15.05    5.84
  -5  12 -14    8.62    4.19
   5  12  14   12.70    7.02
   5  12 -14   21.66    5.83
   5 -12 -14   13.15    5.12
   5 -12 -14   21.39   13.33
  -5 -12 -14   20.27    8.01
  -5  13   0  161.09   35.67
   5  13   0  166.58   15.73
   5 -13   0  133.18   11.12
  -5  13  -1   77.47   15.00
  -5  13   1   63.22   20.68
   5  13  -1   77.74   23.75
   5  13   1   80.54   18.94
   5 -13  -1   57.87   17.18
   5 -13  -1   65.43   10.30
  -5  13  -2   77.35   16.30
  -5  13   2   95.36   18.44
   5  13  -2   84.95   34.24
   5  13   2   71.37   18.70
   5  13  -2   91.09   24.81
   5 -13  -2   62.08   15.34
   5 -13  -2   57.11   20.69
  -5  13  -3   54.62   12.45
  -5  13   3   45.35   11.54
   5  13  -3   50.79   10.50
   5  13   3   83.35   22.74
   5  13  -3   48.90   12.29
   5 -13  -3   33.78   12.41
   5 -13  -3   30.45   14.96
  -5  13  -4   62.42   15.96
  -5  13   4   54.51   11.52
   5  13  -4   63.61   18.30
   5  13   4   61.70   13.83
   5  13  -4   52.02   12.51
   5 -13  -4   71.38   17.49
   5 -13  -4   37.39   15.53
  -5  13  -5   13.87    6.71
  -5  13   5    5.73    3.81
   5  13   5   17.58    7.92
   5  13  -5   17.73    5.76
   5 -13  -5    9.37    5.33
   5 -13  -5    6.10    2.68
  -5  13  -6   65.75   14.72
  -5  13   6   51.34   11.59
   5  13  -6   64.44   16.12
   5  13   6   54.64   15.54
   5  13  -6   53.45   16.92
   5 -13  -6   47.19   13.50
   5 -13  -6   51.61   19.75
  -5  13  -7    8.67    7.67
  -5  13   7    9.73    5.74
   5  13  -7    3.28    2.80
   5  13   7   17.76    9.16
   5  13  -7    9.19    4.94
   5 -13  -7    8.48    8.89
   5 -13  -7    6.37    2.80
  -5 -13  -7   15.68    7.37
  -5  13  -8   79.75   29.11
  -5  13   8   66.24   25.93
   5  13  -8   71.70   18.45
   5  13   8   75.36   24.00
   5  13  -8   77.44   19.91
   5 -13  -8   78.21   21.18
   5 -13  -8   65.69   20.07
  -5 -13  -8   87.19   31.13
  -5  13   9    4.04    3.89
   5  13  -9    8.83    4.15
   5  13   9    1.73    4.30
   5  13  -9   -0.01    5.96
   5 -13  -9   16.44    9.78
  -5 -13  -9    9.26    3.70
   5 -13  -9   -0.31    3.61
  -5 -13  -9    7.62    5.63
  -5  13 -10   17.38    9.32
  -5  13  10   18.86    5.86
   5  13 -10   18.93    9.74
   5  13  10   14.48    6.75
   5  13 -10   18.66    8.97
   5 -13 -10   12.75    7.08
   5 -13 -10   21.85    8.24
  -5 -13 -10   22.06   15.94
  -5  13 -11   20.85    8.30
  -5  13  11   23.00    8.56
   5  13 -11   23.28    5.88
   5  13  11   21.47    7.39
   5  13 -11   13.89    4.68
   5 -13 -11    7.88   10.53
   5 -13 -11   17.72    5.06
  -5 -13 -11    8.54    8.17
  -5  13 -12   18.54    7.27
  -5  13  12    7.29    4.55
   5  13 -12    7.01    5.45
   5  13  12    5.93    5.41
   5  13 -12   20.65    5.34
   5 -13 -12   11.33    4.61
  -5 -13 -12   16.66    7.33
  -5  13 -13   28.86    9.80
  -5  13  13   21.32    8.61
   5  13  13   15.97   11.53
   5  13 -13   28.15    9.05
   5 -13 -13   27.24   12.60
  -5 -13 -13   25.89   12.09
  -5  14   0   99.71   27.96
   5  14   0   89.07   15.15
  -5  14  -1   35.11    6.79
  -5  14   1   40.96   12.92
   5  14  -1   46.85   12.24
   5  14   1   35.95   11.18
   5 -14  -1   32.46   13.45
  -5  14  -2   68.41   14.50
  -5  14   2   53.97   16.39
   5  14  -2   80.91   20.37
   5  14   2   63.21   19.48
   5 -14  -2   84.29   15.36
  -5  14  -3   14.76    5.77
  -5  14   3   22.84    7.42
   5  14  -3   14.27    9.08
   5  14   3   25.49    7.45
   5 -14  -3    7.84    8.50
   5 -14  -3   10.55    4.92
  -5  14  -4  106.61   25.98
  -5  14   4  122.10   33.91
   5  14  -4  123.09   29.06
   5  14   4  119.86   33.99
   5  14  -4  113.07   20.13
   5 -14  -4  105.62   35.53
   5 -14  -4  107.31   16.77
  -5  14  -5   11.61    8.41
  -5  14   5   22.90    5.70
   5  14   5   12.07    4.22
   5  14  -5   13.92    7.51
   5 -14  -5   19.32    9.27
   5 -14  -5    6.54    2.68
  -5  14  -6   18.39   10.18
  -5  14   6   21.72   10.23
   5  14   6   21.54    8.70
   5  14  -6   21.70    8.59
   5 -14  -6   10.58    6.69
   5 -14  -6   11.51    4.56
  -5  14  -7   11.15    4.79
  -5  14   7   12.18    5.22
   5  14  -7    9.51    4.66
   5  14   7    9.33    5.44
   5  14  -7   10.38    3.32
   5 -14  -7   12.00    8.92
   5 -14  -7    6.13    5.08
  -5 -14  -7   12.22    6.66
  -5  14  -8   36.56    9.07
  -5  14   8   42.85   12.34
   5  14  -8   63.41   15.97
   5  14   8   38.97   18.47
   5  14  -8   61.29   14.85
   5 -14  -8   42.22   10.43
   5 -14  -8   42.23   16.42
  -5 -14  -8   65.12   17.70
  -5  14   9   13.83    4.48
   5  14  -9   19.65    6.70
   5  14   9   34.38    9.77
   5  14  -9   13.70    8.23
   5 -14  -9   27.35   14.82
  -5 -14  -9   13.80   10.11
   5 -14  -9   15.00    4.76
  -5 -14  -9   18.43    9.28
  -5  14 -10   18.52    7.80
  -5  14  10    9.66    4.38
   5  14 -10   41.52    8.08
   5  14  10   19.08    8.59
   5  14 -10   27.97    8.77
   5 -14 -10   44.85   15.74
   5 -14 -10   21.72    7.01
  -5 -14 -10   17.86   12.11
  -5  14 -11   30.74    6.78
  -5  14  11   15.57   11.44
   5  14  11   26.23    9.87
   5  14 -11   28.55   13.58
   5 -14 -11   20.26    9.61
   5 -14 -11   21.03    8.68
  -5 -14 -11   30.09   13.80
  -5  14 -12    8.46    7.03
  -5  14  12   15.85    8.06
   5  14 -12    7.59    4.77
   5  14  12   11.08    8.13
   5  14 -12    7.65    6.86
   5 -14 -12   -0.89    8.61
   5 -14 -12    5.33    3.53
  -5 -14 -12   15.15    7.85
  -5  15   0   20.31    9.36
   5  15   0   19.94    9.04
  -5  15  -1   54.19   11.97
  -5  15   1   43.11   12.56
   5  15  -1   35.22    9.10
   5  15   1   51.40   11.85
   5 -15  -1   33.21   13.99
  -5  15  -2   21.35   10.84
  -5  15   2   21.44    5.63
   5  15  -2   30.28    9.99
   5  15   2   15.43    7.34
   5 -15  -2   18.48    9.87
  -5  15  -3   40.43    9.55
  -5  15   3   55.07   14.48
   5  15  -3   45.47   15.48
   5  15   3   46.55   16.85
   5 -15  -3   48.21   18.50
  -5  15  -4    0.77    4.40
  -5  15   4    7.80    3.15
   5  15  -4    2.37    5.12
   5  15   4   10.60    7.93
   5 -15  -4   -2.08    9.70
  -5  15  -5    6.61    6.35
  -5  15   5    9.77    6.05
   5  15   5   21.39    8.21
   5  15  -5   19.23    8.22
   5 -15  -5    9.24    7.83
  -5  15  -6   72.84   25.25
  -5  15   6   89.08   17.30
   5  15  -6   78.08   20.17
   5  15   6   73.37   29.86
   5  15  -6   97.48   16.10
   5 -15  -6   58.37   18.97
  -5 -15  -6   87.16   31.18
  -5  15  -7   33.58   10.96
  -5  15   7   15.87    5.96
   5  15  -7   19.17    7.68
   5  15   7   11.50    4.04
   5  15  -7   39.49   11.06
   5 -15  -7   21.31    8.48
  -5 -15  -7   18.15   12.36
  -5  15  -8   14.10    5.26
  -5  15   8   10.98    8.64
   5  15  -8   11.99    5.03
   5  15   8   17.27   10.65
   5  15  -8   10.96    6.85
   5 -15  -8    4.55    6.95
   5 -15  -8    6.64    4.08
  -5 -15  -8    3.56    5.63
  -5  15  -9    6.82    2.86
  -5  15   9   28.23   11.59
   5  15  -9   20.62    9.71
   5  15   9   28.36   12.88
   5  15  -9   23.08   10.43
   5 -15  -9   24.24   11.21
   5 -15  -9   13.46    4.94
  -5 -15  -9   24.18    9.58
  -5  15  10   23.85   14.60
   5  15 -10   12.71    6.94
   5  15  10   33.19   10.92
   5  15 -10   26.51    7.60
   5 -15 -10   31.53   10.74
   5 -15 -10   24.11    8.53
  -5 -15 -10   29.57   13.35
  -5  16   0   26.80   11.41
   5  16   0   25.01    8.90
  -5  16  -1   19.79    7.37
  -5  16   1   15.06    6.49
   5  16  -1   16.66    7.95
   5  16   1   13.78    5.40
   5 -16  -1    3.80    5.09
  -5  16  -2   28.69   12.84
  -5  16   2   44.19   11.27
   5  16  -2   40.75   12.11
   5  16   2   48.17   16.73
   5 -16  -2   38.82   17.35
  -5  16  -3    7.48    5.93
  -5  16   3   -4.10    6.29
   5  16  -3    9.25    5.68
   5  16   3   -7.16    7.04
   5 -16  -3   22.66    9.20
  -5  16  -4   42.40   13.35
  -5  16   4   21.15   12.35
   5  16   4   50.82   14.10
   5 -16  -4   50.92   14.85
  -5  16  -5   16.02    6.86
  -5  16   5   16.46    5.52
   5  16  -5    7.45    5.19
   5  16   5   15.22    8.00
   5 -16  -5   17.92   10.76
  -5  16  -6   62.82   19.02
  -5  16   6   36.05   16.69
   5  16   6   50.36   19.28
  -5 -16  -6   54.96   14.08
  -5  16  -7    6.50    2.64
  -5  16   7   10.11    5.29
   5  16  -7    2.39    3.99
   5  16   7   24.20   11.38
   5  16  -7    4.64    2.17
   5 -16  -7   15.37    8.47
  -5 -16  -7   13.68   11.67
  -5  16  -8   13.60    9.45
  -5  16   8   17.13    9.40
   5  16  -8   16.91    7.66
   5  16   8   15.56    6.95
   5  16  -8   11.40    5.61
   5 -16  -8    8.39    6.60
  -5 -16  -8   13.11    7.39
  -5 -16  -8   12.25    7.62
  -5  17   0   54.10   17.48
   5  17   0   62.69   21.32
  -5  17  -1   24.71   10.17
  -5  17   1    1.01    7.61
   5  17  -1   10.60    5.94
   5  17   1   17.39    6.04
   5 -17  -1   11.70    7.02
  -5  17  -2    6.05    8.00
  -5  17   2    0.00    6.06
   5  17  -2   14.28    7.18
   5  17   2    6.71    8.14
   5 -17  -2   11.84   10.47
  -5  17  -3   55.19   16.83
  -5  17   3   41.74   17.63
   5  17  -3   39.36   14.67
   5  17   3   84.98   24.18
   5 -17  -3   64.95   24.85
  -5  17  -4   15.12    5.77
  -5  17   4   25.84    6.91
   5  17  -4   13.68    6.65
   5  17   4   37.83   13.10
   5 -17  -4   11.63    8.11
  -5  17  -5    4.62    5.74
  -5  17   5    9.80    7.47
   5  17  -5    5.35    6.31
   5  17   5   11.44    7.23
   5 -17  -5   17.74    5.45
  -5 -17  -5   13.92    5.58
  -5  17  -6   17.74    9.81
  -5  17   6   15.92    7.24
   5  17   6   10.96    4.97
   5 -17  -6   15.79   11.15
   6   0   0 1149.24   35.32
   6   0   0 1127.30   33.96
   6   0   1  291.38   23.44
   6   0  -1  291.65   16.32
   6   0   1  282.74   15.23
  -6   0  -1  276.88   14.74
   6   0  -2   16.02    4.76
   6   0   2   12.73    4.90
   6   0  -2    9.60    4.42
   6   0   2   13.56    3.96
  -6   0  -2    8.80    2.60
   6   0  -3  941.02   29.75
   6   0   3  944.56   31.37
   6   0  -3  933.73   30.38
   6   0   3  938.91   27.75
  -6   0  -3  897.39   28.10
   6   0  -4  379.60   20.19
   6   0   4  382.52   21.84
   6   0  -4  380.71   21.37
   6   0   4  372.41   19.48
   6   0  -5  932.30   35.59
   6   0   5  934.65   44.78
   6   0  -5  935.75   34.90
   6   0   5  967.27   32.11
  -6   0  -5  964.21   34.41
   6   0  -6  112.94   18.88
   6   0   6  133.51   22.44
   6   0   6  105.92    2.85
   6   0  -6  125.92   21.15
   6   0   6  103.12    4.11
  -6   0  -6  114.30   13.54
   6   0  -7 1338.41   49.24
   6   0   7 1437.93   30.12
   6   0  -7 1386.67   23.27
  -6   0  -7 1371.61   51.19
   6   0  -8    2.28    1.77
   6   0  -8    5.48    3.49
   6   0   8    6.88    4.55
   6   0  -8    5.25    4.46
  -6   0  -8    4.18    2.53
   6   0  -9  475.73   15.98
   6   0  -9  483.51   17.46
   6   0   9  511.30   21.80
   6   0  -9  494.82   22.36
  -6   0  -9  486.15   19.51
   6   0 -10   30.42    6.89
   6   0 -10   35.19    9.60
   6   0  10   61.44   10.76
   6   0 -10   34.60    8.10
  -6   0 -10   52.45   16.66
   6   0 -11    8.35    2.20
   6   0 -11    9.54    3.14
   6   0  11    7.19    4.23
   6   0 -11   15.42   10.42
  -6   0 -11   22.65    6.13
   6   0  12  306.57   23.04
   6   0 -12  289.42   15.05
  -6   0 -12  304.59   12.40
   6   0  13   43.44    9.40
   6   0 -13   42.59    7.60
  -6   0 -13   38.62   11.32
   6   0  14   41.53   18.20
   6   0 -14   37.11   10.91
  -6   0 -14   49.27   15.51
   6   0  15  270.48   34.26
   6   0 -15  284.41   43.38
  -6   0 -15  308.18   14.01
   6   0  16   21.65    8.19
   6   0 -16   18.17    6.47
  -6   0 -16   21.25    6.25
  -6   0 -17   21.22    5.95
  -6   0 -18   28.25    5.94
   6   0 -19   47.03   17.54
  -6   0 -19   53.45   15.28
   6   1   0    9.15    4.86
   6  -1   0    3.18    3.54
   6   1   0   12.67    5.68
   6  -1   0   13.88    3.99
   6   1   1  120.37   21.75
   6  -1   1  109.19   21.25
   6   1   1  109.76   12.45
   6   1  -1  100.65   17.58
   6  -1  -1   99.54   20.50
   6  -1   1   87.14    6.02
  -6  -1  -1   84.86   12.58
   6   1  -2   97.89   17.11
   6   1   2   62.64   15.38
   6  -1   2  124.20   22.18
   6  -1  -2   54.40   11.28
   6   1   2   64.01   11.86
   6   1  -2  116.53   20.07
   6  -1  -2   64.96    8.97
   6  -1   2   92.19   11.02
  -6  -1  -2   84.74    6.14
  -6   1  -2   48.50    6.98
  -6   1   2   84.78    7.40
   6   1  -3  419.18   22.31
   6   1   3  384.73   21.76
   6  -1   3  456.48   24.77
   6  -1  -3  408.39   21.67
   6   1   3  387.29   19.14
   6   1  -3  419.61   22.52
   6  -1  -3  397.11   22.02
   6  -1   3  433.87   22.32
  -6  -1  -3  438.96   21.56
   6   1  -4  289.18   16.10
   6   1   4  300.92   17.50
   6  -1   4  295.92   18.36
   6  -1  -4  308.75   16.85
   6   1   4  309.10   15.82
   6   1  -4  279.75   18.36
   6  -1  -4  312.24   18.30
   6  -1   4  281.30   14.64
  -6  -1  -4  295.13   14.46
  -6   1  -4  301.18   16.52
   6   1  -5  129.01   23.56
   6   1   5  125.70   24.46
   6  -1   5  135.60   21.42
   6  -1  -5  107.64    8.09
   6   1   5  114.13    2.41
   6   1  -5  120.81   10.50
   6  -1  -5  111.59   20.19
   6  -1   5  116.79    9.07
  -6   1  -5  114.09    5.32
  -6  -1  -5  128.66   20.30
   6   1  -6  656.87   25.99
   6   1   6  737.23   29.12
   6  -1  -6  711.15   25.71
   6  -1   6  743.41   29.48
   6  -1   6  710.29   24.01
   6   1  -6  676.64   26.94
   6  -1  -6  696.58   30.09
   6  -1   6  686.17   23.53
  -6   1  -6  700.39   25.21
  -6  -1  -6  713.89   26.55
   6   1  -7  269.77   13.78
   6   1   7  253.82   12.84
   6  -1  -7  302.16   13.48
   6  -1   7  285.88   10.80
   6  -1   7  270.27    9.65
   6   1  -7  287.46   38.58
   6  -1   7  272.45   10.47
  -6   1  -7  269.92   11.95
  -6  -1  -7  272.90   12.84
   6  -1  -8  271.48   10.40
   6   1  -8  284.03    8.02
   6   1   8  327.60   29.45
   6  -1  -8  307.67   18.39
   6  -1   8  297.85   17.52
   6  -1   8  270.44   10.05
   6   1  -8  277.17   22.01
   6  -1  -8  349.38   26.56
   6  -1   8  267.33    9.43
  -6   1  -8  322.65   15.25
  -6  -1  -8  281.45   10.91
   6   1  -9   64.80   10.12
   6  -1  -9   60.14    9.99
   6   1  -9   83.08   13.20
   6   1   9   84.96   14.82
   6  -1  -9   87.51   11.73
   6  -1   9   94.05   27.51
   6  -1   9   77.34    5.33
   6   1  -9  102.22   31.43
   6  -1  -9  116.78   23.13
   6  -1   9   79.60    7.39
  -6   1  -9   94.65   23.70
  -6  -1  -9   96.88   19.71
   6   1 -10  172.88   27.80
   6  -1 -10  167.98   28.25
   6   1 -10  187.13    7.69
   6   1  10  199.51   21.17
   6  -1 -10  192.04    9.89
   6  -1  10  191.16   16.92
   6   1 -10  187.44   30.38
   6  -1 -10  204.82   33.40
   6  -1  10  183.58    8.90
   6  -1  10  177.87    6.81
   6  -1 -10  143.58   31.39
  -6   1 -10  203.87   11.67
  -6  -1 -10  176.32   14.48
   6   1 -11  103.81    5.28
   6  -1 -11   89.47    7.18
   6   1 -11  108.24    4.38
   6  -1 -11   96.23    3.60
   6   1  11  107.99   23.77
   6  -1  11  119.46   29.40
   6   1 -11  120.01   27.73
   6  -1 -11  110.27   22.63
   6  -1  11   92.00    4.50
   6  -1 -11  114.49   16.78
  -6   1 -11  109.91   28.79
  -6  -1 -11  123.47   30.92
   6   1  12   15.51    7.43
   6  -1  12   28.10    8.40
   6   1 -12   11.77    7.25
   6  -1 -12   31.99   10.07
   6  -1 -12    5.02    3.02
  -6   1 -12    8.12    3.48
  -6  -1 -12   22.18    7.40
   6   1  13   11.20    7.54
   6  -1  13   21.22    8.89
   6   1 -13   17.13    7.17
   6  -1 -13   27.61    6.12
   6  -1 -13   16.17    5.51
  -6   1 -13   11.59    2.92
  -6  -1 -13   20.87    3.43
   6   1  14   77.28   21.90
   6  -1  14   75.61   27.00
   6   1 -14   63.31   14.54
   6  -1 -14   87.70   17.92
   6  -1 -14   50.31    9.18
  -6   1 -14   71.30   14.41
  -6  -1 -14   69.59   17.84
   6   1  15   51.97   21.21
   6  -1  15   85.82   13.49
   6   1 -15   93.92   27.98
   6  -1 -15   59.31   14.97
   6  -1 -15   69.66   20.75
  -6   1 -15   76.78   23.07
  -6  -1 -15   68.82   15.87
   6   1  16   75.76   23.95
   6  -1  16   74.34   26.16
   6   1 -16   75.47   18.37
   6  -1 -16   25.43    9.49
   6  -1 -16   76.51   21.99
  -6   1 -16   82.47   15.54
  -6  -1 -16   74.56   28.86
   6   1 -17    7.50    3.90
   6  -1 -17    6.58    5.30
  -6   1 -17    5.39    4.17
  -6  -1 -17    4.56    3.47
  -6   1 -18    6.56    5.10
  -6  -1 -18   12.96    5.05
   6  -1 -19   17.21    7.38
  -6   1 -19    3.92    3.72
   6   2   0  511.19   20.61
   6  -2   0  498.91   22.75
   6   2   0  502.33   17.02
   6  -2   0  498.57   18.16
   6   2   1  104.76   22.67
   6  -2   1   94.24   22.50
   6   2   1   95.64    9.52
   6   2  -1   81.28    9.05
  -6  -2  -1   70.70   10.84
   6  -2  -1   97.65   15.21
   6  -2   1   88.55   19.93
  -6   2   1   82.09    7.54
   6   2  -2  262.76   16.17
   6   2   2  276.27   16.70
   6  -2   2  244.58   15.35
   6  -2  -2  265.95   15.56
   6   2   2  269.73   16.10
   6   2  -2  228.84   12.96
  -6  -2  -2  232.81   12.31
   6  -2  -2  287.47   16.87
   6  -2   2  245.16   14.06
  -6   2   2  226.73   11.75
   6   2  -3  557.74   21.88
   6   2   3  536.36   20.53
   6  -2   3  632.79   26.25
   6  -2  -3  537.96   19.16
   6   2   3  526.39   16.80
   6   2  -3  582.54   20.59
   6  -2  -3  513.68   20.10
  -6  -2  -3  590.25   18.08
   6  -2   3  558.70   18.30
  -6   2  -3  523.30   16.76
   6   2  -4   75.18   11.07
   6   2   4   66.75   19.59
   6  -2   4   67.04   15.74
   6  -2  -4   67.62   11.42
   6   2   4   54.50    6.87
   6   2  -4   72.74   12.64
   6  -2  -4   58.77   14.78
  -6  -2  -4   66.05    7.17
   6  -2   4   71.99    7.98
  -6   2  -4   61.72   11.29
   6   2  -5   42.14    9.18
   6   2   5   51.78   10.91
   6  -2   5   47.93   12.39
   6  -2  -5   52.25   12.22
   6   2   5   42.43    3.40
   6   2  -5   43.25   10.18
   6  -2  -5   41.51   10.41
   6  -2   5   49.51   10.38
  -6   2  -5   46.32    9.51
   6   2  -6  135.80   18.83
   6   2   6  173.92   37.98
   6  -2   6  155.19   27.33
   6  -2  -6  136.78   12.59
   6  -2   6  139.06    7.75
   6   2  -6  150.45   25.72
   6  -2  -6  171.86   37.95
   6  -2   6  149.01    8.79
  -6   2  -6  152.23   16.26
  -6  -2  -6  170.79   28.71
   6   2  -7   76.83   16.74
   6   2   7   83.12   20.15
   6  -2   7   73.14   15.58
   6  -2  -7   74.26   13.00
   6  -2   7   55.18    9.16
   6   2  -7   85.42   15.82
   6  -2  -7   86.31   23.42
   6  -2   7   62.65   11.59
   6  -2  -7   92.49   16.61
  -6   2  -7   82.73   14.21
  -6  -2  -7   76.84   12.64
   6   2  -8   29.16    6.63
   6   2   8   41.94   10.00
   6  -2   8   32.03    5.90
   6  -2  -8   28.30    8.21
  -6  -2   8   19.02    5.04
   6  -2   8   17.31    4.50
   6   2  -8   15.60    6.36
   6  -2  -8   41.12   11.84
   6  -2  -8   32.68    5.92
  -6   2  -8   31.45    6.30
  -6  -2  -8   27.94    7.02
   6   2  -9  252.45    9.64
   6  -2  -9  257.68    9.98
   6   2  -9  268.51   14.33
   6   2   9  271.98   43.64
   6  -2   9  333.93   36.68
   6  -2  -9  268.44   10.99
   6  -2   9  276.62   10.00
   6   2  -9  310.23   38.35
   6  -2  -9  253.35   36.16
   6  -2  -9  267.63   23.97
  -6   2  -9  296.39   12.97
  -6  -2  -9  274.60   14.05
   6   2 -10  146.04    4.56
   6  -2 -10  133.16   14.77
   6   2 -10  141.47    4.68
   6   2  10  156.50   17.87
   6  -2 -10  158.94   13.94
   6  -2  10  163.64   30.56
   6  -2  10  124.78   12.37
   6   2 -10  135.89   33.35
   6  -2 -10  171.18   36.98
   6  -2 -10  186.74   24.51
  -6   2 -10  159.33   11.47
   6   2 -11  141.88    4.85
   6  -2 -11  146.60    5.21
   6   2 -11  161.59    8.64
   6   2  11  157.98   35.82
   6  -2 -11  141.72    5.61
   6  -2  11  158.50   35.66
   6   2 -11  182.95   27.26
   6  -2 -11  182.00   28.68
   6  -2 -11  144.83   18.54
  -6   2 -11  163.39   31.48
   6   2  12   52.65   11.91
   6  -2 -12   21.85    5.27
   6  -2  12   24.48    9.67
   6   2 -12   45.53   12.01
   6  -2 -12   44.93   10.34
   6  -2 -12   35.83    6.42
  -6   2 -12   31.60    7.96
  -6  -2 -12   34.68    9.50
   6   2  13   75.22   21.64
   6  -2  13   91.49   25.15
   6   2 -13   79.01   19.12
   6  -2 -13   93.48   25.32
   6  -2 -13   94.36   15.48
  -6   2 -13   85.83   22.29
   6   2  14  118.25   33.10
   6  -2  14  128.33   23.84
   6   2 -14  111.02   33.21
   6  -2 -14  126.42   29.78
   6  -2 -14  118.59   26.19
  -6   2 -14  129.86   33.53
   6   2  15  107.39   17.27
   6  -2  15   79.05   13.24
   6   2 -15   92.80   18.88
   6  -2 -15   79.46   26.92
   6  -2 -15  108.19   24.15
  -6   2 -15  100.01   23.04
   6   2  16    9.63    5.22
   6  -2  16    6.77    4.41
   6   2 -16   15.13    5.80
   6  -2 -16    9.41    5.57
  -6   2 -16    7.87    3.87
   6   2 -17   47.63   16.70
   6  -2 -17   60.40   21.85
  -6   2 -17   36.20   10.24
   6   2 -18    5.12    3.79
   6  -2 -18   27.83    9.24
   6  -2 -18   48.20   10.31
  -6   2 -18   22.60    6.13
   6  -2 -19   13.48    6.52
   6  -2 -19   21.69    6.11
  -6   2 -19   12.59    4.30
  -6   3   0 1235.50   38.48
   6   3   0 1263.99   39.45
   6   3   0 1232.99   40.35
   6  -3   0 1239.42   42.80
  -6   3   0 1189.71   33.44
  -6   3   1   44.41    8.53
   6   3   1   49.21   10.43
   6  -3   1   35.67    9.33
   6   3   1   63.62    7.93
   6   3  -1   42.46    8.74
   6  -3  -1   54.76   10.24
   6  -3   1   36.49    8.09
  -6   3   1   35.45    5.69
  -6   3   2  245.58   20.63
   6   3  -2  204.70   14.83
   6   3   2  149.96    9.30
   6  -3   2  183.08   16.36
   6   3   2  173.70   10.11
   6   3  -2  200.39   15.85
  -6  -3  -2  202.42   22.51
   6  -3  -2  179.22   12.55
   6  -3   2  206.55   21.49
  -6   3   2  200.32   10.44
  -6   3  -2  179.44    9.25
  -6   3   3  381.40   16.18
   6   3  -3  353.14   18.90
   6   3   3  359.15   14.32
   6  -3   3  371.24   12.37
   6   3   3  354.22   17.43
   6   3  -3  331.54   18.09
  -6  -3  -3  351.96   17.30
   6  -3  -3  346.59   20.48
   6  -3   3  357.17    9.77
  -6   3   3  362.43    7.10
  -6   3  -3  356.89    4.90
  -6   3   4  797.11   29.18
   6   3  -4  840.48   30.65
   6   3   4  785.15   30.44
   6  -3   4  723.98   28.39
   6   3   4  790.42   27.00
   6   3  -4  750.77   28.40
  -6  -3  -4  779.59   26.34
   6  -3  -4  764.62   29.95
   6  -3   4  788.47   28.34
  -6   3  -4  795.02   27.24
  -6   3   5  905.32   32.79
   6   3  -5  843.79   30.78
   6   3   5  846.14   36.52
   6  -3   5  851.21   32.75
   6   3   5  901.35   29.66
   6   3  -5  839.39   31.45
   6  -3  -5  848.24   32.98
  -6  -3  -5  863.30   28.54
   6  -3   5  862.11   32.77
  -6   3  -5  873.58   29.98
   6   3  -6   14.26    3.52
   6   3   6    7.26    4.46
   6  -3   6   11.55    4.89
   6  -3  -6    7.33    2.99
   6  -3  -6    1.96    4.45
   6  -3  -6   11.78    3.44
  -6   3  -6   12.08    2.87
   6   3  -7  309.34   19.60
   6   3   7  315.13   33.80
   6  -3   7  322.11   17.16
   6  -3  -7  282.39   13.34
   6   3  -7  279.41   10.99
   6  -3  -7  307.11   26.34
   6  -3  -7  299.80   21.23
  -6   3  -7  316.42   13.97
   6   3  -8  103.52   14.04
   6   3   8  106.01   19.31
   6  -3   8  108.92   15.71
   6  -3  -8   86.11   12.50
   6   3  -8   89.92    7.83
   6  -3  -8  124.92   25.70
   6  -3  -8  109.50   23.50
  -6   3  -8  104.38   18.36
   6   3  -9  266.26   10.86
   6   3   9  259.97   30.47
   6  -3   9  265.96   43.01
   6  -3  -9  240.64   10.25
   6   3  -9  230.54   29.17
   6  -3  -9  246.81   43.69
   6  -3  -9  258.08   33.72
  -6   3  -9  271.58   11.91
   6   3 -10   29.68    6.21
   6   3  10   28.02    8.57
   6  -3  10   28.81   12.48
   6  -3 -10   28.14    7.01
  -6  -3  10   20.80    5.89
   6   3 -10   28.23    7.38
   6  -3 -10   36.06    7.75
   6  -3 -10   31.24    5.73
  -6   3 -10   39.90    9.95
   6   3 -11   17.18    6.03
   6   3  11   19.30    5.55
   6  -3  11   27.60    7.66
   6  -3 -11   13.62    4.57
   6   3 -11   29.33    7.50
   6  -3 -11   17.76    6.29
   6  -3 -11   18.91    6.19
  -6   3 -11   11.46    4.05
   6   3  12  155.78   32.89
   6  -3 -12  131.93    8.26
   6  -3  12  157.57   20.35
   6   3 -12  161.29   31.90
   6  -3 -12  161.23   42.85
   6  -3 -12  145.53   23.54
  -6   3 -12  145.27   28.00
   6   3  13   59.12   17.68
   6  -3  13   63.62   20.01
   6   3 -13   61.91   11.82
   6  -3 -13   52.83   18.68
   6  -3 -13   67.92   15.60
  -6   3 -13   75.07   23.72
   6   3  14    9.75    5.90
   6  -3  14   12.12    5.93
   6   3 -14   18.72    7.14
   6  -3 -14   12.77    8.17
   6  -3 -14   11.86    3.30
  -6   3 -14   10.71    5.12
  -6  -3 -14    7.67    4.46
   6   3  15   24.76   10.59
   6  -3  15   17.09    7.01
   6   3 -15   19.22    5.78
   6  -3 -15   16.89   10.24
   6  -3 -15   17.88    6.18
  -6   3 -15   23.44    5.28
  -6  -3 -15   21.66    9.52
   6   3  16   22.14    8.63
   6  -3  16   25.40    9.07
   6   3 -16   29.68   10.63
   6  -3 -16   36.60    8.42
  -6   3 -16   39.88   14.36
  -6  -3 -16   39.27   14.24
   6   3 -17   63.97   21.64
   6  -3 -17   64.12   14.91
  -6   3 -17   59.76   19.52
  -6  -3 -17   75.17   22.14
   6   3 -18    5.79    5.94
   6  -3 -18    9.36    4.64
   6  -3 -18   15.45    8.48
  -6   3 -18   12.05    6.00
  -6  -3 -18   13.38    6.16
   6  -3 -19   29.61    8.97
   6  -3 -19   26.68    7.35
  -6   3 -19   14.74    7.43
  -6  -3 -19   15.30   10.37
  -6   4   0  220.94   13.45
   6   4   0  209.85   22.84
   6   4   0  195.87   11.57
   6  -4   0  211.88   35.46
  -6   4   0  203.17    9.92
  -6   4  -1   72.18   15.42
  -6   4   1   67.29   17.94
   6   4   1   88.46   21.51
   6   4   1   83.72   15.54
   6   4  -1   63.66    9.52
   6  -4  -1   81.45   16.93
   6  -4   1   80.17   17.39
  -6   4   1   78.42    7.82
  -6   4  -2  111.52   19.87
  -6   4   2  101.44   12.01
   6   4   2   94.67   21.31
   6   4   2  109.94    9.49
   6   4  -2  119.61   21.77
   6  -4  -2  132.22   30.78
   6  -4   2  100.51   16.51
  -6   4   2   94.37    7.29
  -6   4  -3  311.89   18.22
  -6   4   3  284.85   18.33
   6   4  -3  299.48   18.90
   6   4   3  309.30   17.94
   6   4   3  310.72   15.69
   6   4  -3  279.68   16.92
  -6  -4  -3  280.45   14.23
   6  -4  -3  272.02   16.60
   6  -4   3  308.89   42.74
  -6   4   3  264.06   13.48
  -6   4  -4 1233.75   46.77
  -6   4   4 1288.23   47.52
   6   4  -4 1193.85   42.13
   6   4   4 1193.32   43.19
   6   4   4 1271.00   42.52
   6   4  -4 1162.61   41.59
  -6  -4  -4 1183.64   39.53
   6  -4  -4 1223.24   44.68
   6  -4   4 1280.47   47.15
   6  -4  -4 1308.46   44.39
  -6   4  -4 1225.67   40.07
  -6   4   5   25.37    6.01
   6   4  -5   15.51    6.20
   6   4   5   16.33    7.79
   6  -4   5   22.69    8.33
   6   4  -5   22.27    6.21
  -6  -4  -5   16.46    3.90
   6  -4  -5   16.41    5.07
   6  -4  -5   22.30    5.17
  -6   4  -5   19.86    4.58
  -6   4   6  146.32   13.40
   6   4  -6  148.12   27.23
   6   4   6  146.40   31.61
   6  -4   6  164.19   27.53
   6   4  -6  158.59   31.00
  -6  -4  -6  135.84    5.16
   6  -4  -6  143.58   19.74
   6  -4  -6  155.77   21.96
  -6   4  -6  135.49   14.08
  -6   4   7   59.77   12.90
   6   4  -7   61.76   14.37
   6   4   7   53.96   13.10
   6  -4   7   53.59   18.27
   6   4  -7   55.64    9.89
   6  -4  -7   77.68   20.57
   6  -4  -7   54.25   12.14
  -6   4  -7   48.95   11.58
  -6  -4  -7   46.70   11.50
  -6   4   8  328.71   27.51
   6   4  -8  319.07   13.33
   6   4   8  290.74   15.05
   6  -4   8  327.43   15.72
   6   4  -8  312.65   22.13
   6  -4  -8  267.88   39.10
   6  -4  -8  316.55   23.87
  -6   4  -8  317.60   12.56
  -6  -4  -8  305.88   30.59
  -6   4   9   77.85    9.78
   6   4  -9   80.01   17.29
   6   4   9  107.79   25.46
   6  -4   9   84.14   19.04
   6   4  -9   98.64   14.18
   6  -4  -9   84.63   15.95
   6  -4  -9   93.13   19.01
  -6   4  -9   92.60   20.00
  -6  -4  -9  122.00   29.78
   6   4 -10    5.97    1.85
   6   4  10   14.99    4.74
   6  -4  10    9.88    7.31
   6  -4 -10    6.01    2.87
   6   4 -10    5.46    4.36
   6  -4 -10    8.17    3.85
   6  -4 -10   14.53    4.45
  -6   4 -10    3.68    3.05
  -6  -4 -10   10.24    4.49
   6   4 -11   16.71    5.62
   6   4  11   27.28    7.15
   6  -4  11   21.95    5.36
   6  -4 -11   16.72    7.05
   6   4 -11   19.00    5.28
   6  -4 -11   35.06    7.95
   6  -4 -11   22.73    6.56
  -6   4 -11   22.81    6.51
  -6  -4 -11   11.51    5.22
   6   4 -12   24.02    6.10
   6   4  12   15.79    5.01
   6  -4  12   35.66    8.75
   6  -4 -12   21.33    8.79
   6   4 -12   24.01    7.41
   6  -4 -12   41.09   10.60
   6  -4 -12   34.84    8.19
  -6   4 -12   31.21    5.71
  -6  -4 -12   32.05    7.36
   6   4  13   22.08    7.63
   6  -4  13   11.46    6.07
   6   4 -13   12.98    6.40
   6  -4 -13   11.64    4.55
   6  -4 -13   10.33    2.93
  -6   4 -13    6.79    3.15
  -6  -4 -13    4.92    6.09
   6   4  14   38.85    9.81
   6  -4  14   22.77   11.19
   6   4 -14   32.87    9.62
   6  -4 -14   38.89    9.48
   6  -4 -14   45.06   11.62
  -6   4 -14   28.52    5.95
  -6  -4 -14   27.58    7.72
   6   4  15   74.35   27.46
   6  -4  15   67.92   23.09
   6   4 -15   66.37   19.65
   6  -4 -15   96.55   16.06
  -6   4 -15   84.16   20.38
  -6  -4 -15   79.98   21.29
   6   4  16   34.57   16.69
   6  -4  16   40.00   18.52
   6   4 -16   56.13   24.05
   6  -4 -16   70.85   12.60
  -6   4 -16   54.37    9.85
  -6  -4 -16   57.44   19.65
   6   4  17    8.36    5.80
   6   4 -17    5.69    2.90
   6  -4 -17   14.43    6.32
   6  -4 -17   10.43    4.81
  -6   4 -17    7.85    3.41
  -6  -4 -17   -0.02    4.99
   6   4 -18   32.69    9.37
   6  -4 -18   37.63   13.00
   6  -4 -18   26.91    7.88
  -6   4 -18   15.32    5.57
  -6  -4 -18   25.98    7.57
   6   4 -19   41.83   13.58
   6  -4 -19   24.47   11.10
   6  -4 -19   20.91    6.53
  -6   4 -19   26.80    7.70
  -6  -4 -19   41.20    9.56
  -6   5   0  682.03   26.48
   6   5   0  684.42   27.33
   6   5   0  647.68   25.22
   6  -5   0  687.67   27.48
  -6   5  -1  620.51   24.26
  -6   5   1  550.49   22.05
   6   5  -1  566.45   27.67
   6   5   1  610.54   25.61
   6   5   1  619.62   22.94
   6   5  -1  528.39   20.47
   6  -5  -1  590.52   24.66
   6  -5   1  555.52   30.14
  -6   5  -2  119.52   15.64
  -6   5   2  134.90   19.07
   6   5   2  124.28   33.70
   6   5   2  148.78   13.41
   6   5  -2  118.98    8.44
   6  -5  -2  140.93   30.44
   6  -5   2  143.79   20.16
  -6   5   2  121.86    3.82
  -6   5  -3   63.07   14.49
  -6   5   3   64.03    9.83
   6   5  -3   63.60   16.82
   6   5   3   45.36   11.42
   6   5   3   63.63    9.96
   6   5  -3   63.39   12.95
   6  -5  -3   65.19   18.95
   6  -5   3   55.27   12.69
   6  -5  -3   58.67    8.13
  -6   5   3   44.58    5.89
  -6   5  -4   35.82    7.74
  -6   5   4   50.62    9.58
   6   5  -4   60.36   13.31
   6   5   4   51.94   12.01
   6   5   4   43.34    5.64
   6   5  -4   66.13   11.53
  -6  -5  -4   39.35    4.72
   6  -5  -4   44.17   12.46
   6  -5  -4   43.68    7.33
  -6   5  -5  329.49   19.92
  -6   5   5  368.47   17.04
   6   5  -5  383.44   17.82
   6   5   5  304.75   16.42
   6   5  -5  320.43   24.99
  -6  -5  -5  335.85   13.36
   6  -5  -5  330.94   18.19
   6  -5  -5  394.94   29.34
  -6   5  -6  175.76   30.70
  -6   5   6  195.30   15.78
   6   5  -6  191.26   25.62
   6   5   6  197.31   28.93
   6   5  -6  179.66   32.55
  -6  -5  -6  144.97    6.95
   6  -5  -6  200.08   29.30
  -6   5  -6  158.19    8.29
   6  -5  -6  182.89   17.66
  -6   5   7  177.27    8.52
   6   5  -7  158.25   15.09
   6   5   7  198.66   37.18
   6   5  -7  152.47   24.44
  -6  -5  -7  155.00    3.86
   6  -5  -7  198.84   34.66
  -6  -5  -7  168.07    6.98
  -6   5  -7  170.17    8.05
   6  -5  -7  179.75    9.31
  -6  -5  -7  197.40   39.17
   6  -5   7  147.56   12.14
  -6   5   8   28.93    9.70
   6   5  -8   28.75    5.90
   6   5   8   51.98   13.63
   6  -5   8   29.47    6.66
   6   5  -8   48.28    8.78
   6  -5  -8   33.89    7.92
  -6   5  -8   37.55   10.15
   6  -5  -8   42.34    6.44
  -6  -5  -8   36.08    7.68
  -6   5   9    1.29    2.76
   6   5  -9    4.98    2.82
   6   5   9   -0.69    6.88
   6  -5   9    5.56    4.66
   6   5  -9    5.45    3.97
   6  -5  -9   13.29    5.00
  -6   5  -9    5.18    2.48
   6  -5  -9    2.91    3.04
  -6  -5  -9    2.75    2.83
  -6   5  10  109.15   16.68
   6   5 -10   90.19   14.64
   6   5  10  120.61   23.70
   6  -5  10   98.39   24.31
   6   5 -10   91.32   18.80
   6  -5 -10  113.66   21.49
  -6   5 -10  111.54    6.23
   6  -5 -10  112.26   20.73
  -6  -5 -10  122.78   23.55
  -6   5  11   30.42    9.66
   6   5 -11   32.61    7.44
   6   5  11   39.15   11.51
   6  -5  11   37.20    7.86
   6   5 -11   50.43   12.89
   6  -5 -11   43.01   10.13
  -6   5 -11   38.98   10.57
   6  -5 -11   50.44   11.50
  -6  -5 -11   26.40    6.18
   6   5 -12   46.38    7.22
   6   5  12   56.08   19.48
   6  -5  12   53.66   11.52
   6  -5 -12   36.96   11.31
   6   5 -12   61.57   13.63
   6  -5 -12   59.63   15.56
  -6   5 -12   52.67   11.90
   6  -5 -12   51.67    7.44
  -6  -5 -12   57.28   12.13
   6   5  13   54.76   11.77
   6  -5  13   38.99   11.62
   6   5 -13   38.97    7.62
   6  -5 -13   52.23   12.65
  -6   5 -13   56.70   14.69
   6  -5 -13   36.26    5.70
  -6  -5 -13   38.63    9.43
   6   5  14    6.26    4.07
   6  -5  14   14.38    7.24
   6   5 -14   12.27    5.69
   6  -5 -14    1.76    4.71
  -6   5 -14    3.86    3.21
   6  -5 -14    8.07    5.81
  -6  -5 -14    8.27    5.71
   6   5  15   96.69   34.78
   6  -5  15  112.46   29.97
   6   5 -15  115.39   31.07
  -6   5 -15   93.26   31.56
   6  -5 -15  119.50   23.03
  -6  -5 -15  137.45   36.71
   6   5  16   14.35    8.09
   6  -5  16    8.39    4.59
   6   5 -16   16.45    8.84
  -6   5 -16    8.58    3.54
   6  -5 -16   19.70   12.51
  -6  -5 -16   13.22    7.49
   6   5 -17   51.47   20.26
   6  -5 -17   65.71   15.21
  -6   5 -17   36.35   13.04
   6  -5 -17   40.65   15.23
  -6  -5 -17   47.98   17.86
   6   5 -18   28.77    9.20
   6  -5 -18   26.69   13.52
  -6   5 -18   20.78   12.15
   6  -5 -18   36.28   15.53
  -6  -5 -18   36.95    8.03
  -6   6   0    1.69    3.18
   6   6   0    2.71    4.14
   6   6   0    5.44    2.76
   6  -6   0   17.34    6.44
  -6   6  -1   15.52    7.17
  -6   6   1    8.65    4.65
   6   6  -1    7.00    5.87
   6   6   1    8.51    4.54
   6   6   1   14.80    3.60
   6   6  -1   10.00    2.39
   6  -6  -1   15.70    6.17
   6  -6   1   12.74    3.84
  -6   6  -2 1001.76   39.76
  -6   6   2 1058.39   41.24
   6   6   2  901.21   44.60
   6   6   2 1118.97   43.51
   6   6  -2 1069.87   41.20
   6  -6  -2 1004.69   40.37
   6  -6   2 1133.67   44.67
   6  -6  -2 1148.17   41.55
  -6   6   2  962.59   35.03
  -6   6  -3  334.71   17.23
  -6   6   3  322.14   25.30
   6   6  -3  318.08   16.12
   6   6   3  341.51   23.88
   6   6   3  321.58   13.82
   6   6  -3  326.98   15.30
   6  -6  -3  322.89   17.37
   6  -6  -3  357.23   14.69
  -6   6   3  302.55   21.83
  -6   6  -4  126.48   26.47
  -6   6   4  122.23   20.95
   6   6  -4  129.75   27.66
   6   6   4  151.86   38.05
   6   6   4  130.64   12.57
   6   6  -4  128.90   27.37
   6  -6  -4  124.15   35.76
   6  -6  -4  129.69    6.52
  -6   6  -5   91.17   25.72
  -6   6   5  130.92   27.22
   6   6  -5  108.58   20.06
   6   6   5  103.45   23.52
   6   6  -5  107.18   17.92
   6  -6  -5  115.74   30.64
   6  -6  -5   90.04    7.19
  -6   6  -6   19.42    7.92
  -6   6   6   27.97    6.68
   6   6  -6   18.43    4.59
   6   6   6   19.26   12.02
   6   6  -6   16.80    5.06
  -6  -6  -6   17.81    4.65
   6  -6  -6   24.94    7.01
   6  -6  -6   24.35    4.86
  -6   6   7   37.51    9.35
   6   6  -7   20.56    7.27
   6   6   7   44.97    9.92
   6   6  -7   31.98    7.07
  -6  -6  -7   16.62    5.27
   6  -6  -7   41.80   10.80
   6  -6  -7   45.28    8.61
   6  -6   7   19.82    6.37
  -6  -6  -7   27.51    6.31
  -6   6   8  167.32   17.29
   6   6  -8  137.08   22.69
   6   6   8  164.10   32.54
   6   6  -8  164.12   29.33
  -6  -6  -8  131.93    7.00
   6  -6  -8  161.39   37.82
  -6  -6  -8  152.15    9.53
   6  -6  -8  145.70   23.69
  -6  -6  -8  149.11   23.43
  -6   6   9  255.76   11.07
   6   6  -9  225.46   10.03
   6   6   9  281.30   26.42
   6  -6   9  269.89   24.54
   6   6  -9  228.03   29.79
  -6  -6  -9  215.17    5.56
   6  -6  -9  258.56   50.46
  -6  -6  -9  237.55    7.60
   6  -6  -9  288.02   30.26
  -6  -6  -9  251.29   32.56
  -6   6  10  226.64    8.92
   6   6 -10  222.27    8.18
   6   6  10  253.88   25.31
   6  -6  10  216.46   41.87
   6   6 -10  226.73   11.83
   6  -6 -10  200.62   41.66
  -6   6 -10  214.94   10.04
   6  -6 -10  234.07   10.76
  -6  -6 -10  234.33   34.68
  -6   6  11    4.74    2.04
   6   6 -11    1.76    1.73
   6   6  11    0.25    4.25
   6  -6  11    5.37    2.85
   6   6 -11    4.79    5.26
   6  -6 -11    5.45    7.11
  -6   6 -11    4.65    1.89
   6  -6 -11    4.32    3.63
  -6  -6 -11   10.11    4.39
  -6   6  12   24.20    8.26
   6   6 -12   18.61    7.08
   6   6  12   15.36    6.09
   6  -6  12   19.38    7.12
   6   6 -12   26.21   10.51
   6  -6 -12    8.60    8.45
  -6   6 -12   16.69    4.29
   6  -6 -12   39.39    7.06
  -6  -6 -12   17.69    7.88
   6   6  13   11.05    4.77
   6  -6  13    6.86    3.77
   6   6 -13   11.65    4.85
   6  -6 -13   10.00    4.23
  -6   6 -13    8.07    2.67
   6  -6 -13   12.73    3.57
  -6  -6 -13   12.26    7.44
   6   6  14  335.43   31.16
   6  -6  14  318.58   29.57
   6   6 -14  334.42   31.81
   6  -6 -14  282.48   16.32
  -6   6 -14  320.69   28.89
   6  -6 -14  289.11   49.08
  -6  -6 -14  337.28   58.56
   6   6  15   16.84    6.43
   6  -6  15   25.89    5.59
   6   6 -15   30.63   11.02
  -6   6 -15   36.85   11.99
   6  -6 -15   31.68    8.36
  -6  -6 -15   29.39    9.31
   6   6  16    5.00    3.95
   6  -6  16    5.33    2.81
   6   6 -16    8.39    5.27
  -6   6 -16    3.81    4.08
   6  -6 -16   -0.79    5.84
  -6  -6 -16   -1.43    5.79
   6   6 -17   15.08    7.44
   6  -6 -17    0.17    6.56
  -6   6 -17    7.28    5.12
  -6  -6 -17    7.97    3.01
   6   6 -18   28.99   14.45
   6  -6 -18   16.44    6.28
   6  -6 -18   26.96    9.49
  -6  -6 -18   13.02    4.48
  -6   7   0  102.96   18.17
   6   7   0  107.71   24.76
   6   7   0   92.63   22.95
   6  -7   0  106.48   19.82
  -6   7  -1  365.07   20.63
  -6   7   1  373.78   29.98
   6   7  -1  384.92   20.41
   6   7   1  375.95   20.12
   6   7   1  341.80   15.79
   6   7  -1  371.97   17.31
   6  -7  -1  405.70   44.58
   6  -7   1  405.02   35.41
   6  -7  -1  379.16   14.15
  -6   7  -2   33.44   10.28
  -6   7   2   12.14    4.79
   6   7   2   38.89    9.50
   6   7   2   20.34    6.55
   6   7  -2   21.49    5.10
   6  -7  -2   35.24    8.08
   6  -7   2   22.54    9.17
   6  -7  -2   31.23    3.54
  -6   7  -3   48.07   16.50
  -6   7   3   44.30   11.33
   6   7  -3   63.50   13.42
   6   7   3   41.76   11.40
   6   7   3   50.42   14.47
   6   7  -3   62.04   13.99
   6  -7  -3   65.98   11.16
   6  -7  -3   53.06    9.45
  -6   7  -4   40.58   11.88
  -6   7   4   34.56    8.13
   6   7  -4   65.40   13.81
   6   7   4   42.25   12.27
   6   7  -4   57.88   11.45
   6  -7  -4   52.49   12.53
   6  -7  -4   39.88   10.84
  -6   7  -5  203.17   12.72
  -6   7   5  157.43   23.86
   6   7  -5  185.00   23.22
   6   7   5  218.81   43.06
   6   7  -5  188.62   37.96
   6  -7  -5  204.04   34.70
   6  -7  -5  205.15   17.58
  -6   7  -6  214.75   14.25
  -6   7   6  278.15   17.94
   6   7  -6  264.69   37.99
   6   7   6  212.96   13.91
   6   7  -6  264.69   35.37
   6  -7  -6  224.61   32.25
   6  -7  -6  248.87   26.65
   6  -7   6  221.96   10.03
  -6   7   7  143.13   23.79
   6   7  -7  159.06    9.58
   6   7   7  170.57   31.36
   6   7  -7  168.01   34.31
   6  -7  -7  144.63   24.52
   6  -7  -7  165.89   21.18
   6  -7   7  126.33    6.40
  -6  -7  -7  141.88   23.49
  -6   7   8   22.35    9.49
   6   7  -8   28.43    8.39
   6   7   8   30.56   13.13
   6   7  -8   21.56    6.27
   6  -7  -8   21.10    8.78
  -6  -7  -8   22.76    6.18
   6  -7  -8   15.10    4.90
  -6  -7  -8   34.86   10.38
  -6   7  -9   51.99   13.25
  -6   7   9   67.56   10.97
   6   7  -9   50.78    8.38
   6   7   9   49.05    8.87
   6   7  -9   69.39   13.19
   6  -7  -9   65.36   17.72
  -6  -7  -9   49.02   11.97
   6  -7  -9   64.73    9.41
  -6  -7  -9   71.66   15.38
  -6   7 -10   64.93   17.46
  -6   7  10   58.77   14.31
   6   7 -10   55.93   17.57
   6   7  10   74.53   16.00
   6   7 -10   61.58   18.29
   6  -7 -10   59.55   18.58
  -6  -7 -10   64.52    4.46
   6  -7 -10   78.61   17.30
  -6  -7 -10   56.67   15.17
  -6   7  11   99.70   25.98
   6   7 -11   92.54   17.07
   6   7  11   92.18   17.68
   6  -7  11   93.99   20.88
   6   7 -11   72.80   14.91
   6  -7 -11   79.65   22.09
   6  -7 -11  116.59   23.09
  -6  -7 -11   91.86   19.67
  -6   7  12   41.95   12.18
   6   7 -12   35.66    9.41
   6   7  12   34.74    9.96
   6  -7  12   39.35    9.81
   6   7 -12   33.16   10.54
   6  -7 -12   27.10   12.08
   6  -7 -12   44.17    9.24
  -6  -7 -12   50.35   10.34
   6   7  13   39.31   13.78
   6  -7  13   32.03    9.80
   6   7 -13   31.33    8.39
   6  -7 -13   33.30   11.56
   6  -7 -13   36.96   15.96
  -6  -7 -13   44.92   10.71
   6   7  14    4.35    3.75
   6  -7  14   11.44    4.32
   6   7 -14   -0.58    5.27
   6  -7 -14   13.38    6.04
   6  -7 -14    7.51    3.44
  -6  -7 -14    5.40    4.53
   6   7  15   34.37    8.34
   6  -7  15   22.98    6.91
   6   7 -15   28.04    8.90
   6  -7 -15   34.40   12.15
  -6  -7 -15   44.09   19.50
   6   7  16   11.98    6.89
   6  -7  16    8.42    3.31
   6   7 -16   21.73    7.04
   6  -7 -16    5.19    5.22
  -6  -7 -16   10.21    6.58
   6   7  17   16.88    5.87
   6   7 -17   31.49   10.57
   6  -7 -17   29.96   11.33
   6  -7 -17   35.00    9.27
   6   7 -18   27.24    9.48
   6  -7 -18   30.65   10.13
   6  -7 -18   45.14   15.72
  -6  -7 -18   29.15   18.70
  -6   8   0   15.68    8.72
   6   8   0   13.05    6.13
   6   8   0    3.37    3.41
   6  -8   0    3.78    5.83
  -6   8  -1  143.19   34.06
  -6   8   1  144.46   18.16
   6   8  -1  156.47   25.93
   6   8   1  142.80   29.76
   6   8   1  151.33   28.64
   6   8  -1  142.03   14.81
   6  -8  -1  160.03   32.19
   6  -8   1  177.43   38.11
   6  -8  -1  128.93    3.50
  -6   8  -2   46.46   12.13
  -6   8   2   32.70    7.31
   6   8  -2   32.43   10.80
   6   8   2   33.98   12.61
   6   8   2   39.14    5.84
   6   8  -2   55.13   11.09
   6  -8  -2   49.69    9.97
   6  -8  -2   34.85    8.75
  -6   8  -3  249.57   13.93
  -6   8   3  304.75   20.92
   6   8   3  270.47   24.61
   6   8   3  327.40   14.26
   6   8  -3  291.84   17.35
   6  -8  -3  305.29   38.28
   6  -8  -3  301.43   11.36
  -6   8  -4  198.38   15.87
  -6   8   4  200.12   16.46
   6   8   4  249.06   34.48
   6   8  -4  197.90   38.61
   6  -8  -4  218.91   41.31
   6  -8  -4  222.33   20.36
  -6   8  -5   -5.13    5.97
  -6   8   5    5.87    3.22
   6   8  -5   -0.11    6.15
   6   8   5    5.21    7.68
   6   8  -5   -1.41    3.44
   6  -8  -5    7.26    4.10
   6  -8  -5    4.22    3.65
  -6   8  -6    6.07    5.75
  -6   8   6    3.95    2.74
   6   8  -6   10.59    8.25
   6   8   6   24.97    7.75
   6   8  -6    9.59    4.95
   6  -8  -6   11.15    5.67
   6  -8  -6    3.97    2.15
   6  -8   6    0.74    0.85
  -6   8  -7   13.54    4.05
  -6   8   7   23.97    7.01
   6   8  -7   18.21    4.96
   6   8   7   30.15   10.04
   6   8  -7   23.13    6.76
   6  -8  -7   20.85   11.73
   6  -8  -7   18.14    5.32
  -6  -8  -7   18.69    6.10
  -6   8   8  314.64   12.54
   6   8  -8  277.75   14.65
   6   8   8  333.53   25.26
   6   8  -8  277.44   12.58
   6  -8  -8  317.54   58.58
  -6  -8  -8  279.83    7.89
   6  -8  -8  287.32   38.67
  -6  -8  -8  329.38   22.50
  -6   8  -9  356.58   20.35
  -6   8   9  381.30   32.20
   6   8  -9  384.83   32.09
   6   8   9  354.74   23.88
   6   8  -9  341.31   14.19
   6  -8  -9  331.03   49.80
  -6  -8  -9  344.55    7.60
   6  -8  -9  417.84   34.93
  -6  -8  -9  400.80   37.81
  -6   8 -10   14.03    4.87
  -6   8  10    7.08    3.20
   6   8 -10    0.66    2.14
   6   8  10   12.11    4.75
   6   8 -10   14.06    5.80
   6  -8 -10   15.12    6.44
  -6  -8 -10    5.26    1.79
   6  -8 -10   12.96    4.02
  -6  -8 -10    6.60    6.54
  -6   8 -11    5.97    4.66
  -6   8  11    7.89    4.56
   6   8 -11   11.21    4.14
   6   8  11   15.85    6.78
   6   8 -11   14.35    6.80
   6  -8 -11   -2.61    8.19
   6  -8 -11    1.31    3.06
  -6  -8 -11   10.77    5.44
   6   8 -12   51.91   14.75
   6   8  12   52.84   15.44
   6  -8  12   40.90   10.27
   6   8 -12   62.10   23.01
   6  -8 -12   72.76   21.30
   6  -8 -12   60.50   11.00
  -6  -8 -12   63.28   13.49
   6   8  13   62.77   22.92
   6  -8  13   51.90   16.62
   6   8 -13   43.82   16.62
   6  -8 -13   48.73   16.27
   6  -8 -13   54.63   11.09
  -6  -8 -13   86.75   24.17
   6   8  14   11.91    3.43
   6  -8  14    3.86    3.93
   6   8 -14   24.26    7.19
   6  -8 -14    7.79    6.13
   6  -8 -14    4.36    4.57
  -6  -8 -14    5.78    4.37
   6   8  15   22.03    9.93
   6  -8  15   31.22    9.66
   6   8 -15   38.84   13.20
   6  -8 -15   40.80    8.31
  -6  -8 -15   35.03    9.95
   6   8  16   28.86   10.29
   6  -8  16   22.47    9.04
   6   8 -16   31.23   10.51
   6  -8 -16   34.61    8.64
   6  -8 -16   35.71   10.63
  -6  -8 -16   32.92   10.93
   6   8 -17    7.08    4.07
   6  -8 -17    5.72    4.79
   6  -8 -17   15.07    6.18
  -6  -8 -17   16.07    6.57
  -6   9   0  212.91   15.70
   6   9   0  238.95   45.07
   6   9   0  247.22   33.35
   6  -9   0  266.30   36.98
   6  -9   0  226.07    7.84
  -6   9  -1  136.18   25.92
  -6   9   1  158.80   20.67
   6   9  -1  161.75   35.83
   6   9   1  203.99   27.50
   6   9   1  174.62   30.45
   6   9  -1  143.27   15.11
   6  -9  -1  182.79   36.73
   6  -9   1  155.91   25.47
   6  -9  -1  154.12    6.33
  -6   9  -2   81.12   17.93
  -6   9   2   79.18   12.07
   6   9  -2  103.63   21.26
   6   9   2  110.23   24.11
   6   9   2   75.46   25.96
   6   9  -2   94.10   12.11
   6  -9  -2   94.00   22.27
   6  -9  -2   62.30   13.68
  -6   9  -3   22.53    5.09
  -6   9   3   25.25    6.49
   6   9   3   23.23    7.00
   6   9  -3   25.54    6.72
   6  -9  -3   10.70    7.66
   6  -9  -3   17.77    4.32
  -6   9  -4  351.74   48.44
  -6   9   4  409.82   27.43
   6   9   4  433.30   20.57
   6   9  -4  375.03   35.88
   6  -9  -4  401.32   19.25
   6  -9  -4  427.50   13.69
  -6   9  -5  138.29   29.48
  -6   9   5  131.78   16.60
   6   9  -5  142.23   31.09
   6   9   5  167.70   26.50
   6   9  -5  133.64   28.16
   6  -9  -5  160.07   24.06
   6  -9  -5  139.85    7.39
  -6   9  -6   45.28    8.47
  -6   9   6   66.08   12.61
   6   9  -6   42.83    8.43
   6   9   6   42.62   15.38
   6   9  -6   53.63   12.47
   6  -9  -6   31.07    8.61
   6  -9  -6   38.17    9.92
  -6   9  -7  166.31   24.43
  -6   9   7  179.09   13.33
   6   9  -7  166.80   26.16
   6   9   7  147.91   36.57
   6   9  -7  158.40   26.68
   6  -9  -7  141.42   30.57
   6  -9  -7  126.17   13.88
  -6  -9  -7  154.81   27.50
  -6   9   8  157.69   25.15
   6   9  -8  171.62   35.61
   6   9   8  154.20   30.88
   6   9  -8  181.11   20.96
   6  -9  -8  150.43   37.51
   6  -9  -8  149.03   31.37
  -6  -9  -8  173.80   43.71
  -6   9  -9   12.80    5.44
  -6   9   9   10.11    3.81
   6   9  -9   11.10    6.07
   6   9   9    5.01    5.69
   6   9  -9   14.40    5.12
   6  -9  -9    8.94    5.15
  -6  -9  -9    8.49    3.02
   6  -9  -9    9.65    3.64
  -6  -9  -9   19.64   10.08
  -6   9 -10   65.43   14.79
  -6   9  10   66.64   12.17
   6   9 -10   76.20   16.93
   6   9  10   66.14   13.12
   6   9 -10   67.17   16.22
   6  -9 -10   66.95   20.68
   6  -9 -10   75.93   13.80
  -6  -9 -10   57.72   18.85
  -6   9 -11   77.29   13.76
  -6   9  11   89.73   20.20
   6   9 -11   61.49   18.78
   6   9  11   77.02   29.76
   6   9 -11   63.58   16.93
   6  -9 -11   73.47   24.22
   6  -9 -11   85.42   22.22
  -6  -9 -11   91.48   24.24
  -6   9 -12  321.79   30.12
  -6   9  12  269.44   31.20
   6   9 -12  278.20   11.16
   6   9  12  287.95   24.71
   6   9 -12  219.87   40.33
   6  -9 -12  248.09   44.10
   6  -9 -12  291.96   27.41
  -6  -9 -12  275.61   14.85
  -6   9  13   16.55    6.44
   6   9  13   17.86    6.42
   6  -9  13    8.87    3.91
   6   9 -13   19.65    8.21
   6  -9 -13   21.93    8.49
   6  -9 -13   24.25    9.24
  -6  -9 -13   19.34    6.58
   6   9  14    8.44    4.75
   6   9 -14   20.78    7.46
   6  -9 -14   10.40    5.35
   6  -9 -14   12.13    3.27
  -6  -9 -14   20.26    7.88
   6   9  15   10.86    7.77
   6  -9  15    4.12    2.22
   6   9 -15   10.07    4.56
   6  -9 -15    1.62    2.71
  -6  -9 -15   16.73    9.76
   6   9  16   32.98    9.28
   6  -9  16   18.74   11.34
   6   9 -16   34.20    8.45
   6  -9 -16   27.25   13.28
   6  -9 -16   26.32   12.77
  -6  -9 -16   32.10   14.02
  -6  10   0  113.25   20.09
   6  10   0  129.60   21.52
   6  10   0  112.04   23.53
   6 -10   0  117.32   25.86
   6 -10   0   85.61    5.24
  -6  10  -1  226.29   36.74
  -6  10   1  195.78   22.53
   6  10  -1  216.94   45.29
   6  10   1  239.95   35.66
   6  10   1  239.46   15.08
   6  10  -1  225.27   19.24
   6 -10  -1  253.34   27.06
   6 -10   1  184.51    4.28
   6 -10  -1  224.93    7.06
  -6  10  -2  116.46   35.53
  -6  10   2  163.73   17.45
   6  10  -2  161.55   29.57
   6  10   2  135.57   33.60
   6  10  -2  165.39   23.51
   6 -10  -2  163.01   34.63
   6 -10  -2  139.54    6.82
  -6  10  -3  137.17   28.27
  -6  10   3   94.84   16.50
   6  10   3  103.09   26.30
   6  10  -3  110.03   23.11
   6 -10  -3  126.18   27.03
   6 -10  -3  104.47    8.74
  -6  10  -4   29.92    9.08
  -6  10   4   11.93    6.10
   6  10   4   15.50    6.76
   6  10  -4    9.96    4.18
   6 -10  -4   22.29   10.33
   6 -10  -4   10.43    3.38
  -6  10  -5   42.49   12.51
  -6  10   5   46.44   14.93
   6  10  -5   37.81    9.23
   6  10   5   40.64    8.92
   6  10  -5   49.60    9.68
   6 -10  -5   43.93   12.30
   6 -10  -5   34.48   12.94
  -6  10  -6    3.45    2.40
  -6  10   6    7.14    3.52
   6  10  -6    7.82    5.23
   6  10   6    3.88    4.47
   6  10  -6    7.14    4.07
   6 -10  -6   22.39   11.34
   6 -10  -6    5.62    2.11
  -6  10  -7   41.07    8.44
  -6  10   7   41.55   12.38
   6  10  -7   39.27   13.71
   6  10   7   50.57    9.17
   6  10  -7   43.24   10.97
   6 -10  -7   30.27   11.32
   6 -10  -7   35.45    9.24
  -6 -10  -7   61.67   14.51
  -6  10   8    9.31    6.61
   6  10  -8   12.26    3.95
   6  10   8   14.44    7.83
   6  10  -8   11.58    6.79
   6 -10  -8   -0.24    7.39
   6 -10  -8    7.40    3.82
  -6 -10  -8   10.42    8.14
  -6  10   9  124.71   28.84
   6  10  -9  134.57   14.78
   6  10   9  139.82   20.21
   6  10  -9  146.19   38.61
   6 -10  -9   91.25   30.68
  -6 -10  -9  125.06    7.07
   6 -10  -9  127.97   15.70
  -6 -10  -9  130.91   44.44
  -6  10 -10   77.24   20.97
  -6  10  10   78.71   22.59
   6  10 -10   51.48   19.83
   6  10  10   64.42   12.13
   6  10 -10   76.45   17.50
   6 -10 -10   77.86   17.56
   6 -10 -10   67.54   18.23
  -6 -10 -10   69.80   21.80
  -6  10 -11   42.45    9.68
  -6  10  11   52.53    7.46
   6  10 -11   33.88   11.08
   6  10  11   29.56    8.74
   6  10 -11   48.69   14.11
   6 -10 -11   41.47   12.81
   6 -10 -11   33.43    6.48
  -6 -10 -11   42.66   13.80
  -6  10 -12   26.52    9.42
  -6  10  12   41.54    9.64
   6  10 -12   41.19   15.30
   6  10  12   58.37   21.45
   6  10 -12   56.95   14.31
   6 -10 -12   55.55   13.48
   6 -10 -12   31.65   10.08
  -6 -10 -12   72.16   27.31
  -6  10 -13   68.71   24.61
   6  10  13   79.56   27.61
   6  10 -13   84.25   25.33
   6 -10 -13   73.62   27.89
   6 -10 -13   94.90   19.35
  -6 -10 -13   80.22   25.31
   6  10  14   23.90    7.71
   6 -10  14   24.03    8.12
   6  10 -14   27.23   11.06
   6 -10 -14   21.25    6.91
  -6 -10 -14   18.13   11.68
   6  10  15   20.86    7.67
   6 -10  15    7.16    4.22
   6  10 -15   17.89    9.02
   6 -10 -15   21.18    6.94
  -6 -10 -15   13.03    6.86
   6  10  16    2.31    3.74
   6 -10  16    7.57    3.08
   6  10 -16    7.23    3.99
   6 -10 -16    5.63    5.77
   6 -10 -16   27.89   15.40
  -6 -10 -16   12.97    8.97
  -6  11   0   23.60    7.80
   6  11   0   17.17   10.35
   6  11   0   13.18    3.66
   6 -11   0   29.69   11.46
   6 -11   0   13.81    4.41
  -6  11  -1   29.30    8.11
  -6  11   1   28.48    9.04
   6  11  -1   38.08    9.97
   6  11   1   34.41   10.41
   6  11   1   21.77   10.67
   6  11  -1   23.30    6.91
   6 -11  -1   30.24    8.51
   6 -11  -1   17.93    6.34
  -6  11  -2  104.42   22.64
  -6  11   2  120.14   21.08
   6  11  -2  103.90   22.69
   6  11   2  114.26   26.43
   6  11  -2  123.05   19.24
   6 -11  -2  116.58   22.55
   6 -11  -2  100.26    9.37
  -6  11  -3   16.25    5.21
  -6  11   3   10.83    4.65
   6  11  -3   29.51    9.31
   6  11   3   20.05   11.73
   6  11  -3   14.72    5.74
   6 -11  -3    8.23    7.07
   6 -11  -3   11.58    3.62
  -6  11  -4   14.21    7.28
  -6  11   4    6.10    5.50
   6  11   4   10.06    6.32
   6  11  -4    7.94    5.11
   6 -11  -4   16.15    9.57
   6 -11  -4    2.58    2.94
  -6  11  -5   25.50   10.44
  -6  11   5   21.35    6.88
   6  11  -5   23.09    6.46
   6  11   5   20.25    7.16
   6  11  -5   18.40    4.88
   6 -11  -5   14.05    7.58
   6 -11  -5   14.11    4.31
  -6  11  -6  270.93   45.61
  -6  11   6  306.66   31.39
   6  11  -6  258.73   20.36
   6  11   6  272.01   15.30
   6  11  -6  243.62   30.65
   6 -11  -6  250.35   54.19
   6 -11  -6  275.19    9.42
  -6  11  -7   82.92   22.28
  -6  11   7   71.75   16.12
   6  11  -7   62.24   18.29
   6  11   7   62.56   15.32
   6  11  -7   54.58    9.57
   6 -11  -7   71.59   19.73
   6 -11  -7   64.06   14.38
  -6 -11  -7   80.54   27.60
  -6  11  -8   59.04   13.58
  -6  11   8   63.56   16.76
   6  11  -8   53.44   10.36
   6  11   8   66.25    8.88
   6  11  -8   54.30   11.26
   6 -11  -8   60.82   29.77
   6 -11  -8   61.47   18.49
  -6 -11  -8   61.19   18.23
  -6  11   9   38.76   15.28
   6  11  -9   38.15   13.62
   6  11   9   37.47   10.58
   6  11  -9   52.02   10.04
   6 -11  -9   49.16   10.17
  -6 -11  -9   36.55    9.04
   6 -11  -9   42.07   11.47
  -6 -11  -9   55.45   13.04
  -6  11 -10   97.79   26.92
  -6  11  10   82.70   28.57
   6  11 -10   77.98   15.03
   6  11  10   90.42   19.58
   6  11 -10   87.55   19.00
   6 -11 -10   77.40   20.87
   6 -11 -10   92.16   15.47
  -6 -11 -10   94.57   23.97
  -6  11 -11    3.38    3.26
  -6  11  11    7.01    3.71
   6  11 -11   11.63    5.18
   6  11  11    9.88    5.29
   6  11 -11   12.52    5.53
   6 -11 -11   14.30   10.18
   6 -11 -11    7.70    4.51
  -6 -11 -11   15.01    6.78
  -6  11 -12    8.81    5.57
  -6  11  12    1.45    3.88
   6  11 -12    6.12    4.76
   6  11  12    7.88    5.52
   6  11 -12    5.63    2.70
   6 -11 -12   14.60    6.83
   6 -11 -12    7.40    4.61
  -6 -11 -12    5.77    5.87
  -6  11 -13   -1.72    4.92
   6  11  13    8.08    4.83
   6  11 -13   11.31    4.27
   6 -11 -13   12.83    6.31
   6 -11 -13    1.84    2.92
  -6 -11 -13   10.75    7.23
   6  11  14   18.36    6.22
   6  11 -14    8.78    5.77
   6 -11 -14    3.98    3.92
  -6 -11 -14    5.73    7.68
   6  11  15    3.69    3.94
   6 -11  15    0.16    3.25
   6  11 -15   10.13    4.42
   6 -11 -15    3.77    2.27
  -6 -11 -15    3.07    4.28
  -6  12   0   99.31   18.98
   6  12   0   64.60   19.91
   6  12   0   90.64   22.88
   6 -12   0   98.39   22.00
  -6  12  -1   10.27    7.73
  -6  12   1   28.79    8.22
   6  12  -1   14.33    8.05
   6  12   1   10.66    5.32
   6  12  -1    9.76    2.46
   6 -12  -1   11.09    8.90
  -6  12  -2   45.46   11.74
  -6  12   2   32.41   10.45
   6  12  -2   30.60   11.09
   6  12   2   37.53   16.44
   6  12  -2   39.55   10.07
   6 -12  -2   49.25   10.79
   6 -12  -2   26.97   10.08
  -6  12  -3  188.54   23.20
  -6  12   3  201.36   24.43
   6  12  -3  214.08   32.57
   6  12   3  179.87   35.72
   6  12  -3  201.02   17.56
   6 -12  -3  131.48   23.38
   6 -12  -3  153.59    9.76
  -6  12  -4   15.59    5.59
  -6  12   4   30.05    7.70
   6  12   4    8.63    8.60
   6  12  -4   18.03    6.90
   6 -12  -4    8.62    7.76
   6 -12  -4   11.47    5.00
  -6  12  -5   90.60   18.71
  -6  12   5   73.80   11.05
   6  12  -5   83.22   14.24
   6  12   5   55.15   24.41
   6  12  -5   53.26    8.50
   6 -12  -5   74.94   20.28
   6 -12  -5   55.95   15.09
  -6  12  -6   11.84    5.93
  -6  12   6    9.60    4.91
   6  12  -6   22.06   11.10
   6  12   6   11.49    7.20
   6  12  -6   13.98    4.98
   6 -12  -6   15.99    9.23
   6 -12  -6   14.24    4.17
  -6  12  -7  125.66   24.46
  -6  12   7  152.05   20.64
   6  12  -7  117.79   35.19
   6  12   7  151.95   49.35
   6  12  -7  125.03   29.47
   6 -12  -7  147.81   46.15
   6 -12  -7  116.39   19.73
  -6 -12  -7  128.37   21.99
  -6  12  -8   13.84    6.35
  -6  12   8   22.77   12.08
   6  12  -8   12.00    3.90
   6  12   8   21.97   12.25
   6  12  -8    9.89    3.65
   6 -12  -8   21.99    9.90
   6 -12  -8   12.90    4.85
  -6 -12  -8    7.65    7.82
  -6  12   9   68.44   20.05
   6  12  -9   78.28   26.06
   6  12   9   95.25   21.56
   6  12  -9   74.25   12.76
   6 -12  -9   73.96   20.18
   6 -12  -9   72.27   12.34
  -6 -12  -9   88.25   18.43
  -6  12 -10   19.64    7.16
  -6  12  10   15.45    4.42
   6  12 -10   15.75    5.98
   6  12  10   23.50   12.93
   6  12 -10    5.93    4.40
   6 -12 -10   12.52    9.48
   6 -12 -10   12.77    6.46
  -6 -12 -10   12.59    7.12
  -6  12 -11   29.88    9.71
  -6  12  11   16.09    9.23
   6  12 -11   13.08    4.98
   6  12  11   18.85    6.39
   6  12 -11   32.19    9.36
   6 -12 -11   13.93    7.34
   6 -12 -11   10.31    4.15
  -6 -12 -11   31.39   11.52
  -6  12 -12   14.60    6.14
  -6  12  12   22.41   15.85
   6  12  12   27.16   14.87
   6  12 -12   49.39    9.35
   6 -12 -12   13.54    8.94
   6 -12 -12   16.52    4.18
  -6 -12 -12   30.12   11.98
  -6  12 -13    6.50    4.03
   6  12  13   10.80    4.85
   6  12 -13    5.76    5.45
   6 -12 -13    6.46    6.89
   6 -12 -13    1.54    2.62
  -6 -12 -13    9.03    7.31
  -6  12 -14    7.58    4.21
   6  12  14    4.38    3.22
   6  12 -14   13.30    5.18
   6 -12 -14    5.89    2.59
  -6 -12 -14   10.59    6.46
  -6  13   0  101.06   23.01
   6  13   0  124.85   25.03
   6 -13   0  116.49   33.29
  -6  13  -1   78.95   30.95
  -6  13   1   87.80   23.24
   6  13  -1   71.85   15.39
   6  13   1   81.94   22.80
   6  13  -1   91.22   17.09
   6 -13  -1  105.75   26.86
  -6  13  -2   58.44   14.05
  -6  13   2   30.29   11.25
   6  13  -2   48.95   12.65
   6  13   2   32.62   12.55
   6  13  -2   40.51   12.17
   6 -13  -2   27.08    8.78
  -6  13  -3   72.38   16.92
  -6  13   3   90.98   21.53
   6  13  -3   67.97   22.23
   6  13   3   90.11   26.62
   6  13  -3   65.79   17.00
   6 -13  -3   76.33   25.45
  -6  13  -4   51.19   12.64
  -6  13   4   31.32   13.88
   6  13  -4   16.32    7.78
   6  13   4   48.22   12.78
   6  13  -4   59.94   20.49
   6 -13  -4   51.34   16.17
  -6  13  -5    8.36    4.31
  -6  13   5    5.26    4.47
   6  13   5    3.55    2.91
   6  13  -5    6.55    5.62
   6 -13  -5   -0.48    8.43
   6 -13  -5    6.40    3.40
  -6  13  -6   65.53   12.76
  -6  13   6   34.22    9.91
   6  13  -6   52.18   10.61
   6  13   6   47.25   12.11
   6  13  -6   59.84    8.18
   6 -13  -6   47.07   10.23
   6 -13  -6   44.45   14.98
  -6  13  -7    8.17    3.39
  -6  13   7    7.66    6.62
   6  13  -7    6.66    4.55
   6  13   7   12.23    7.81
   6  13  -7    9.45    6.12
   6 -13  -7   13.96    6.79
   6 -13  -7    7.26    4.43
  -6 -13  -7   13.32    6.42
  -6  13  -8   40.50   10.20
  -6  13   8   35.30   12.53
   6  13  -8   24.60   14.35
   6  13   8   45.11   10.65
   6  13  -8   33.01    7.34
   6 -13  -8   60.90   16.50
   6 -13  -8   23.04   12.04
  -6 -13  -8   46.03   12.00
  -6  13   9   65.51   22.24
   6  13  -9   77.89   22.64
   6  13   9   63.81   22.70
   6  13  -9   75.60   16.07
   6 -13  -9   74.80   17.32
   6 -13  -9   49.92   21.37
  -6 -13  -9   97.10   19.91
  -6  13  10   25.79    8.55
   6  13 -10   24.43    6.90
   6  13  10   26.15    7.49
   6  13 -10   27.05    7.55
   6 -13 -10   10.20    4.39
   6 -13 -10   13.40    5.41
  -6 -13 -10   28.45   11.43
  -6  13 -11   24.46   10.66
  -6  13  11   18.53    5.50
   6  13 -11   26.08   13.92
   6  13  11   21.91    8.03
   6  13 -11   29.40    7.69
   6 -13 -11   23.83    8.38
   6 -13 -11    6.59    3.27
  -6 -13 -11   20.89   11.80
  -6  13 -12   18.82    7.21
  -6  13  12    7.89    7.07
   6  13  12   18.09    7.06
   6  13 -12   10.39    4.42
   6 -13 -12   19.26    6.29
   6 -13 -12   17.66    9.79
  -6 -13 -12   18.62    7.27
  -6  13 -13    9.24    6.37
   6  13  13    9.26    6.09
   6  13 -13   11.15    4.39
   6 -13 -13   16.63    5.54
   6 -13 -13   13.71    6.97
  -6 -13 -13   13.00    5.33
  -6  14   0    9.70    7.31
   6  14   0   39.47   14.36
   6 -14   0   13.81    7.43
  -6  14  -1   99.07   17.68
  -6  14   1   62.89   15.62
   6  14  -1  119.07   27.34
   6  14   1  102.09   23.59
   6 -14  -1  112.51   25.64
  -6  14  -2   76.61   15.72
  -6  14   2   83.88   23.11
   6  14  -2  100.54   30.57
   6  14   2   90.23   23.85
   6 -14  -2   81.18   21.10
  -6  14  -3   31.31   16.81
  -6  14   3   46.17   13.48
   6  14  -3   46.22   15.31
   6  14   3   61.67   16.46
   6  14  -3   38.18    8.39
   6 -14  -3   55.56   26.47
  -6  14  -4   33.15    9.13
  -6  14   4   52.58   12.23
   6  14  -4   38.09   12.83
   6  14   4   33.08   11.34
   6  14  -4   39.76    9.53
   6 -14  -4   38.77   18.34
  -6  14  -5   12.51    6.97
  -6  14   5   11.45    4.12
   6  14   5   17.35    4.39
   6  14  -5   16.90    6.40
   6 -14  -5   20.52    8.80
  -6  14  -6   41.58   11.97
  -6  14   6   37.02   13.78
   6  14  -6   47.34   13.34
   6  14   6   44.50   15.13
   6  14  -6   30.25    8.09
   6 -14  -6   54.37   11.37
  -6  14  -7    4.89    3.21
  -6  14   7    7.46    7.68
   6  14  -7    1.56    4.09
   6  14   7   11.55    3.73
   6  14  -7    7.40    3.32
   6 -14  -7   22.27    6.34
  -6 -14  -7   13.72    5.64
  -6  14  -8   11.33    4.69
   6  14  -8   33.89   10.41
   6  14   8   20.02   11.49
   6  14  -8   22.77    4.87
   6 -14  -8   22.89   12.05
  -6 -14  -8   31.20   17.98
  -6  14  -9   22.45    9.16
  -6  14   9   12.75    5.67
   6  14  -9   14.66    8.48
   6  14   9   14.17    4.45
   6  14  -9    8.39    4.33
   6 -14  -9    8.55    4.67
   6 -14  -9    6.62    4.35
  -6 -14  -9    7.71    5.42
  -6  14  10   19.59    8.78
   6  14  10    4.87    4.21
   6  14 -10   12.81    6.49
   6 -14 -10   17.45    6.58
   6 -14 -10   10.84    5.28
  -6 -14 -10    9.01    6.95
  -6  14 -11   10.56    6.91
  -6  14  11   -0.11    4.34
   6  14 -11    7.60    5.71
   6  14  11    6.83    9.29
   6  14 -11   13.52    5.61
   6 -14 -11    8.26    6.63
   6 -14 -11    3.73    2.03
  -6 -14 -11   25.37   12.83
  -6  15   0   42.63    9.47
   6  15   0   13.85    8.65
   6 -15   0   36.19   11.20
  -6  15  -1   10.33    4.21
  -6  15   1    8.92    4.95
   6  15  -1    9.67    4.26
   6  15   1    5.42    5.29
   6 -15  -1   11.97    7.84
  -6  15  -2   24.56    8.74
  -6  15   2    8.64    4.24
   6  15  -2   12.75    5.80
   6  15   2   26.19   13.02
   6 -15  -2   14.05   13.14
  -6  15  -3   32.22   14.02
  -6  15   3   47.37   10.18
   6  15  -3   54.23   14.25
   6  15   3   45.99   14.34
   6 -15  -3   47.38   20.60
  -6  15  -4   14.60    5.07
  -6  15   4   24.03   10.98
   6  15  -4   23.78    9.68
   6  15   4   36.39   14.59
   6  15  -4   18.45    4.39
   6 -15  -4   15.80    6.39
  -6  15  -5   86.40   24.06
  -6  15   5   62.67   24.13
   6  15   5   92.40   22.50
   6  15  -5   66.46   18.20
   6 -15  -5   75.58   26.20
  -6  15  -6   10.38    8.31
  -6  15   6   12.32    4.19
   6  15  -6    9.91    3.84
   6  15   6   12.39    7.12
   6  15  -6   11.29    5.39
   6 -15  -6   10.42    9.09
  -6  15  -7   42.82   10.08
  -6  15   7   56.42   19.70
   6  15  -7   43.93   14.91
   6  15   7   44.82   16.60
   6  15  -7   60.03   20.15
   6 -15  -7   49.62   27.03
  -6 -15  -7   59.84   17.40
  -6  15  -8   16.64    9.13
  -6  15   8    7.70    5.14
   6  15  -8    8.56    3.64
   6  15   8   11.66    5.04
   6  15  -8   10.54    5.25
   6 -15  -8    6.05    9.06
  -6 -15  -8   19.11    5.59
  -6  15  -9    3.09    5.48
  -6  15   9   13.44    5.32
   6  15   9   16.23    6.34
   6  15  -9   16.54    8.46
   6 -15  -9   17.98    8.69
  -6 -15  -9   29.77   17.18
  -6  15  10    3.85    4.94
   6  15 -10   15.45    6.17
   6  15  10   13.43    8.27
   6  15 -10   11.24    4.50
   6 -15 -10   14.57    8.32
  -6 -15 -10   11.64    9.78
  -6  16   0   31.44   16.39
   6  16   0   52.46   15.68
   6 -16   0   51.76   18.40
  -6  16  -1    8.89    3.49
  -6  16   1   12.28    8.26
   6  16  -1   10.14    5.44
   6  16   1   19.34    6.58
   6 -16  -1   15.00    3.96
   6 -16   1   19.05   11.34
  -6  16  -2   16.61    5.51
  -6  16   2   11.71    6.07
   6  16  -2   10.99    3.99
   6  16   2   14.24    6.20
   6 -16  -2   11.32    6.59
  -6  16  -3   26.30    9.72
  -6  16   3   25.38   11.53
   6  16  -3   22.62   11.41
   6  16   3   29.97   12.37
   6 -16  -3   42.22   19.86
  -6  16  -4   56.38   18.42
  -6  16   4   56.99   15.29
   6  16  -4   37.11   14.40
   6  16   4   49.84   13.83
   6 -16  -4   39.07   20.61
  -6  16  -5   27.68    6.43
  -6  16   5   19.06   11.95
   6  16  -5   18.82    8.41
   6  16   5   46.95   13.44
   6 -16  -5   24.76    7.76
  -6  16  -6   14.13   11.52
  -6  16   6    6.77    8.19
   6  16  -6   11.71    6.03
   6  16   6   25.67    9.16
   6 -16  -6   17.50    7.99
  -6 -16  -6   14.83    6.67
  -6  16   7   18.67    9.06
   6  16  -7   23.60   12.12
   6  16   7   16.74    4.88
   6  16  -7   21.78    8.05
   6 -16  -7    5.93    5.21
  -6 -16  -7   24.56   15.56
  -6  17   0    8.94    7.36
   6  17   0   11.50    8.14
   6 -17   0   16.33    7.05
  -6  17  -1   28.32   12.19
  -6  17   1   21.09    8.58
   6  17  -1   24.62    8.54
   6  17   1   27.06    9.08
   6 -17  -1   27.97   12.59
   6 -17   1   36.77   15.04
  -6  17  -2   13.75    7.67
  -6  17   2   14.54    6.16
   6  17  -2   22.71    9.22
   6  17   2    5.59    2.43
   6 -17  -2   12.25    9.45
  -6  17  -3   14.40    5.43
  -6  17   3   12.69    7.08
   6  17  -3   13.58    8.61
   6  17   3    9.10    4.97
   6 -17  -3   24.23   13.82
  -6  17  -4    6.45    4.24
  -6  17   4    7.47    6.66
   6  17  -4    8.98    8.58
   6  17   4   21.85   11.02
   6 -17  -4    4.80    6.18
   7   0   0    3.01    3.71
   7   0   0    5.21    2.93
   7   0   1  159.63   26.40
   7   0  -1  131.30   16.45
   7   0   1  159.38   19.47
   7   0  -2   36.06    7.57
   7   0   2   41.10    8.70
   7   0  -2   41.66    8.81
   7   0   2   43.72    9.58
   7   0  -3  475.16   19.72
   7   0   3  481.72   29.16
   7   0  -3  495.23   20.97
   7   0   3  487.39   18.36
  -7   0  -3  411.35   27.96
   7   0  -4  163.00   28.16
   7   0   4  185.13   34.63
   7   0  -4  188.71   36.98
   7   0   4  167.98    9.48
   7   0  -5  186.31   13.75
   7   0   5  212.71   43.99
   7   0  -5  194.82   15.36
   7   0   5  174.33    7.67
  -7   0  -5  186.76    9.55
   7   0  -6    5.00    3.59
   7   0   6    9.89    8.65
   7   0   6    5.26    1.13
   7   0  -6   12.06    8.46
   7   0   6    6.00    1.68
  -7   0  -6    7.31    4.12
   7   0  -7   10.86    6.51
   7   0   7   14.25    6.95
   7   0   7    4.53    0.79
   7   0   7    6.41    1.72
   7   0  -7   11.32    7.05
  -7   0  -7   11.81    2.41
   7   0  -8  307.00   12.82
   7   0   8  327.22   18.03
   7   0  -8  307.74   17.40
  -7   0  -8  319.60   14.30
   7   0  -9   35.68    7.15
   7   0   9   52.00   14.49
   7   0  -9   42.50   11.27
  -7   0  -9   50.54   10.19
   7   0 -10   27.26    8.63
   7   0  10   59.47   15.01
   7   0 -10   42.04    9.46
  -7   0 -10   34.95   11.61
   7   0 -11  256.38    6.31
   7   0  11  249.55   47.86
   7   0 -11  271.54   40.24
  -7   0 -11  253.21   18.15
   7   0  12   13.56    6.46
   7   0 -12   -0.04    7.01
  -7   0 -12   -7.08    4.61
   7   0  13   48.66   16.38
   7   0 -13   40.22   10.04
  -7   0 -13   34.34    9.26
   7   0  14    9.62    4.89
   7   0 -14   -0.53    6.38
  -7   0 -14    2.89    4.22
   7   0  15   90.05   26.08
   7   0 -15   97.25   29.04
  -7   0 -15   96.78   28.66
   7   0  16   42.93   16.54
   7   0 -16   49.60   13.34
  -7   0 -16   48.69   21.06
   7   0  17   34.33   13.93
   7   0 -17   38.51   14.42
  -7   0 -17   50.21   12.64
   7   0 -18   10.02    4.62
  -7   0 -18   10.20    5.58
   7   0 -19   20.26    5.81
  -7   0 -19    7.94    4.60
   7   1   0   10.83    5.59
   7  -1   0   18.82    8.12
   7   1   0    5.42    5.94
   7  -1   0    7.09    3.88
   7   1   1  537.32   23.23
   7  -1   1  563.84   23.37
   7   1   1  509.22   19.30
   7   1  -1  498.96   25.56
   7  -1  -1  528.82   21.06
   7  -1   1  528.67   20.90
   7   1  -2  623.83   24.94
   7   1   2  665.01   26.72
   7  -1   2  646.53   27.89
   7   1   2  651.18   23.33
   7   1  -2  654.17   25.19
   7  -1  -2  655.35   26.93
   7  -1   2  640.00   25.37
  -7  -1  -2  641.30   22.98
   7   1  -3  144.94   10.77
   7   1   3  138.03   16.18
   7  -1   3  162.83   31.84
   7  -1  -3  173.66   31.89
   7   1   3  133.03   10.07
   7   1  -3  155.41   25.93
   7  -1  -3  165.93   26.26
   7  -1   3  150.39   16.25
  -7  -1  -3  129.75    9.83
   7   1  -4  157.77   29.77
   7   1   4  176.29   27.81
   7  -1  -4  153.72   23.38
   7  -1   4  187.22   28.74
   7   1   4  164.44    8.86
   7   1  -4  174.26   20.25
   7  -1  -4  184.76   38.05
   7  -1   4  148.96   10.40
  -7  -1  -4  140.68   11.80
  -7   1  -4  152.70    8.99
   7   1  -5  468.63   20.42
   7   1   5  506.65   28.29
   7  -1   5  473.41   25.10
   7  -1  -5  469.85   20.48
   7   1   5  471.95   17.54
   7   1  -5  476.04   22.12
   7  -1  -5  500.14   24.05
   7  -1   5  464.50   19.49
  -7   1  -5  501.29   20.38
  -7  -1  -5  455.12   19.68
   7   1  -6  228.34   11.48
   7   1   6  246.94   24.26
   7  -1  -6  245.98   13.19
   7  -1   6  282.43   46.70
   7  -1   6  224.60    8.89
   7   1   6  259.92    8.25
   7   1   6  249.83    7.93
   7   1  -6  250.96   14.63
   7  -1  -6  273.81   25.00
   7  -1   6  239.86   10.89
  -7   1  -6  247.08   11.08
  -7  -1  -6  258.30   13.07
   7   1  -7  388.06   16.15
   7   1   7  399.40   19.94
   7  -1  -7  373.48   16.85
   7  -1   7  395.92   27.82
   7  -1   7  360.26   11.94
   7   1  -7  376.09   24.97
   7  -1  -7  364.63   17.31
   7  -1   7  342.56   11.87
  -7   1  -7  397.50   18.17
  -7  -1  -7  371.53   16.05
   7   1  -8  256.69   11.18
   7   1   8  286.98   31.72
   7  -1  -8  242.66   14.84
   7  -1   8  247.82   15.13
   7  -1   8  243.87    8.26
   7   1  -8  267.52   29.57
   7  -1  -8  278.15   46.27
   7  -1   8  231.54    8.31
  -7   1  -8  244.10   11.48
  -7  -1  -8  257.82   12.83
   7   1  -9   79.12   16.83
   7   1   9   78.33   17.25
   7  -1  -9   71.92   13.87
   7  -1   9   93.23   20.57
   7  -1   9   69.08    3.45
   7   1  -9   84.12   19.09
   7  -1  -9   84.68   16.04
   7  -1   9   76.68    3.59
  -7   1  -9   82.43   15.35
  -7  -1  -9   84.97   15.84
   7   1 -10  209.19    8.44
   7   1  10  207.35   22.60
   7  -1 -10  185.30    7.38
   7  -1  10  228.65   24.10
   7   1 -10  225.67   38.88
   7  -1 -10  203.27   38.69
  -7   1 -10  209.30   10.99
  -7  -1 -10  211.28   11.45
   7   1 -11  101.05   11.81
   7  -1 -11   97.85    4.87
   7   1  11  122.33   24.85
   7  -1  11  107.60   22.58
   7   1 -11  122.52   23.84
   7  -1 -11  105.05   25.24
  -7   1 -11   92.89   16.48
  -7  -1 -11  114.56   19.64
   7  -1 -12   13.76    3.81
   7   1  12   28.10   10.79
   7  -1  12   34.01   12.16
   7   1 -12   39.15    9.64
   7  -1 -12   43.12   16.20
  -7   1 -12   26.46    5.71
  -7  -1 -12   22.28    5.82
   7   1  13   86.25   17.81
   7  -1  13   73.19   15.08
   7   1 -13   88.84   19.07
   7  -1 -13   98.20   19.54
  -7   1 -13   65.28   19.09
  -7  -1 -13   92.00   18.69
   7   1  14  177.54   29.14
   7  -1  14  189.93   20.23
   7   1 -14  208.66   47.18
   7  -1 -14  195.28   48.08
  -7   1 -14  207.37   22.96
  -7  -1 -14  214.64   12.43
   7   1  15   27.56    6.50
   7  -1  15   14.38    4.73
   7   1 -15   13.58    6.96
   7  -1 -15    6.99    3.97
  -7   1 -15   11.82    7.15
  -7  -1 -15   14.23    6.04
   7   1  16   17.31    6.67
   7  -1  16   31.33   17.77
   7   1 -16   27.02   11.86
   7  -1 -16   32.40   10.20
  -7   1 -16   39.09    9.36
   7  -1  17   21.90   13.52
   7   1 -17   31.94   10.98
   7  -1 -17   26.95    9.67
  -7   1 -17   30.96    8.18
  -7  -1 -17   26.85    9.36
   7   1 -18   13.28    7.07
   7  -1 -18   34.61   10.94
  -7   1 -18   24.39    6.29
  -7  -1 -18   19.55    7.67
   7   1 -19   15.33    7.43
  -7   1 -19   14.09    4.78
  -7  -1 -19   20.65    6.64
   7   2   0   -1.31    6.17
   7  -2   0    5.62    1.92
   7   2   0    6.33    3.54
   7  -2   0    3.09    2.82
   7   2   1    9.67    6.17
   7  -2   1    9.43    5.62
   7   2   1    3.40    2.18
   7   2  -1    5.40    2.97
   7  -2  -1   -1.28    5.45
   7  -2   1    6.30    3.43
  -7   2   1    1.15    0.84
   7   2  -2  199.70   12.98
   7   2   2  208.70   14.46
   7  -2   2  167.33   12.27
   7   2   2  209.83   11.45
   7   2  -2  172.15   11.16
   7  -2  -2  215.03   20.92
  -7  -2  -2  175.46   13.56
   7  -2   2  183.82   16.68
   7   2  -3  240.57   21.98
   7   2   3  242.27   16.07
   7  -2   3  272.60   17.85
   7  -2  -3  248.84   15.25
   7   2   3  233.27   12.19
   7   2  -3  260.96   15.71
   7  -2  -3  223.85   16.94
  -7  -2  -3  243.98   17.29
   7  -2   3  256.72   14.41
  -7   2  -3  234.81   12.17
   7   2  -4   73.32   15.03
   7   2   4   75.35   18.12
   7  -2   4   74.57   14.35
   7  -2  -4   83.84   16.24
   7   2   4   69.09    3.30
   7   2  -4   74.88   13.18
   7  -2  -4   82.43   16.87
   7  -2   4   65.05   13.83
  -7  -2  -4   65.69   11.48
  -7   2  -4   65.63    7.24
   7   2  -5  846.13   33.73
   7   2   5  800.84   34.17
   7  -2   5  859.01   36.03
   7  -2  -5  796.02   31.78
   7   2   5  803.92   29.00
   7   2  -5  834.30   34.38
   7  -2  -5  803.95   34.26
   7  -2   5  788.88   31.56
  -7  -2  -5  831.02   30.25
  -7   2  -5  801.21   31.28
   7   2  -6  361.40   16.62
   7   2   6  357.49   19.12
   7  -2   6  378.22   20.41
   7  -2  -6  394.95   17.99
   7  -2   6  343.16   15.67
   7   2  -6  383.11   18.87
   7  -2  -6  407.39   20.57
   7  -2   6  374.09   15.58
  -7   2  -6  389.99   16.36
  -7  -2  -6  367.90   17.24
   7   2  -7  382.54   15.64
   7   2   7  441.58   24.07
   7  -2   7  438.64   23.22
   7  -2  -7  392.32   17.09
   7  -2   7  375.37   13.08
   7   2  -7  402.27   19.84
   7  -2  -7  394.76   20.14
   7  -2   7  384.98   14.03
  -7   2  -7  394.36   15.40
  -7  -2  -7  417.33   18.15
   7   2  -8  228.59   12.56
   7   2   8  282.60   31.47
   7  -2   8  274.57   45.00
   7  -2  -8  210.18   13.00
   7  -2   8  208.50   13.55
   7   2  -8  236.26   21.38
   7  -2   8  224.74    9.34
  -7   2  -8  227.86   10.40
  -7  -2  -8  232.56   12.36
   7   2  -9  191.58    9.54
   7   2   9  250.23   26.44
   7  -2  -9  212.56   25.79
   7  -2   9  251.78   48.89
   7  -2   9  183.98    7.35
   7   2  -9  205.70   18.83
   7  -2  -9  218.15   26.20
   7  -2   9  195.38    8.24
  -7   2  -9  238.43   11.69
  -7  -2  -9  216.30   32.66
   7   2 -10   44.90   11.07
   7   2  10   52.55   11.23
   7  -2 -10   38.67   14.03
   7  -2  10   67.55   18.05
   7   2 -10   75.34   16.37
   7  -2 -10   60.49   10.51
   7  -2  10   44.58   10.80
  -7   2 -10   46.55    8.61
  -7  -2 -10   58.08   13.02
   7   2 -11   19.48    5.10
   7   2  11   13.15    4.47
   7  -2 -11    8.74    3.32
   7  -2  11   24.67    7.48
   7   2 -11   22.37    7.50
   7  -2 -11   11.51    7.00
   7  -2  11   15.14    5.12
  -7   2 -11    7.04    3.03
  -7  -2 -11   24.10    7.43
   7   2  12   46.36   10.44
   7  -2 -12   29.37    9.18
   7  -2  12   40.62    9.34
   7   2 -12   40.94   10.78
   7  -2 -12   36.80    6.74
  -7   2 -12   41.10   11.01
  -7  -2 -12   49.29   10.49
   7   2  13   19.07    7.14
   7  -2  13   27.83    6.72
   7   2 -13   25.99    7.11
   7  -2 -13   26.87    7.89
  -7   2 -13   25.33    8.98
  -7  -2 -13   10.46    6.22
   7   2  14   25.38    9.69
   7  -2  14   31.87   10.69
   7   2 -14   36.38    9.38
   7  -2 -14   19.72    7.83
  -7   2 -14   26.12    8.98
  -7  -2 -14   26.99   11.81
   7   2  15    3.16    5.36
   7  -2  15   10.69    8.02
   7   2 -15   -0.40    6.07
   7  -2 -15   -0.33    6.52
  -7   2 -15    4.06    3.13
  -7  -2 -15   18.67    6.73
   7   2  16   33.99    8.33
   7  -2  16   24.25    6.85
   7   2 -16   30.90    8.62
   7  -2 -16   37.54   10.43
  -7   2 -16   32.63    9.58
  -7  -2 -16   33.56    9.41
   7   2  17   24.21   17.08
   7  -2  17   21.12    8.09
   7   2 -17   22.78    9.90
   7  -2 -17   11.66    9.10
  -7   2 -17   17.40    7.47
  -7  -2 -17   32.66   11.29
   7   2 -18   16.32    5.48
  -7   2 -18   10.81    4.22
  -7  -2 -18    7.11    4.74
   7   2 -19   14.78    4.62
  -7   2 -19   18.63    6.33
   7   3   0   10.83    6.10
   7  -3   0    6.79    6.93
   7   3   0    4.76    3.61
   7  -3   0   11.38    5.46
  -7   3   0    1.66    1.60
   7   3   1  299.33   24.92
   7  -3   1  327.92   19.48
   7  -3  -1  313.42   18.46
   7   3   1  314.10   16.50
   7   3  -1  330.80   17.95
   7  -3  -1  301.77   17.19
   7  -3   1  325.50   18.59
  -7   3   1  311.49   21.18
   7   3   2   54.13   10.17
   7  -3   2   47.58   13.09
   7   3   2   56.61    8.71
   7   3  -2   61.80   11.48
   7  -3  -2   55.93   10.81
   7  -3   2   72.33   20.02
  -7   3   2   44.05    7.77
   7   3  -3  287.05   16.98
   7   3   3  237.51   15.59
   7  -3   3  293.26   17.73
   7  -3  -3  260.04   16.03
   7   3   3  279.89   14.17
   7   3  -3  306.17   17.33
  -7  -3  -3  257.99   17.15
   7  -3  -3  267.24   16.99
   7  -3   3  301.19   16.87
  -7   3  -3  275.76   13.45
   7   3  -4  714.13   29.48
   7  -3   4  686.48   28.77
   7  -3  -4  695.21   28.27
   7   3   4  718.79   26.78
   7   3  -4  670.15   29.09
   7  -3  -4  677.02   29.98
  -7  -3  -4  660.59   25.80
   7  -3   4  701.93   28.00
  -7   3  -4  687.65   26.48
   7   3  -5   41.16    9.34
   7   3   5   50.36   10.86
   7  -3   5   45.88    9.74
   7  -3  -5   45.20   10.85
   7   3   5   37.83    4.79
   7   3  -5   41.01   12.32
   7  -3  -5   30.36    7.43
  -7  -3  -5   33.21    8.44
   7  -3   5   44.21    7.44
  -7   3  -5   41.69    5.82
   7   3  -6   28.35    7.31
   7   3   6   28.37   15.28
   7  -3   6   42.28   14.13
   7  -3  -6   28.33    8.43
   7   3  -6   23.56   10.97
   7  -3  -6   33.06    8.70
   7  -3   6   21.10    7.02
  -7   3  -6   40.19    9.41
  -7  -3  -6   27.77    6.08
   7   3  -7   21.28    5.04
   7   3   7   40.15    9.10
   7  -3   7    5.93    4.84
   7  -3  -7   23.52    5.32
   7   3  -7   39.51    6.60
   7  -3  -7   23.09    7.76
   7  -3   7   24.60    6.35
  -7   3  -7   19.13    4.18
  -7  -3  -7   23.99    5.59
   7   3  -8  361.55   14.96
   7   3   8  360.25   19.98
   7  -3   8  403.02   19.12
   7  -3  -8  367.19   16.04
   7   3  -8  391.74   21.84
   7  -3  -8  503.60   53.13
   7  -3   8  370.53   19.55
  -7   3  -8  382.38   15.02
   7   3  -9  112.58   15.00
   7   3   9  100.74   18.99
   7  -3   9  118.07   33.86
   7  -3  -9   90.69    5.91
   7   3  -9  112.84   19.58
   7  -3  -9  109.76   24.10
   7  -3   9  108.10    9.73
   7  -3  -9  115.33   11.56
  -7   3  -9   97.85   21.15
   7   3 -10   20.91    5.34
   7   3  10   34.58   10.52
   7  -3  10   34.88    8.47
   7  -3 -10   22.80    6.94
   7   3 -10   40.91    7.55
   7  -3 -10   11.13    4.49
   7  -3 -10   23.10    6.87
  -7   3 -10   23.53    7.48
  -7  -3 -10   21.91    7.39
   7   3 -11   46.95    7.25
   7   3  11   47.61   14.00
   7  -3 -11   52.18   11.09
   7  -3  11   52.27   11.74
   7   3 -11   63.62   14.33
   7  -3 -11   58.54   17.27
   7  -3 -11   59.32   10.74
  -7   3 -11   51.95   10.86
  -7  -3 -11   56.78   12.54
   7   3 -12   -0.04    0.98
   7   3  12    9.94    6.40
   7  -3 -12    3.93    2.56
   7  -3  12    6.20    2.79
   7   3 -12    6.45    3.17
   7  -3 -12   12.05    5.18
   7  -3 -12    7.60    3.06
  -7   3 -12    7.82    3.83
   7   3  13  146.18   18.10
   7  -3  13  175.77   20.38
   7   3 -13  154.26   32.03
   7  -3 -13  161.21   33.60
   7  -3 -13  165.61   36.96
  -7   3 -13  150.75   26.30
   7   3  14    2.41    5.33
   7  -3  14   12.75    5.39
   7   3 -14    8.41    4.91
   7  -3 -14    9.53    4.34
   7  -3 -14    6.75    3.64
  -7   3 -14   15.15    4.03
   7   3  15   61.88   27.99
   7  -3  15   66.32   16.63
   7   3 -15   63.15   14.50
   7  -3 -15   77.48   13.51
   7  -3 -15   72.66   12.83
  -7   3 -15   52.31   14.76
   7   3  16   21.93   11.32
   7  -3  16   25.76   10.51
   7   3 -16   47.04   15.33
   7  -3 -16   50.25    9.58
   7  -3 -16   37.74   13.68
  -7   3 -16   38.27    7.23
   7   3  17   24.77   11.29
   7   3 -17   13.52    4.58
   7  -3 -17   34.95   17.32
   7  -3 -17   14.11    6.86
  -7   3 -17   22.38    8.04
   7   3 -18   10.65    6.91
   7  -3 -18   27.34    8.83
  -7   3 -18   13.27    4.80
  -7   4   0  315.84   18.80
   7   4   0  299.66   18.04
   7   4   0  326.93   17.44
   7  -4   0  306.19   18.28
  -7   4   0  309.34   14.73
  -7   4  -1  156.62   33.24
  -7   4   1  111.89   14.21
   7   4  -1  134.88   30.94
   7   4   1  151.44   31.58
   7   4   1  148.50   17.24
   7   4  -1  130.50   19.68
   7  -4  -1  154.24   28.62
   7  -4   1  113.40   28.85
  -7   4  -1  138.03    6.65
  -7   4   1  111.93    8.22
  -7   4   2   21.43    4.18
   7   4   2   52.06    8.30
   7  -4   2   22.55    8.39
   7   4   2   30.79    6.64
   7   4  -2   37.13    5.32
   7  -4  -2   43.98   11.44
   7  -4   2   35.11    9.30
  -7   4   2   24.08    6.11
  -7   4   3   89.86   16.32
   7   4  -3   80.77   19.29
   7   4   3   71.58    7.45
   7  -4   3   89.66   14.23
   7   4   3   78.42    9.32
   7   4  -3   79.31   22.40
  -7  -4  -3   54.58    8.87
   7  -4  -3   80.72   24.48
   7  -4   3   79.66   16.31
  -7   4  -3   76.75    3.63
  -7   4   3   62.58   12.09
  -7   4   4  727.09   29.77
   7   4  -4  639.68   26.70
   7   4   4  626.44   27.31
   7  -4   4  696.68   30.76
   7   4   4  678.24   26.24
   7   4  -4  719.35   29.65
  -7  -4  -4  698.80   26.28
   7  -4  -4  657.43   34.46
   7  -4   4  709.56   28.80
  -7   4  -4  658.82   23.85
  -7   4   5   73.79   18.73
   7   4  -5   87.33   22.85
   7   4   5   79.78   19.80
   7  -4   5   91.37   19.73
   7   4   5   79.65    7.80
   7   4  -5  106.97   22.33
  -7  -4  -5   69.04    6.88
   7  -4  -5   91.06   15.84
   7  -4   5   93.10   14.15
  -7   4  -5   74.28    5.82
  -7   4   6   14.29    4.64
   7   4  -6   17.71    4.98
   7   4   6   28.25   10.34
   7  -4   6   24.12    5.86
   7   4  -6   16.85    6.54
   7  -4  -6   25.85    6.33
  -7  -4  -6   10.24    2.93
   7  -4   6   17.56    3.55
  -7   4  -6   19.87    4.82
   7   4  -7    8.42    4.78
   7   4   7    7.12    3.92
   7  -4   7    0.70    2.96
   7  -4  -7    5.89    2.18
   7   4  -7   11.24    5.13
   7  -4  -7    9.08    6.87
   7  -4   7    4.28    2.23
   7  -4  -7    7.01    5.32
  -7   4  -7    7.56    2.11
   7   4  -8   90.98   19.66
   7   4   8   98.67   17.09
   7  -4   8  100.73   20.33
   7  -4  -8   83.93   15.20
   7   4  -8   80.57   15.58
   7  -4  -8   67.52   16.65
   7  -4  -8  108.60   18.56
  -7   4  -8   82.94   15.07
   7   4  -9   23.68    5.30
   7   4   9   44.35   10.98
   7  -4   9   15.12   12.47
   7  -4  -9   36.56   10.00
   7   4  -9   32.10   10.05
   7  -4  -9   49.11   16.58
   7  -4  -9   50.36    8.36
  -7   4  -9   45.62   10.72
   7   4 -10    6.05    4.10
   7   4  10    9.65    4.87
   7  -4  10   15.66    6.10
   7  -4 -10   12.93    4.29
   7   4 -10   15.16    7.90
   7  -4 -10   14.85    5.62
   7  -4 -10    8.64    3.91
  -7   4 -10   11.62    3.10
   7   4 -11   51.32   12.93
   7   4  11   38.04    8.49
   7  -4  11   48.85    9.49
   7  -4 -11   32.95   10.65
   7   4 -11   51.23   15.89
   7  -4 -11   55.32   11.65
   7  -4 -11   43.89    6.73
  -7   4 -11   40.94    7.72
   7   4  12   46.20   14.94
   7  -4  12   59.38   19.10
   7  -4 -12   36.30    8.97
   7   4 -12   40.50   10.59
   7  -4 -12   51.53   11.21
   7  -4 -12   49.51   10.12
  -7   4 -12   56.31   12.51
   7   4  13   89.65   26.85
   7  -4  13  110.99   27.28
   7   4 -13   99.43   18.88
   7  -4 -13  101.22   22.77
   7  -4 -13  113.50   16.91
  -7   4 -13   90.63   22.59
  -7  -4 -13   80.48   27.18
   7   4  14   33.69   14.25
   7  -4  14   24.74    6.14
   7   4 -14   38.43   10.72
   7  -4 -14   37.91    8.13
   7  -4 -14   46.58   12.59
  -7   4 -14   27.68    8.56
  -7  -4 -14   58.71   12.55
   7   4  15   33.20   14.35
   7  -4  15   43.46   14.42
   7   4 -15   60.94   18.17
   7  -4 -15   21.08    7.53
   7  -4 -15   45.07   18.36
  -7   4 -15   38.58   10.81
  -7  -4 -15   44.16   10.25
   7   4  16  173.68   27.54
   7  -4  16  211.10   25.56
   7   4 -16  152.17   39.72
   7  -4 -16  158.74   50.31
   7  -4 -16  191.93   32.51
  -7   4 -16  135.69   34.59
  -7  -4 -16  161.99   41.43
   7   4  17    7.37    4.62
   7   4 -17    4.50    4.31
   7  -4 -17    0.13    4.30
   7  -4 -17   14.86    7.97
  -7   4 -17   16.36    4.72
  -7  -4 -17    8.22    6.83
   7   4 -18    0.62    3.15
   7  -4 -18    4.18    3.32
  -7   4 -18    1.35    1.99
  -7  -4 -18    2.31    4.51
  -7   5   0  218.63   35.58
   7   5   0  206.24   39.94
   7   5   0  207.72   23.05
   7  -5   0  178.28   13.52
  -7   5  -1   62.84   13.85
  -7   5   1   58.82   15.09
   7   5  -1   65.23   18.67
   7   5   1   61.84   15.69
   7   5   1   76.67    8.60
   7   5  -1   55.97    9.83
   7  -5  -1   73.79   19.36
   7  -5   1   68.53   12.14
  -7   5   1   53.00    5.61
  -7   5  -2  310.48   41.39
  -7   5   2  306.29   25.15
   7   5   2  293.58   27.12
   7   5   2  300.51   13.45
   7   5  -2  253.35   21.77
   7  -5  -2  303.32   32.19
   7  -5   2  266.82   23.25
  -7   5   2  235.34   10.72
  -7   5  -3  383.13   27.32
  -7   5   3  366.15   17.63
   7   5  -3  373.45   28.23
   7   5   3  369.45   19.19
   7   5   3  412.17   16.76
   7   5  -3  345.73   21.23
   7  -5  -3  396.22   21.37
   7  -5   3  433.55   28.98
  -7   5   3  333.32   13.59
  -7   5  -4  235.97   17.17
  -7   5   4  240.43   12.67
   7   5  -4  256.75   14.09
   7   5   4  253.96   14.37
   7   5   4  252.03   12.59
   7   5  -4  259.76   13.59
   7  -5  -4  243.16   32.37
   7  -5   4  305.21   25.19
  -7   5   5  156.89   13.30
   7   5  -5  150.99   29.31
   7   5   5  150.95   27.30
   7   5   5  147.91    6.25
   7   5  -5  163.02   21.30
   7  -5  -5  164.68   25.18
   7  -5   5  170.98   25.20
   7  -5  -5  174.76   12.66
  -7   5   6    5.38    1.77
   7   5  -6   -0.53    4.95
   7   5   6    9.75    5.94
   7  -5   6    8.74    5.54
   7   5  -6    6.71    5.54
  -7  -5  -6    2.14    1.63
   7  -5  -6   15.74    6.69
   7  -5   6    6.92    4.98
   7  -5  -6    5.03    2.40
  -7   5  -6    1.03    0.98
  -7   5   7  109.64   26.24
   7   5  -7  107.23   25.68
   7   5   7   94.01   20.81
   7  -5   7  115.19   22.52
   7   5  -7  119.28   24.65
  -7  -5  -7   97.41    3.69
   7  -5  -7   93.74   24.79
  -7  -5  -7   94.32    4.37
   7  -5  -7  129.27   22.85
  -7   5  -7   98.80   11.09
  -7  -5  -7  106.63   24.21
  -7   5   8   32.56   10.27
   7   5  -8   38.23   13.92
   7   5   8   51.40   11.23
   7  -5   8   39.20    8.09
   7   5  -8   37.48    8.68
   7  -5  -8   22.23    8.24
   7  -5  -8   30.54    8.12
  -7   5  -8   26.35    8.70
  -7  -5  -8   31.26   12.48
  -7   5   9  351.88   16.02
   7   5  -9  326.49   13.98
   7   5   9  323.27   37.19
   7  -5   9  330.10   31.76
   7   5  -9  333.30   16.15
   7  -5  -9  309.06   17.44
   7  -5  -9  289.04   12.95
  -7   5  -9  281.90   10.16
  -7  -5  -9  313.95   30.64
   7   5 -10   13.23    4.92
   7   5  10    7.69    7.59
   7  -5  10   21.30    5.39
   7  -5 -10   12.92    3.68
   7   5 -10   15.73    7.31
   7  -5 -10   16.15    6.92
   7  -5 -10    4.63    2.14
  -7   5 -10    6.61    2.04
  -7  -5 -10   25.55    5.60
   7   5 -11   79.18    9.93
   7   5  11   80.96   25.81
   7  -5  11   62.15   29.23
   7  -5 -11   62.52   12.55
   7   5 -11   83.31   21.57
   7  -5 -11   63.50   13.68
   7  -5 -11   80.36   17.95
  -7   5 -11   78.37    5.37
  -7  -5 -11   79.23   14.50
   7   5 -12    3.91    1.49
   7   5  12   23.37    9.01
   7  -5  12    5.29    2.24
   7  -5 -12    4.09    2.19
   7   5 -12    4.51    3.88
   7  -5 -12    9.08    9.47
   7  -5 -12   -3.93    4.68
  -7   5 -12    6.73    2.90
  -7  -5 -12    8.36    5.38
   7   5  13   44.90   18.60
   7  -5  13   43.44   13.23
   7   5 -13   33.00   11.69
   7  -5 -13   26.41   11.63
   7  -5 -13   38.21    8.81
  -7   5 -13   33.65    7.47
  -7  -5 -13   36.45    8.03
   7   5  14   56.02   11.83
   7  -5  14   75.04   17.30
   7   5 -14   71.39   24.41
   7  -5 -14   68.80   18.11
   7  -5 -14   61.71   11.11
  -7   5 -14   53.56   17.25
  -7  -5 -14   71.37   20.61
   7   5  15   26.40    9.35
   7  -5  15   23.76    8.12
   7   5 -15   32.42   11.10
   7  -5 -15   25.16    6.38
   7  -5 -15   42.92    8.12
  -7   5 -15   34.67   11.67
  -7  -5 -15   29.16   10.42
   7   5  16   22.37   14.26
   7  -5  16   20.63    9.52
   7   5 -16   36.31    9.50
   7  -5 -16   26.47   12.02
   7  -5 -16   45.12   10.92
  -7   5 -16   21.09   10.43
  -7  -5 -16   54.25   13.92
   7   5  17    2.54    3.28
   7   5 -17   11.09    5.14
   7  -5 -17    1.17    3.80
  -7   5 -17    4.81    1.85
  -7  -5 -17   10.21    6.73
   7   5 -18   12.09    4.08
   7  -5 -18   12.22    5.66
  -7   5 -18    2.66    2.00
  -7   6   0    3.96    3.24
   7   6   0    4.58    5.45
   7   6   0    1.58    4.19
   7  -6   0    8.37    9.21
  -7   6  -1  245.88   30.39
  -7   6   1  242.07   16.30
   7   6  -1  246.66   45.34
   7   6   1  263.40   39.34
   7   6   1  246.21   12.21
   7   6  -1  235.13   11.71
   7  -6  -1  261.66   45.00
   7  -6   1  261.62   26.69
  -7   6  -2  251.08   35.36
  -7   6   2  256.34   15.54
   7   6   2  239.15   16.83
   7   6   2  259.36   21.45
   7   6  -2  232.40   11.86
   7  -6  -2  303.13   44.76
   7  -6   2  296.60   32.89
  -7   6   2  242.32    8.90
  -7   6  -3   12.33    5.85
  -7   6   3   14.53    5.71
   7   6  -3   13.23    7.68
   7   6   3    8.78    6.80
   7   6   3    4.53    2.22
   7   6  -3    4.92    3.89
   7  -6  -3   -2.77    9.21
   7  -6   3   10.72    6.82
  -7   6   3    6.20    2.13
  -7   6  -4   10.07    5.04
  -7   6   4    7.02    4.04
   7   6  -4    8.06    4.49
   7   6   4   19.19    7.29
   7   6   4    6.08    2.92
   7   6  -4   11.80    6.80
   7  -6  -4   17.30    5.19
   7  -6   4   18.47    7.69
   7  -6  -4   13.60    2.89
  -7   6  -5   27.17   10.27
  -7   6   5   39.35    7.44
   7   6  -5   41.98   13.69
   7   6   5   36.63    9.30
   7   6  -5   46.65    9.88
  -7  -6  -5   25.69    6.57
   7  -6  -5   28.99   11.77
   7  -6   5   46.88   10.94
   7  -6  -5   36.82    6.21
  -7   6  -6  428.03   19.59
  -7   6   6  465.06   22.54
   7   6  -6  465.17   20.09
   7   6   6  453.27   23.01
   7   6  -6  455.96   43.52
  -7  -6  -6  400.90   14.56
   7  -6  -6  460.92   23.54
   7  -6  -6  466.53   18.37
  -7   6  -7   -0.47    6.88
  -7   6   7    7.85    3.96
   7   6  -7    4.38    2.98
   7   6   7   13.93    8.51
   7   6  -7    3.69    5.53
  -7  -6  -7    2.96    1.77
   7  -6  -7   11.30    5.55
   7  -6  -7    7.16    4.32
  -7  -6  -7    3.75    3.88
  -7   6   8   24.66    6.86
   7   6  -8   19.07    7.48
   7   6   8   11.92    4.64
   7  -6   8   17.03    6.08
   7   6  -8   10.29    3.89
  -7  -6  -8    8.60    2.48
   7  -6  -8   19.23    6.43
  -7  -6  -8    9.55    2.55
   7  -6  -8   14.86    5.08
  -7  -6  -8   21.91   10.80
  -7   6   9    7.35    2.71
   7   6  -9   -0.05    3.69
   7   6   9   11.35    5.40
   7  -6   9    6.83    3.90
   7   6  -9    4.46    4.02
   7  -6  -9    7.28    5.40
   7  -6  -9    3.55    2.82
  -7  -6  -9    7.73    5.07
  -7   6  10  211.97   21.77
   7   6 -10  242.32    8.37
   7   6  10  221.53   27.93
   7  -6  10  222.99   26.92
   7   6 -10  212.77   42.56
   7  -6 -10  209.51   40.22
  -7   6 -10  195.11    8.60
   7  -6 -10  202.43   15.51
  -7  -6 -10  218.70   31.97
  -7   6  11   27.37    6.94
   7   6 -11   24.73    6.00
   7   6  11   34.92    8.46
   7  -6  11   34.49   14.86
   7   6 -11   37.33    9.15
   7  -6 -11   29.67   13.62
  -7   6 -11   27.25   11.99
   7  -6 -11   32.49    6.81
  -7  -6 -11   39.53    9.18
   7   6 -12    3.95    2.80
   7   6  12   15.18    6.17
   7  -6  12    1.40    1.79
   7   6 -12    6.50    4.89
   7  -6 -12    9.85    8.41
  -7   6 -12    6.92    3.26
   7  -6 -12    2.17    2.43
  -7  -6 -12    8.34    7.24
   7   6  13   25.57   11.28
   7  -6  13   35.78    9.07
   7   6 -13   42.58   14.92
   7  -6 -13   46.05    9.93
  -7   6 -13   38.65    8.63
   7  -6 -13   33.71    7.18
  -7  -6 -13   40.78    9.70
   7   6  14    4.56    4.02
   7  -6  14    5.93    3.34
   7   6 -14    5.80    2.94
   7  -6 -14    6.27    4.62
  -7   6 -14    5.31    2.92
   7  -6 -14   11.10    5.57
  -7  -6 -14    9.28    3.02
   7   6  15   16.47    6.03
   7  -6  15   20.72    6.88
   7   6 -15   17.65    7.62
   7  -6 -15   24.19   15.52
  -7   6 -15   16.55    4.22
   7  -6 -15   14.81    4.61
  -7  -6 -15   16.86    6.46
   7   6  16    0.86    2.80
   7  -6  16    6.89    4.20
   7   6 -16    4.73    4.43
   7  -6 -16    3.54    4.85
  -7   6 -16    5.33    2.60
   7  -6 -16    6.60    4.23
  -7  -6 -16   -2.64    5.88
   7   6  17   11.77    3.52
   7   6 -17    7.00    7.08
   7  -6 -17   22.07    9.11
  -7  -6 -17   11.69    7.55
   7   6 -18   82.95   17.88
   7  -6 -18   55.69   13.04
  -7  -6 -18   83.99   22.33
  -7   7   0   19.07    6.17
   7   7   0    5.01    6.21
   7   7   0   11.92    3.21
   7  -7   0   16.16    8.41
  -7   7  -1   76.66   19.97
  -7   7   1   83.27   19.06
   7   7  -1   74.71   23.78
   7   7   1  102.54   21.60
   7   7   1   92.13   19.45
   7   7  -1  105.93   13.74
   7  -7  -1   99.15   32.07
   7  -7   1  108.77   22.74
  -7   7  -2  588.74   26.95
  -7   7   2  563.27   22.96
   7   7   2  571.85   25.17
   7   7   2  583.42   26.15
   7   7  -2  574.71   31.07
   7  -7  -2  744.92   76.79
   7  -7   2  603.29   25.47
  -7   7  -3  469.43   21.45
  -7   7   3  479.93   37.60
   7   7   3  407.41   43.49
   7   7   3  447.69   35.23
   7   7  -3  477.88   19.83
   7  -7  -3  474.05   54.55
   7  -7   3  483.08   26.05
   7  -7  -3  471.05   17.63
  -7   7  -4   96.73   27.16
  -7   7   4  108.35   27.57
   7   7  -4  109.44   22.42
   7   7   4  121.47   26.32
   7   7   4   99.37   11.60
   7   7  -4   80.99   22.57
   7  -7  -4   93.05   25.68
   7  -7   4  109.51   28.36
   7  -7  -4  105.99   13.10
  -7   7  -5    9.96    6.38
  -7   7   5   15.17    6.16
   7   7  -5   18.93    6.73
   7   7   5   13.37    6.76
   7   7  -5    9.46    3.88
   7  -7  -5   12.05    5.69
   7  -7  -5    8.67    4.29
  -7   7  -6   15.10    8.24
  -7   7   6   20.63    8.32
   7   7  -6   12.59    4.87
   7   7   6   -3.35    8.48
   7   7  -6   25.08    7.68
   7  -7  -6   10.71    5.53
   7  -7  -6   10.83    2.61
  -7   7  -7   60.77   13.00
  -7   7   7   43.92    8.56
   7   7  -7   51.84   11.28
   7   7   7   44.97   10.16
   7   7  -7   60.81   15.31
   7  -7  -7   49.93   16.47
   7  -7  -7   54.93    9.69
  -7   7   8   30.35    7.65
   7   7  -8   26.73    7.32
   7   7   8   16.58    4.97
   7   7  -8   28.13    7.88
   7  -7  -8   19.34    6.64
  -7  -7  -8   21.55    7.07
   7  -7  -8   28.10    5.78
  -7  -7  -8   24.36    8.71
  -7   7   9  158.75   34.28
   7   7  -9  173.01   29.63
   7   7   9  181.82   18.13
   7  -7   9  183.80   38.30
   7   7  -9  163.04   35.99
   7  -7  -9  173.23   48.12
   7  -7  -9  170.80   11.88
  -7  -7  -9  164.62   41.89
  -7   7  10  256.85   24.42
   7   7 -10  248.97    9.76
   7   7  10  251.59   26.29
   7  -7  10  297.78   14.46
   7   7 -10  270.86   39.20
   7  -7 -10  224.65   38.46
   7  -7 -10  270.59   27.14
  -7  -7 -10  260.55   49.70
  -7   7  11    5.74    3.52
   7   7 -11    2.49    8.41
   7   7  11   11.91    5.26
   7  -7  11    5.72    3.29
   7   7 -11   12.41    5.01
   7  -7 -11   18.57    9.54
   7  -7 -11   21.03    5.26
  -7  -7 -11   12.39    5.99
  -7   7  12   24.43    5.43
   7   7 -12   25.09    6.96
   7   7  12   26.91    6.07
   7  -7  12   32.16   10.69
   7   7 -12   28.16   11.13
   7  -7 -12   28.40    7.09
   7  -7 -12   39.38   12.62
  -7  -7 -12   29.17    9.90
   7   7  13   63.96   15.14
   7  -7  13   69.01   14.95
   7   7 -13   55.98   17.29
   7  -7 -13   68.20   16.02
   7  -7 -13   69.00   12.59
  -7  -7 -13   72.85   21.27
   7   7  14  138.64   40.83
   7  -7  14  151.52   41.73
   7   7 -14  158.03   25.87
   7  -7 -14  132.20   32.69
   7  -7 -14  153.58   34.33
  -7  -7 -14  185.08   37.69
   7   7  15   41.60   21.32
   7  -7  15   36.78   24.55
   7   7 -15   43.29   20.10
   7  -7 -15   46.28   12.89
   7  -7 -15   45.14   15.17
  -7  -7 -15   59.81   17.32
   7   7  16   10.03    3.43
   7  -7  16   35.93    7.97
   7   7 -16    4.59    3.05
   7  -7 -16   17.30    8.13
   7  -7 -16   11.15    2.77
  -7  -7 -16   12.63    4.47
   7   7  17    3.09    3.59
   7   7 -17   10.38    8.84
   7  -7 -17    6.08    3.63
  -7  -7 -17    7.55    6.66
  -7   8   0  349.97   26.13
   7   8   0  316.99   21.25
   7   8   0  319.06   20.73
   7  -8   0  332.10   39.35
  -7   8  -1   60.35   10.90
  -7   8   1   64.40   16.01
   7   8  -1   66.45   19.24
   7   8   1   77.60   13.51
   7   8   1   65.96   10.71
   7   8  -1   68.24   16.15
   7  -8  -1   60.99   15.53
   7  -8   1   80.19   16.40
  -7   8  -2   14.88    4.41
  -7   8   2   15.45    8.96
   7   8  -2   21.39   10.55
   7   8   2    5.96    4.73
   7   8   2   14.95    5.04
   7   8  -2   11.83    5.36
   7  -8  -2   17.57    7.80
   7  -8   2   -1.17    8.71
   7  -8  -2   14.87    3.09
  -7   8  -3  106.69   16.49
  -7   8   3  104.65   19.31
   7   8   3  119.85   22.97
   7   8   3  122.57   22.17
   7   8  -3   97.17   13.27
   7  -8  -3  141.93   37.33
   7  -8   3  142.57   31.81
   7  -8  -3  126.79    9.30
  -7   8  -4  326.24   45.18
  -7   8   4  405.90   28.34
   7   8  -4  350.70   17.31
   7   8   4  379.05   19.53
   7   8  -4  418.82   41.58
   7  -8  -4  326.49   30.57
   7  -8  -4  363.36   12.65
  -7   8  -5  108.72   23.90
  -7   8   5  123.11   16.18
   7   8  -5  109.90   32.78
   7   8   5  114.70   28.52
   7   8  -5  125.15   19.00
   7  -8  -5  118.84   25.33
   7  -8  -5  106.86   15.95
  -7   8  -6   35.33    9.73
  -7   8   6   34.11    8.45
   7   8  -6   33.36    6.77
   7   8   6   27.68    5.16
   7   8  -6   28.20    6.72
   7  -8  -6   21.69   10.03
   7  -8  -6   38.23   11.45
  -7   8  -7  113.14   22.59
  -7   8   7  111.16   10.47
   7   8  -7  103.77   25.40
   7   8   7  121.87   17.01
   7   8  -7  107.22   17.65
   7  -8  -7  128.35   30.62
   7  -8  -7  111.67   19.45
  -7   8  -8  144.23   34.22
  -7   8   8  171.99   19.30
   7   8  -8  166.33    9.53
   7   8   8  163.71   33.42
   7   8  -8  146.72   19.91
   7  -8  -8  155.92   43.83
   7  -8  -8  174.83   17.25
  -7  -8  -8  168.65   38.80
  -7   8   9    8.46    5.23
   7   8  -9    9.67    4.48
   7   8   9   11.69    3.79
   7   8  -9   12.90    8.50
   7  -8  -9   14.89    7.56
   7  -8  -9    7.46    2.76
  -7  -8  -9   10.04    6.02
   7   8 -10   23.54    8.86
   7   8  10   25.23    8.55
   7   8 -10   15.87    7.23
   7  -8 -10   46.24   13.49
   7  -8 -10   22.58    7.49
  -7  -8 -10   21.53    8.93
  -7   8  11   71.44   13.95
   7   8 -11   50.57   14.91
   7   8  11   72.53   11.66
   7  -8  11   65.80   19.33
   7   8 -11   62.93   14.11
   7  -8 -11  104.04   31.16
   7  -8 -11   70.82   18.77
  -7  -8 -11   65.97   24.19
  -7   8  12  186.52   26.20
   7   8  12  167.41   49.80
   7  -8  12  224.58   27.58
   7   8 -12  162.21   25.58
   7  -8 -12  163.21   51.52
   7  -8 -12  222.27   19.53
  -7  -8 -12  182.83   31.82
   7   8  13   22.63    7.28
   7  -8  13   12.09    7.48
   7   8 -13   34.73    9.72
   7  -8 -13   34.38   11.58
   7  -8 -13   19.73    6.08
  -7  -8 -13   20.19    5.86
   7   8  14    9.75    6.69
   7  -8  14    5.22    5.28
   7   8 -14    8.52    3.65
   7  -8 -14   15.09    3.86
   7  -8 -14    6.30    3.15
  -7  -8 -14   -0.26    6.59
   7   8  15   45.49   19.21
   7  -8  15   32.83   18.37
   7   8 -15   47.43   18.42
   7  -8 -15   37.67   13.05
   7  -8 -15   48.83   14.81
  -7  -8 -15   45.15   22.18
   7   8  16   65.82   20.68
   7  -8  16   49.01   17.64
   7   8 -16   39.32   14.75
   7  -8 -16   42.67   16.62
   7  -8 -16   57.48   24.09
   7   8  17   10.14    4.24
   7   8 -17    7.19    4.41
   7  -8 -17    9.68    4.63
  -7  -8 -17    9.17    6.98
  -7   9   0    5.18    5.26
   7   9   0   -0.64    8.13
   7   9   0    7.97    3.26
   7  -9   0    7.59    4.69
  -7   9  -1  285.55   30.43
  -7   9   1  289.56   25.98
   7   9  -1  302.47   47.31
   7   9   1  289.63   44.80
   7   9   1  282.60   39.24
   7   9  -1  272.78   34.56
   7  -9  -1  249.26   28.67
   7  -9   1  338.91   38.76
  -7   9  -2   15.34    8.82
  -7   9   2   29.94    7.23
   7   9  -2   11.40    9.76
   7   9   2   35.09    9.16
   7   9   2   16.32    6.19
   7   9  -2   23.24    9.64
   7  -9  -2   25.89   12.17
   7  -9   2    9.15    8.36
   7  -9  -2   18.76    5.34
  -7   9  -3  146.66   13.08
  -7   9   3  161.07   36.63
   7   9   3  171.53   26.04
   7   9   3  144.93   23.39
   7   9  -3  181.63   30.27
   7  -9  -3  164.68   22.09
   7  -9   3  153.33   27.66
   7  -9  -3  161.22    8.73
  -7   9  -4   14.81    4.90
  -7   9   4   13.13    4.57
   7   9  -4   12.97    7.62
   7   9   4   15.57    8.67
   7   9  -4   13.10    5.31
   7  -9  -4    9.28    6.52
   7  -9  -4   20.00    4.67
  -7   9  -5   15.94    5.32
  -7   9   5   18.27    6.19
   7   9  -5   11.69    6.83
   7   9   5   13.61    4.83
   7   9  -5   10.86    4.10
   7  -9  -5    2.34    6.28
   7  -9  -5   14.46    3.69
  -7   9  -6   62.39   16.23
  -7   9   6   81.39   13.81
   7   9  -6   63.67   14.77
   7   9   6   82.39   14.21
   7   9  -6   59.62   13.92
   7  -9  -6   68.79   19.12
   7  -9  -6   60.66   11.34
  -7   9  -7   36.30    7.82
  -7   9   7   45.66    8.50
   7   9  -7   26.76    7.43
   7   9   7   54.24   16.34
   7   9  -7   45.31   13.15
   7  -9  -7   24.67    9.96
   7  -9  -7   27.05    6.57
  -7   9  -8  297.49   58.72
  -7   9   8  327.07   51.73
   7   9  -8  298.11   12.20
   7   9   8  332.35   16.23
   7   9  -8  285.18   49.13
   7  -9  -8  278.93   50.94
   7  -9  -8  290.50   24.72
  -7  -9  -8  315.76   58.14
  -7   9   9   15.24    6.51
   7   9  -9    9.36    6.32
   7   9   9   13.67    6.13
   7   9  -9   11.99    5.58
   7  -9  -9   26.96    8.65
   7  -9  -9    5.56    1.76
  -7  -9  -9   11.23    4.99
  -7   9 -10   -4.93    6.45
  -7   9  10    7.32    2.64
   7   9 -10    4.73    3.42
   7   9  10    3.83    4.21
   7   9 -10    7.83    3.73
   7  -9 -10    6.37    4.84
   7  -9 -10    1.07    3.00
  -7  -9 -10   10.69    3.86
  -7   9 -11   89.80   20.65
  -7   9  11   96.93   24.43
   7   9 -11   86.81   18.28
   7   9  11   92.93   22.13
   7   9 -11   86.34   20.93
   7  -9 -11   90.63   20.18
   7  -9 -11   92.57   10.99
  -7  -9 -11   78.86   21.90
  -7   9  12   44.01   18.34
   7   9  12   37.66   15.49
   7  -9  12   24.89   10.80
   7   9 -12   41.87   13.35
   7  -9 -12   41.17   14.92
   7  -9 -12   33.55    5.42
  -7  -9 -12   54.95   14.80
   7   9  13   49.70   23.94
   7  -9  13   55.00   19.64
   7   9 -13   69.13   16.83
   7  -9 -13   45.61   15.71
   7  -9 -13   56.20   13.12
  -7  -9 -13   63.50   13.71
   7   9  14    4.28    4.14
   7  -9  14    5.93    4.81
   7   9 -14   11.62    4.70
   7  -9 -14   18.27    8.51
   7  -9 -14    8.51    4.59
  -7  -9 -14   11.06    7.59
   7   9  15   15.65    7.81
   7  -9  15   22.67    5.83
   7   9 -15   16.86   10.31
   7  -9 -15   30.06    7.86
   7  -9 -15   24.41   10.24
  -7  -9 -15   20.21    5.65
   7   9  16    3.15    2.67
   7  -9  16    6.79    4.34
   7   9 -16    8.46    3.21
   7  -9 -16   22.86    8.06
   7  -9 -16    8.49    4.05
  -7  -9 -16    9.67    4.20
  -7  10   0   12.00    5.30
   7  10   0   13.25    5.92
   7  10   0   13.32    4.33
   7 -10   0   20.54    9.84
  -7  10  -1   62.29   12.35
  -7  10   1   30.27    6.19
   7  10  -1   56.48   11.82
   7  10   1   61.00   13.77
   7  10   1   49.51   11.28
   7  10  -1   59.19   13.55
   7 -10  -1   51.23   15.48
   7 -10   1   55.01   16.28
  -7  10  -2   21.25    7.81
  -7  10   2   13.40    4.40
   7  10  -2   17.03    6.24
   7  10   2   18.11    9.01
   7  10   2   15.48    5.28
   7  10  -2   14.13    3.73
   7 -10  -2   28.32    8.19
   7 -10   2   18.76    9.41
   7 -10  -2   10.72    4.21
  -7  10  -3   11.26    6.67
  -7  10   3   11.89    6.17
   7  10   3   36.42   11.18
   7  10  -3   23.32    6.42
   7 -10  -3   15.63    8.63
   7 -10  -3   16.12    4.76
  -7  10  -4   56.27   11.27
  -7  10   4   61.58   14.38
   7  10  -4   52.40   11.58
   7  10   4   61.92   14.03
   7  10  -4   52.54   11.58
   7 -10  -4   56.83   18.96
   7 -10  -4   41.38    9.82
  -7  10  -5  109.83   24.67
  -7  10   5  113.57   18.42
   7  10  -5  108.16   24.59
   7  10   5  117.50   35.58
   7  10  -5  109.48   26.93
   7 -10  -5  139.70   27.93
   7 -10  -5  106.84    8.43
  -7  10  -6  117.57   31.34
  -7  10   6  125.32   19.59
   7  10  -6  143.48   32.34
   7  10   6  121.44   25.61
   7  10  -6  114.35   13.13
   7 -10  -6  125.59   25.15
   7 -10  -6  106.53   12.61
  -7  10  -7  202.67   40.16
  -7  10   7  217.16   18.67
   7  10  -7  221.33   23.66
   7  10   7  197.15   28.51
   7  10  -7  182.98   27.34
   7 -10  -7  198.68   46.67
   7 -10  -7  160.41   11.73
  -7  10  -8    7.82    4.22
  -7  10   8   10.73    4.47
   7  10  -8   11.00    4.00
   7  10   8   14.71    5.69
   7  10  -8    9.59    3.98
   7 -10  -8    3.44    5.93
   7 -10  -8    5.45    3.09
  -7 -10  -8   11.68    5.38
  -7  10   9   65.26   14.88
   7  10  -9   52.40   15.48
   7  10   9   71.89   22.50
   7  10  -9   51.45   14.36
   7 -10  -9   78.43   21.04
   7 -10  -9   58.77   16.21
  -7 -10  -9   52.27   14.52
  -7  10 -10   61.63   18.19
  -7  10  10   46.99   12.87
   7  10 -10   40.93   12.55
   7  10  10   58.88   11.95
   7  10 -10   47.96   13.40
   7 -10 -10   57.40   21.13
   7 -10 -10   51.89   11.47
  -7 -10 -10   36.62   16.51
  -7  10 -11   40.50   11.34
  -7  10  11   58.29   10.28
   7  10 -11   37.26   13.18
   7  10  11   35.20   15.59
   7  10 -11   49.35   19.12
   7 -10 -11   47.20   13.50
   7 -10 -11   41.68    7.09
  -7 -10 -11   50.17   19.16
  -7  10  12   14.67    4.30
   7  10  12    7.96    5.23
   7  10 -12    7.04    5.67
   7 -10 -12    2.03    2.18
   7 -10 -12   11.47    3.05
  -7 -10 -12   -0.10    3.81
   7  10  13   10.07    4.11
   7 -10  13    7.31    7.05
   7  10 -13   -3.68    5.06
   7 -10 -13   -1.53    7.39
   7 -10 -13   10.04    3.16
  -7 -10 -13   10.84    6.61
   7  10  14    9.82    4.77
   7 -10  14   10.13    5.70
   7  10 -14   10.54    7.93
   7 -10 -14    9.71    5.24
   7 -10 -14    7.26    2.57
  -7 -10 -14    8.30    6.85
   7  10  15    7.24    2.85
   7 -10  15    2.40    3.44
   7  10 -15    7.59    4.69
   7 -10 -15   -1.69    7.45
   7 -10 -15    4.00    2.98
  -7 -10 -15   11.66    6.98
  -7  11   0    9.90    6.75
   7  11   0   -1.84    6.98
   7  11   0    0.93    2.66
   7 -11   0   11.37    8.56
  -7  11  -1   52.51   14.03
  -7  11   1   42.54    7.73
   7  11  -1   57.50   17.54
   7  11   1   52.53   15.43
   7  11   1   46.15   13.43
   7  11  -1   45.91    6.82
   7 -11  -1   70.45   18.40
   7 -11   1   46.94   12.05
  -7  11  -2  249.56   52.20
  -7  11   2  263.65   40.43
   7  11  -2  233.99   38.24
   7  11   2  265.43   42.47
   7  11  -2  235.33   30.00
   7 -11  -2  273.13   26.93
   7 -11   2  248.34   32.57
  -7  11  -3   10.19    5.97
  -7  11   3   15.58    6.35
   7  11  -3   19.49   12.19
   7  11   3   19.50   10.28
   7  11  -3   11.03    5.39
   7 -11  -3    9.21    8.93
   7 -11  -3    3.00    1.01
  -7  11  -4   14.03    5.28
  -7  11   4    6.25    4.12
   7  11   4   26.71    4.92
   7  11  -4    5.66    3.24
   7 -11  -4   26.79    8.63
   7 -11  -4   15.34    4.11
  -7  11  -5   44.27   11.34
  -7  11   5   43.98   12.34
   7  11  -5   54.77   18.88
   7  11   5   34.06    8.68
   7  11  -5   65.30   13.59
   7 -11  -5   42.41   12.73
   7 -11  -5   30.28    9.10
  -7  11  -6   22.86    6.82
  -7  11   6   20.32    5.98
   7  11  -6   15.22    8.70
   7  11   6   16.49    8.25
   7  11  -6    3.28    4.06
   7 -11  -6   14.20    6.27
   7 -11  -6    3.97    3.19
  -7  11  -7   77.87   17.46
  -7  11   7   66.80    9.66
   7  11  -7   67.21   13.00
   7  11   7   77.02   21.26
   7  11  -7   78.84   15.53
   7 -11  -7   57.34   13.91
  -7  11  -8   23.24   11.52
  -7  11   8   20.52    6.35
   7  11  -8   22.97    5.77
   7  11   8   24.64   10.29
   7  11  -8   21.28    8.04
   7 -11  -8   11.37    4.80
   7 -11  -8   16.95    5.48
  -7 -11  -8   17.49    8.69
  -7  11  -9    7.30    5.16
  -7  11   9    7.32    3.19
   7  11  -9    6.18    4.93
   7  11   9   18.10    8.85
   7  11  -9    4.82    5.36
   7 -11  -9   13.99    6.14
   7 -11  -9    7.03    2.51
  -7 -11  -9    6.28    4.62
  -7  11  10   57.88   16.79
   7  11 -10   45.22   18.74
   7  11  10   50.20   15.61
   7  11 -10   51.26   11.37
   7 -11 -10   51.04   10.01
   7 -11 -10   61.29   11.71
  -7 -11 -10   58.10   14.64
  -7  11 -11   24.57    6.06
  -7  11  11   28.19    9.35
   7  11 -11   22.98    8.14
   7  11  11   30.56   13.87
   7  11 -11   33.48   11.27
   7 -11 -11   35.80   12.59
   7 -11 -11   18.35    4.87
  -7 -11 -11   14.47    6.51
  -7  11 -12   29.75    6.61
  -7  11  12   28.87    7.24
   7  11  12   17.99    6.99
   7  11 -12   16.64    7.20
   7 -11 -12   19.87    5.89
   7 -11 -12   19.80    8.96
  -7 -11 -12   19.72    7.05
   7  11  13   14.82    5.21
   7 -11  13    8.97    5.31
   7  11 -13   10.75    4.32
   7 -11 -13   18.11    7.32
   7 -11 -13   11.10    5.77
  -7 -11 -13   19.74   10.15
   7  11  14   27.26   14.34
   7 -11  14   26.90   11.90
   7  11 -14   41.80   12.90
   7 -11 -14   36.48   17.70
   7 -11 -14   43.88    8.83
  -7 -11 -14   20.02   22.63
  -7  12   0   -5.85    6.38
   7  12   0   13.98    9.00
   7  12   0    3.88    2.70
   7 -12   0    8.08    5.95
  -7  12  -1  224.06   38.68
  -7  12   1  207.33   36.77
   7  12  -1  211.94   41.54
   7  12   1  165.17   46.68
   7  12  -1  205.83   40.09
   7 -12  -1  222.68   44.15
   7 -12   1  232.04   44.06
  -7  12  -2   87.74   13.98
  -7  12   2   53.22   12.02
   7  12  -2   72.22   19.88
   7  12   2   66.58   18.52
   7  12  -2   62.68   11.85
   7 -12  -2   54.81   17.63
   7 -12   2   73.77   23.94
  -7  12  -3  125.52   35.69
  -7  12   3  114.41   34.32
   7  12  -3  123.26   35.67
   7  12   3  105.72   21.61
   7  12  -3  109.96   24.04
   7 -12  -3   97.89   24.30
  -7  12  -4   46.35   10.10
  -7  12   4   25.98    7.40
   7  12   4   41.58   14.84
   7  12  -4   30.71    6.90
   7 -12  -4   24.66    8.46
  -7  12  -5   26.28    7.54
  -7  12   5   21.80    7.13
   7  12  -5   33.90   11.17
   7  12   5   29.91   10.57
   7  12  -5   22.83    7.93
   7 -12  -5   31.36    8.11
  -7  12  -6    8.73    3.89
  -7  12   6   14.61    5.83
   7  12  -6   11.69    9.17
   7  12   6   14.30    8.26
   7  12  -6   13.68    7.80
   7 -12  -6   10.16    7.31
   7 -12  -6    6.05    2.73
  -7  12  -7   12.26    4.13
  -7  12   7    5.49    4.75
   7  12  -7    2.80    3.56
   7  12   7    5.28    6.69
   7  12  -7    9.74    4.26
   7 -12  -7   21.17    6.36
   7 -12  -7    5.38    1.41
  -7  12  -8   12.03    7.68
  -7  12   8   30.45    8.38
   7  12  -8   35.27   11.82
   7  12   8   43.49   10.93
   7  12  -8   39.44   10.51
   7 -12  -8   28.90    9.15
   7 -12  -8   24.49    6.81
  -7 -12  -8   27.67    8.94
  -7  12  -9   53.59   17.59
   7  12  -9   44.41   12.72
   7  12   9   66.40   21.04
   7  12  -9   40.97    8.74
   7 -12  -9   35.69   16.68
   7 -12  -9   39.81   11.79
  -7 -12  -9   48.22   12.40
  -7  12  10    5.59    4.30
   7  12 -10   11.10    5.80
   7  12  10    5.13    3.28
   7  12 -10    7.02    4.76
   7 -12 -10   10.45    9.21
   7 -12 -10    6.80    5.03
  -7 -12 -10   10.12    5.62
  -7  12 -11   59.59   15.68
  -7  12  11   64.17   20.42
   7  12 -11   53.18   16.66
   7  12  11   76.02   24.55
   7  12 -11   60.12   16.50
   7 -12 -11   57.45   21.04
   7 -12 -11   71.33   24.34
  -7 -12 -11   64.64   24.85
  -7  12 -12    2.64    4.05
  -7  12  12    6.15    2.40
   7  12  12    9.62    7.21
   7  12 -12    9.33    5.18
   7 -12 -12   -6.94    8.36
   7 -12 -12   -0.53    2.81
  -7 -12 -12   10.58    8.31
  -7  12 -13   18.63    8.85
   7  12  13   34.15   15.31
   7  12 -13   34.54   14.43
   7 -12 -13   14.49    5.72
  -7 -12 -13   35.60   10.83
  -7  13   0  122.95   26.95
   7  13   0  115.73   23.59
   7 -13   0  110.67   28.52
  -7  13  -1   19.50    8.64
  -7  13   1   18.47    9.39
   7  13  -1   15.73    6.63
   7  13   1   16.38    8.18
   7  13  -1   18.79    5.61
   7 -13  -1   16.52   12.61
   7 -13   1   29.28   15.60
  -7  13  -2   47.08   14.04
  -7  13   2   48.48   16.48
   7  13  -2   37.62   16.18
   7  13   2   29.62    9.33
   7  13  -2   41.41   10.98
   7 -13  -2   18.21   14.72
   7 -13   2   22.90   12.42
  -7  13  -3   46.14   12.66
  -7  13   3   48.41   12.32
   7  13  -3   44.57   13.11
   7  13   3   50.50   13.89
   7  13  -3   34.13    8.78
   7 -13  -3   49.77   18.64
  -7  13  -4   68.09   12.68
  -7  13   4   97.15   20.20
   7  13   4   56.83   17.58
   7  13  -4   97.85   23.09
   7 -13  -4   68.44   24.24
  -7  13  -5   50.53   14.01
  -7  13   5   46.27    9.74
   7  13  -5   34.60   14.43
   7  13   5   51.52    9.11
   7  13  -5   38.93   13.10
   7 -13  -5   53.16   14.75
  -7  13  -6    8.22    3.97
  -7  13   6    2.49    3.01
   7  13  -6    4.98    3.91
   7  13   6   18.78    5.27
   7  13  -6    9.36    4.40
   7 -13  -6   14.41    6.93
  -7  13  -7   34.60   29.81
  -7  13   7   61.32   19.53
   7  13  -7   39.99   16.84
   7  13   7   55.01   12.89
   7  13  -7   47.79    8.80
   7 -13  -7   43.71   19.92
  -7 -13  -7   40.15   10.73
  -7  13  -8   37.95   22.15
  -7  13   8   44.35   17.75
   7  13  -8   53.22   23.29
   7  13   8   57.04   15.82
   7  13  -8   64.53   12.70
   7 -13  -8   59.20   23.60
  -7 -13  -8   69.66   16.80
  -7  13  -9   33.24   10.64
  -7  13   9   16.56    9.71
   7  13  -9   21.90    7.30
   7  13   9   25.56    8.54
   7  13  -9   36.37   13.29
   7 -13  -9   41.87   16.29
  -7 -13  -9   27.99   10.66
  -7  13  10    4.85    5.39
   7  13 -10    7.85    4.23
   7  13 -10    3.63    2.26
   7 -13 -10    9.11   12.66
  -7 -13 -10    9.15    7.86
  -7  13 -11   12.56    4.64
  -7  13  11   27.58    8.73
   7  13 -11   16.04    7.83
   7  13  11   37.40   11.44
   7  13 -11   35.06   17.52
   7 -13 -11   46.20   10.71
   7 -13 -11   20.23    9.38
  -7 -13 -11   36.04   18.17
  -7  13 -12   12.60    7.49
  -7  13  12    5.30    3.77
   7  13  12   13.39   10.63
   7  13 -12   29.25   13.03
   7 -13 -12   15.06    7.28
   7 -13 -12   19.54    8.30
  -7 -13 -12   23.30   15.09
  -7  14   0   16.45    7.68
   7  14   0   22.89    8.28
   7 -14   0   32.92    9.38
  -7  14  -1   16.90    5.91
  -7  14   1    1.13    3.38
   7  14  -1   -1.16    6.65
   7  14   1    9.34    9.29
   7 -14  -1   -1.07    4.13
   7 -14   1   10.69    7.39
  -7  14  -2   22.47   10.12
  -7  14   2   14.87    4.89
   7  14  -2   22.46    6.90
   7  14   2   19.62    7.58
   7  14  -2   23.29    7.37
   7 -14  -2   27.67   11.64
   7 -14   2   17.37    6.41
  -7  14  -3   87.56   19.84
  -7  14   3   67.26   11.17
   7  14  -3   80.43   19.07
   7  14   3   79.74   17.77
   7  14  -3   54.75   14.90
   7 -14  -3   66.10   21.56
  -7  14  -4   37.86   12.60
  -7  14   4   26.90    6.63
   7  14  -4   30.44   14.24
   7  14   4   62.39   19.85
   7  14  -4   15.56    6.13
   7 -14  -4   34.35   11.59
  -7  14  -5   99.33   23.33
  -7  14   5   73.44   22.63
   7  14   5   92.94   19.13
   7  14  -5   73.73   16.08
   7 -14  -5   71.05   18.36
  -7  14  -6   41.50   12.96
  -7  14   6   51.99   11.12
   7  14  -6   57.43   16.04
   7  14   6   63.78   16.11
   7  14  -6   47.42   15.33
   7 -14  -6   42.84   13.74
  -7  14  -7   28.32   12.91
  -7  14   7   21.00    5.47
   7  14  -7   41.02   12.18
   7  14   7   44.66   17.51
   7  14  -7   36.33   10.33
   7 -14  -7   59.34   16.21
  -7 -14  -7   37.33    9.13
  -7  14  -8    4.63    4.56
  -7  14   8    4.88    5.53
   7  14  -8    6.52    4.37
   7  14   8    7.42    4.37
   7  14  -8    4.86    5.86
   7 -14  -8   17.06    7.98
  -7 -14  -8   13.90    6.83
  -7  14  -9   46.15   18.67
  -7  14   9   54.49   16.40
   7  14  -9   38.60    9.85
   7  14   9   39.64    9.64
   7  14  -9   52.70   11.78
  -7 -14  -9   32.35    7.90
  -7  14 -10    4.21    6.78
  -7  14  10   29.97   10.39
   7  14 -10    9.44    7.99
   7  14  10   22.85    7.80
   7  14 -10   15.33    4.88
   7 -14 -10   23.24    9.03
  -7 -14 -10   32.83   12.45
  -7  15   0   15.46    7.80
   7  15   0    8.83    5.68
   7 -15   0   -2.21    9.49
  -7  15  -1   64.00   15.75
  -7  15   1   49.97   16.94
   7  15  -1   73.04   21.48
   7  15   1   60.97   12.91
   7 -15  -1   58.26   15.85
   7 -15   1   74.34   27.77
  -7  15  -2   29.07    8.33
  -7  15   2   10.41    6.45
   7  15  -2   19.14    9.72
   7  15   2   23.81    9.77
   7 -15  -2   23.74    9.55
   7 -15   2   17.56   11.77
  -7  15  -3    2.63    7.09
  -7  15   3   23.09    8.82
   7  15   3   20.58   11.27
   7  15  -3   33.30    7.78
   7 -15  -3   40.52   14.99
  -7  15  -4   41.01   11.75
  -7  15   4   31.61   20.55
   7  15  -4   55.40   21.60
   7  15   4   45.74   11.04
   7  15  -4   37.87   13.82
   7 -15  -4   33.90   13.29
  -7  15  -5   12.65    7.08
  -7  15   5    9.85    9.70
   7  15   5   29.66    5.47
   7  15  -5   21.79    7.05
   7 -15  -5    9.17    9.70
  -7  15  -6    4.36    4.83
  -7  15   6    6.03    4.93
   7  15  -6   13.33    6.41
   7  15   6    2.12    8.08
   7  15  -6   10.29    6.65
   7 -15  -6   15.53   14.86
  -7  15  -7   21.91    8.49
  -7  15   7    0.09    3.14
   7  15  -7   -1.65    4.39
   7  15   7   11.45    5.75
   7  15  -7   12.10    7.06
   7 -15  -7   16.03   11.59
  -7 -15  -7    7.96    5.96
  -7  15  -8   48.20   11.43
  -7  15   8   28.69   13.90
   7  15  -8   32.28   12.91
   7  15   8   28.56   17.21
   7  15  -8   44.74   15.33
   7 -15  -8   31.69   11.01
  -7 -15  -8   40.59   15.93
  -7  15  -9   -0.72    6.00
  -7  15   9    9.75    5.18
   7  15  -9   10.15    6.03
   7  15   9    8.43    4.69
   7  15  -9    8.89    6.22
   7 -15  -9   12.17    8.53
  -7 -15  -9   25.78   10.21
  -7  16   0   55.77   19.86
   7  16   0   40.54   16.20
   7 -16   0   48.04   14.30
  -7  16  -1   28.09    7.11
  -7  16   1   22.38    7.59
   7  16   1   17.57    7.71
   7 -16  -1   10.10    8.07
   7 -16   1   31.25    8.25
  -7  16  -2   26.83   12.28
  -7  16   2   23.31   13.80
   7  16  -2   14.58    7.29
   7  16   2   13.83    6.32
   7 -16  -2   15.65    9.96
   7 -16   2    9.56    8.02
  -7  16  -3   11.05    6.11
  -7  16   3   17.60    7.53
   7  16  -3   19.84    8.44
   7  16   3   21.01    9.89
   7 -16  -3   13.57    9.89
   7 -16   3   21.84    7.66
  -7  16  -4   24.83   13.81
  -7  16   4   18.02    5.37
   7  16  -4   18.33    9.96
   7  16   4   30.39   15.22
   7 -16  -4   29.22   16.58
  -7  16  -5   11.06    6.45
  -7  16   5   20.59    6.91
   7  16   5   13.75    7.41
   7  16  -5    9.85    3.97
   7 -16  -5   21.63   12.23
  -7  16  -6   10.57    4.92
  -7  16   6    8.57    7.15
   7  16  -6   31.81    9.12
   7  16   6   11.37    4.75
   7  16  -6   10.03    3.75
   7 -16  -6   11.64    5.91
  -7  17   0   18.47    8.82
   7  17   0   17.67    5.86
   7 -17   0   21.60    8.75
   8   0   0  864.56   33.85
   8   0   0  849.00   31.70
   8   0   1    4.82    2.81
   8   0  -1    4.91    2.81
   8   0   1   12.16    5.50
   8   0   2  169.79   31.06
   8   0  -2  164.30   32.06
   8   0   2  129.80   14.77
   8   0  -3  660.23   28.71
   8   0   3  662.50   32.46
   8   0  -3  703.08   29.66
   8   0   3  647.00   27.36
   8   0  -4  213.87   38.31
   8   0   4  225.62   31.44
   8   0  -4  249.25   29.36
   8   0   4  190.70    8.59
   8   0  -5   81.08   21.43
   8   0   5   88.26   22.09
   8   0  -5   70.67   13.44
   8   0   5   64.88   10.84
  -8   0  -5   67.72   18.66
   8   0  -6   97.28   18.13
   8   0   6  130.27   15.59
   8   0  -6  110.52   22.72
   8   0   6  110.00    3.87
  -8   0  -6  115.45   22.54
   8   0  -7   65.28   19.94
   8   0   7   64.56   15.41
   8   0   7   60.75    4.11
   8   0   7   56.35    3.24
   8   0  -7   88.15   16.49
  -8   0  -7   57.72   13.12
   8   0  -8    9.09    3.15
   8   0   8   -3.14    7.30
   8   0  -8    8.21    5.37
  -8   0  -8   10.85    3.54
   8   0  -9   64.39   20.70
   8   0   9   79.86   13.25
   8   0  -9  100.23   26.31
  -8   0  -9   81.38   20.69
   8   0 -10    3.10    2.56
   8   0  10   10.72    4.59
   8   0 -10   -3.08    7.53
  -8   0 -10   13.02    5.01
   8   0 -11   14.66    5.61
   8   0  11    8.79    3.87
   8   0 -11   16.89    7.57
  -8   0 -11   14.70    5.22
   8   0  12  478.36   16.69
   8   0 -12  487.78   18.08
  -8   0 -12  502.06   15.40
   8   0  13   46.86    9.95
   8   0 -13   40.72   10.44
  -8   0 -13   30.27   11.52
   8   0  14    6.42    6.64
   8   0 -14   12.57    8.85
  -8   0 -14    5.91    3.60
   8   0  15   52.70   19.35
   8   0 -15   38.56   11.06
  -8   0 -15   40.95   11.63
   8   0  16   46.19   17.64
   8   0 -16   59.48   22.09
  -8   0 -16   49.99   16.30
   8   0  17    4.70    6.41
   8   0 -17    8.55    5.16
  -8   0 -17   17.94    8.12
   8   0 -18   31.69    9.83
  -8   0 -18   11.37    4.83
   8   1   0   50.65   11.90
   8  -1   0   71.57   17.97
   8   1   0   61.31   10.55
   8  -1   0   52.34   13.68
   8   1   1   28.38    9.67
   8  -1  -1   23.68    8.11
   8  -1   1   29.85    9.49
   8   1   1   20.60    5.70
   8   1  -1   34.83    7.10
   8  -1  -1   17.87    5.51
   8  -1   1   20.77    6.12
   8   1   2  295.50   16.71
   8  -1   2  301.39   16.88
   8   1   2  273.23   13.54
   8   1  -2  275.61   18.94
   8  -1  -2  283.46   11.28
   8  -1   2  308.81   33.41
   8   1  -3  107.89   20.95
   8   1   3  100.15   25.43
   8  -1  -3   97.15   20.70
   8  -1   3  106.81   20.53
   8   1   3   78.20   11.30
   8   1  -3   95.09   19.80
   8  -1  -3   87.01   16.08
   8  -1   3   90.48    9.86
   8   1  -4  500.09   23.09
   8   1   4  454.46   23.21
   8  -1  -4  490.44   34.00
   8  -1   4  531.71   25.16
   8   1   4  473.76   19.70
   8   1  -4  494.04   23.38
   8  -1  -4  423.75   25.02
   8  -1   4  491.14   20.09
  -8  -1  -4  469.21   18.53
  -8   1  -4  455.25   18.82
   8   1  -5   55.34   18.47
   8   1   5   70.17   15.31
   8  -1  -5   72.35   16.68
   8  -1   5   66.65   14.71
   8   1   5   54.26    7.72
   8   1  -5   53.98   12.06
   8  -1  -5   80.18   19.60
   8  -1   5   41.87    9.98
  -8   1  -5   66.13   11.10
   8   1  -6  228.55   30.98
   8   1   6  230.28   14.83
   8  -1  -6  258.78   13.20
   8  -1   6  255.25   55.39
   8   1   6  221.07    7.90
   8   1  -6  244.78   45.67
   8  -1  -6  289.12   52.89
   8  -1   6  234.59    9.31
  -8   1  -6  246.19   13.21
  -8  -1  -6  212.23   14.64
   8   1  -7   55.02   14.78
   8   1   7   48.11    9.95
   8  -1  -7   53.08   18.78
   8  -1   7   64.37   17.05
   8  -1   7   39.48    7.51
   8   1  -7   68.11   13.94
   8  -1  -7   55.79   11.59
   8  -1   7   50.13    7.38
  -8   1  -7   55.53   12.88
  -8  -1  -7   74.97   17.88
   8   1  -8  280.92   13.30
   8   1   8  339.80   37.11
   8  -1  -8  317.63   14.62
   8  -1   8  348.79   57.71
   8  -1   8  279.71   10.09
   8   1  -8  361.43   36.88
   8  -1  -8  320.42   55.09
   8  -1   8  276.09    9.99
  -8   1  -8  296.07   15.77
  -8  -1  -8  305.09   22.84
   8   1  -9  110.54   23.56
   8   1   9  169.00   35.59
   8  -1  -9  158.52   16.35
   8  -1   9  139.13   35.94
   8  -1   9  118.29    3.38
   8   1  -9  139.68   23.37
   8  -1  -9  142.94   17.51
   8  -1   9  107.13    2.91
  -8   1  -9  119.32   24.51
  -8  -1  -9  136.71   21.27
   8   1 -10  131.53    6.17
   8   1  10  160.74   30.00
   8  -1 -10  149.24    6.82
   8  -1  10  147.21   30.42
   8   1 -10  116.19   29.44
   8  -1 -10  129.70   32.82
  -8   1 -10  142.59    8.39
  -8  -1 -10  152.95   25.77
   8   1 -11    4.04    2.19
   8  -1 -11    5.05    2.87
   8   1  11    4.40    4.51
   8  -1  11    4.98    2.94
   8   1 -11    8.85    4.89
   8  -1 -11    8.71    7.04
  -8   1 -11    5.19    4.49
  -8  -1 -11    5.12    2.89
   8   1  12   58.31   12.90
   8  -1  12   45.10   18.12
   8   1 -12   56.73   11.12
   8  -1 -12   56.02   13.51
  -8   1 -12   59.19   13.33
  -8  -1 -12   52.43    9.12
   8   1  13    1.36    3.00
   8  -1  13   19.92    5.60
   8   1 -13   23.84   12.60
   8  -1 -13   22.38    7.02
  -8   1 -13    2.43    4.18
  -8  -1 -13   14.24    7.22
   8   1  14   40.79   13.96
   8  -1  14   44.43   17.00
   8   1 -14   42.01    9.75
   8  -1 -14   38.68    9.03
  -8   1 -14   35.21    7.19
  -8  -1 -14   37.87   10.74
   8   1  15   11.68    7.03
   8  -1  15   13.99    6.90
   8   1 -15   28.41    8.31
   8  -1 -15   15.81    7.11
  -8   1 -15   20.02    6.09
  -8  -1 -15   12.60    8.81
   8   1  16   81.91   24.87
   8  -1  16   94.55   28.25
   8   1 -16   70.53   22.80
   8  -1 -16   89.70   28.62
  -8   1 -16   67.98   19.81
  -8  -1 -16   88.15   24.21
   8   1  17    5.41    3.74
   8   1 -17    9.98    4.85
   8  -1 -17   13.15    7.60
  -8   1 -17   16.91    4.59
  -8  -1 -17    8.90    3.93
   8   1 -18   13.92    3.84
   8  -1 -18   11.86    6.85
  -8   1 -18   19.83    7.61
  -8  -1 -18   22.42    7.99
   8   2   0    9.24    5.41
   8  -2   0   10.45    4.31
   8   2   0    1.90    2.32
   8  -2   0    4.58    4.69
   8   2   1   70.42   16.71
   8  -2   1   67.02   13.68
   8  -2  -1   86.76   14.24
   8   2   1   70.42   15.29
   8   2  -1   72.77   18.21
   8  -2  -1   82.49   17.61
   8  -2   1   65.41   12.46
   8   2   2  560.20   31.99
   8  -2   2  630.02   28.35
   8   2   2  651.96   25.27
   8   2  -2  645.10   26.85
   8  -2  -2  633.56   27.38
   8  -2   2  658.09   33.61
   8   2  -3  622.37   34.04
   8   2   3  637.45   28.10
   8  -2   3  668.74   30.14
   8  -2  -3  640.98   27.02
   8   2   3  621.08   25.98
   8   2  -3  647.94   27.50
   8  -2  -3  615.02   27.93
   8  -2   3  620.26   25.50
   8   2  -4   93.61   24.23
   8   2   4  126.87   24.21
   8  -2   4   98.46   23.74
   8  -2  -4  111.75   27.29
   8   2   4  102.80    6.75
   8   2  -4   81.17   16.25
   8  -2  -4  122.28   26.19
   8  -2   4   97.07    9.97
  -8  -2  -4   74.45    6.27
  -8   2  -4  104.70    5.93
   8   2  -5   49.24   11.29
   8   2   5   61.53    9.35
   8  -2   5   54.68   14.50
   8  -2  -5   66.60   12.56
   8   2   5   49.84    7.70
   8   2  -5   57.68   16.78
   8  -2  -5   71.66   16.90
   8  -2   5   43.92   10.57
  -8  -2  -5   32.22    7.60
  -8   2  -5   49.40   12.85
   8   2  -6  408.11   17.92
   8   2   6  419.16   44.81
   8  -2   6  439.03   34.92
   8  -2  -6  419.29   26.63
   8   2   6  398.57   12.38
   8   2  -6  423.95   19.62
   8  -2  -6  426.92   21.08
   8  -2   6  401.15   15.44
  -8   2  -6  394.92   14.91
  -8  -2  -6  429.61   18.37
   8   2  -7  100.34   29.18
   8   2   7  104.17   33.98
   8  -2   7  118.47   21.55
   8  -2  -7   84.70   17.09
   8  -2   7   64.58   13.35
   8   2  -7  120.14   19.19
   8  -2  -7   90.22   24.89
   8  -2   7   73.50   11.88
  -8   2  -7   82.80   13.23
  -8  -2  -7  105.30   23.43
   8   2  -8   78.12   14.86
   8   2   8   55.86   14.74
   8  -2  -8   83.90   13.98
   8  -2   8   94.76   18.55
   8  -2   8   54.53    7.54
   8   2  -8   86.33   14.01
   8  -2  -8   84.05   15.84
   8  -2   8   71.44    7.56
  -8   2  -8   70.20   15.08
  -8  -2  -8   81.10   18.84
   8   2  -9  184.48   23.62
   8   2   9  186.79   18.97
   8  -2  -9  194.50    9.03
   8  -2   9  211.88   33.79
   8   2  -9  228.27   43.86
   8  -2  -9  197.30   42.77
   8  -2   9  188.76    6.81
  -8   2  -9  194.00   13.20
  -8  -2  -9  217.25   38.71
   8   2 -10  145.54    6.89
   8   2  10  196.38   36.44
   8  -2 -10  166.72   17.27
   8  -2  10  161.34   28.33
   8   2 -10  152.54   30.12
   8  -2 -10  178.24   36.96
   8  -2  10  142.81    5.12
  -8   2 -10  169.16   25.35
  -8  -2 -10  169.45   37.07
   8   2 -11    7.56    3.21
   8   2  11    6.63    4.28
   8  -2 -11    8.76    3.83
   8  -2  11   16.22    5.02
   8   2 -11    5.81    5.80
   8  -2 -11   17.94    9.07
  -8   2 -11   16.07    4.01
  -8  -2 -11   11.69    6.07
   8   2  12    8.71    5.15
   8  -2 -12    5.83    1.90
   8  -2  12   13.05    5.52
   8   2 -12    8.11    4.16
   8  -2 -12    3.25    3.73
  -8   2 -12   10.97    3.75
  -8  -2 -12   17.04    3.69
   8   2  13   40.66   11.06
   8  -2  13   56.07   13.18
   8   2 -13   39.73   13.13
   8  -2 -13   59.11   12.06
  -8   2 -13   35.36   10.29
  -8  -2 -13   53.71   15.88
   8   2  14   45.42   14.14
   8  -2  14   81.99   18.54
   8   2 -14   73.33   12.63
   8  -2 -14   68.79   13.60
  -8   2 -14   58.32   14.54
  -8  -2 -14   68.40   10.90
   8   2  15   48.92   15.83
   8  -2  15   42.95   16.05
   8   2 -15   41.96   11.18
   8  -2 -15   33.88    7.31
  -8   2 -15   36.87   12.06
  -8  -2 -15   51.64   10.53
   8   2  16   10.72    5.69
   8  -2  16    7.99    4.55
   8   2 -16    8.08    5.65
   8  -2 -16   12.04    7.10
  -8   2 -16   16.50    5.82
  -8  -2 -16    5.84    4.90
   8   2  17    1.39    4.13
   8  -2  17    6.78    4.64
   8   2 -17   14.89    6.92
   8  -2 -17    5.32    7.88
  -8   2 -17   14.52    5.08
  -8  -2 -17    4.16    3.42
   8   2 -18   20.64    9.65
   8  -2 -18    9.24    5.32
  -8   2 -18   17.08    5.34
   8   3   0   55.17   11.20
   8  -3   0   63.10   18.50
   8   3   0   59.24   11.91
   8  -3   0   64.46   19.04
  -8   3   0   45.61    5.46
   8   3   1  107.09   26.43
   8  -3   1  153.63   20.70
   8  -3  -1  119.93   22.78
   8   3   1  143.37   17.04
   8   3  -1  147.52   22.61
   8  -3  -1  104.28   18.13
   8  -3   1  145.40   23.40
  -8   3   1  108.76   13.17
   8   3   2  393.40   21.97
   8  -3   2  381.47   19.97
   8   3   2  329.86   14.15
   8   3  -2  379.23   17.80
   8  -3  -2  400.94   44.77
   8  -3   2  400.29   18.35
   8   3  -3   51.91   11.77
   8   3   3   74.42   19.38
   8  -3   3   67.38   20.41
   8  -3  -3   57.61   12.36
   8   3   3   71.31    9.08
   8   3  -3   59.85   16.53
   8  -3  -3   81.48   21.77
   8  -3   3   57.92   16.73
  -8   3  -3   66.79    9.56
   8   3  -4  177.05   34.06
   8   3   4  177.52   35.28
   8  -3   4  183.50   36.52
   8  -3  -4  169.56    9.95
   8   3   4  145.74    4.97
   8   3  -4  186.41   32.06
   8  -3  -4  199.34   25.83
  -8  -3  -4  145.09   12.29
   8  -3   4  166.99   26.65
  -8   3  -4  154.05    4.88
   8   3  -5  334.65   16.19
   8   3   5  378.17   46.72
   8  -3   5  342.88   29.30
   8  -3  -5  320.13   15.31
   8   3   5  314.00   10.82
   8   3  -5  336.04   25.30
   8  -3  -5  318.75   32.56
   8  -3   5  319.90   13.60
  -8  -3  -5  321.45   12.50
  -8   3  -5  329.29   12.02
   8   3  -6  102.43   16.01
   8   3   6  110.29   25.88
   8  -3   6  114.51   37.72
   8  -3  -6  109.68   23.85
   8   3   6  101.12    2.15
   8   3  -6  119.60   27.79
   8  -3  -6  130.92   24.09
   8  -3   6  104.79   19.93
  -8   3  -6  105.40    4.77
   8   3  -7  199.28   11.24
   8   3   7  200.43   31.12
   8  -3   7  195.93   23.29
   8  -3  -7  200.01   13.36
   8   3  -7  202.19   36.34
   8  -3  -7  175.96   38.49
   8  -3   7  199.58   10.15
  -8   3  -7  192.87   10.95
  -8  -3  -7  196.29   37.57
   8   3  -8  153.66    9.10
   8   3   8  182.22   21.13
   8  -3   8  171.83   30.05
   8  -3  -8  159.13    9.99
   8   3  -8  179.94   32.56
   8  -3  -8  122.33   33.18
   8  -3   8  158.84   21.50
  -8   3  -8  162.79    7.62
  -8  -3  -8  174.56   26.83
   8   3  -9   32.88    7.62
   8   3   9   28.73   11.46
   8  -3   9   51.36   12.59
   8  -3  -9   31.01    7.98
   8   3  -9   39.26   16.49
   8  -3  -9   50.03   11.67
   8  -3   9   21.80    7.28
  -8   3  -9   39.91   10.19
  -8  -3  -9   33.23    9.53
   8   3 -10   22.94    7.31
   8   3  10   25.99   10.89
   8  -3  10   30.80    8.39
   8  -3 -10   15.36    3.11
   8   3 -10   32.14    7.14
   8  -3 -10   32.71    7.33
   8  -3  10   21.32    7.09
  -8   3 -10   22.00    9.77
  -8  -3 -10   19.91    7.93
   8   3 -11    2.68    1.88
   8   3  11   10.21    4.65
   8  -3 -11    1.79    1.72
   8  -3  11   11.42    4.05
   8   3 -11   17.91   10.19
   8  -3 -11   19.12    7.63
   8  -3  11    4.07    1.57
  -8   3 -11    5.09    2.95
  -8  -3 -11    9.96    5.26
   8   3  12   10.99    6.81
   8  -3 -12    9.35    2.54
   8  -3  12    9.01    5.24
   8   3 -12   13.35    9.10
   8  -3 -12   -1.22    7.65
  -8   3 -12    7.32    1.92
  -8  -3 -12   12.04    3.74
   8   3  13   44.34   20.04
   8  -3  13   61.42   13.79
   8   3 -13   50.62   14.05
   8  -3 -13   50.79   15.05
  -8   3 -13   41.05   14.35
  -8  -3 -13   55.63   18.43
   8   3  14   68.09   26.07
   8  -3  14   57.98   20.73
   8   3 -14   64.48   15.49
   8  -3 -14   67.54   21.49
  -8   3 -14   48.82   10.90
  -8  -3 -14   65.01   17.92
   8   3  15   26.36   13.16
   8  -3  15   26.41    9.91
   8   3 -15   34.86   13.97
   8  -3 -15   51.68   12.19
  -8   3 -15   31.90   11.73
  -8  -3 -15   38.64   14.48
   8   3  16   31.24    9.21
   8  -3  16   24.52    9.07
   8   3 -16   34.39   11.82
   8  -3 -16   22.86    5.09
  -8   3 -16   34.64    7.88
  -8  -3 -16   23.15    8.40
   8   3  17   17.97    7.26
   8  -3  17   31.42   13.01
   8   3 -17   24.54   11.01
   8  -3 -17   36.82   11.50
  -8   3 -17   13.87    8.08
  -8  -3 -17   15.53    4.64
   8   3 -18   -2.95    5.44
   8  -3 -18   11.20    5.57
  -8   3 -18   12.79    5.03
  -8  -3 -18   10.08    5.36
   8   4   0   90.46   23.06
   8  -4   0   78.83   17.62
   8   4   0   70.87   10.71
   8  -4   0   76.77   19.64
  -8   4   0   73.79    4.30
   8   4  -1  468.46   23.48
   8   4   1  456.06   23.64
   8  -4   1  505.18   25.25
   8  -4  -1  471.06   31.25
   8   4   1  500.64   21.80
   8   4  -1  491.56   21.38
   8  -4  -1  476.41   22.64
   8  -4   1  487.36   22.28
  -8   4  -1  464.51   17.25
  -8   4   1  468.30   17.99
   8   4   2  147.16   34.93
   8  -4   2  138.39   22.66
   8   4   2  133.31   18.20
   8   4  -2  126.99   12.44
   8  -4  -2  158.04   37.46
   8  -4   2  132.16   13.59
  -8   4  -2  124.71    4.41
  -8   4   2  111.35    7.97
  -8   4  -2  131.03    5.74
   8   4  -3   53.50   10.62
   8   4   3   78.10   18.02
   8  -4   3   52.94    9.81
   8  -4  -3   59.11   13.46
   8   4   3   57.54   11.72
   8   4  -3   58.49   11.34
   8  -4  -3   54.76   13.36
   8  -4   3   45.91   10.55
  -8   4  -3   52.98    4.50
   8   4  -4  210.36   33.46
   8   4   4  214.60   29.45
   8  -4   4  222.69   47.44
   8  -4  -4  201.90   34.23
   8   4   4  192.06   10.37
   8   4  -4  238.20   20.54
  -8  -4  -4  181.96    6.90
   8  -4  -4  228.90   46.62
   8  -4   4  199.16   21.03
  -8   4  -4  227.20    8.20
   8   4  -5   19.70    5.99
   8   4   5   22.41    6.80
   8  -4   5   17.13    6.56
   8  -4  -5   20.77    7.20
   8   4   5   12.65    4.19
   8   4  -5   17.84    7.33
   8  -4  -5    9.14    6.76
  -8  -4  -5    7.16    1.99
   8  -4   5   10.21    3.31
  -8   4  -5   13.13    3.90
   8   4  -6    5.30    5.01
   8   4   6    8.33    4.95
   8  -4   6   14.48    5.38
   8  -4  -6   -1.35    5.10
   8   4  -6   15.71    5.90
   8  -4  -6    8.29    6.19
  -8  -4  -6    5.83    2.49
   8  -4   6    2.50    3.04
  -8   4  -6    2.39    2.00
   8   4  -7   11.45    7.21
   8   4   7   26.34   12.05
   8  -4   7   -0.07    7.25
   8  -4  -7    8.87    3.64
   8   4  -7    5.89    3.66
   8  -4  -7   19.99    9.67
   8  -4   7   11.52    4.57
  -8   4  -7   10.72    2.47
   8   4  -8  110.51   20.36
   8   4   8  137.89   31.80
   8  -4   8   98.40   19.09
   8  -4  -8  116.67   22.70
   8   4  -8   98.87   19.88
   8  -4  -8  124.63   38.86
   8  -4   8   97.80   17.51
  -8   4  -8  126.03   17.04
   8   4  -9   79.09   11.07
   8   4   9   80.49   17.64
   8  -4   9   88.60   25.16
   8  -4  -9   69.22   14.07
   8   4  -9   77.56   16.17
   8  -4  -9   89.37   27.64
   8  -4   9   66.07   20.42
  -8   4  -9   60.95   16.15
   8   4 -10   55.26   15.90
   8   4  10   47.45   13.41
   8  -4  10   59.99   12.25
   8  -4 -10   36.63    8.73
   8   4 -10   52.33   15.45
   8  -4 -10   36.34    9.96
   8  -4  10   52.02   15.37
  -8   4 -10   46.42   10.45
   8   4 -11   41.89   10.53
   8   4  11   48.41   18.05
   8  -4  11   49.81   10.87
   8  -4 -11   38.06   11.64
   8   4 -11   46.59   12.29
   8  -4 -11   31.40    5.98
   8  -4  11   41.23   14.22
   8  -4 -11   33.05    6.80
  -8   4 -11   38.51   11.40
   8   4  12   40.93   11.10
   8  -4  12   49.02   14.53
   8  -4 -12   20.32    9.28
   8   4 -12   33.46   10.36
   8  -4 -12   28.70   10.64
   8  -4 -12   43.14   14.07
  -8   4 -12   25.37    5.06
   8   4  13   53.24   23.88
   8  -4  13   59.72   18.39
   8   4 -13   70.54   15.30
   8  -4 -13   57.74   18.03
   8  -4 -13   58.26    9.49
  -8   4 -13   62.02   16.13
   8   4  14   60.92   25.78
   8  -4  14   53.23   21.54
   8   4 -14   66.86   21.77
   8  -4 -14   54.43   17.38
   8  -4 -14   52.18   19.04
  -8   4 -14   62.92   16.25
   8   4  15   50.50   24.55
   8  -4  15   54.21   19.68
   8   4 -15   72.17   17.65
   8  -4 -15   52.43   22.88
   8  -4 -15   46.61   19.50
  -8   4 -15   45.83   13.67
   8   4  16   15.20    7.50
   8  -4  16   15.66    6.05
   8   4 -16   32.16    6.93
   8  -4 -16   16.86    5.54
   8  -4 -16    5.35    3.62
  -8   4 -16   17.57    7.11
   8   4  17    6.66    4.05
   8  -4  17    0.88    3.71
   8   4 -17    9.07    5.50
   8  -4 -17   -5.94    5.73
  -8   4 -17    5.89    4.41
   8   4 -18   17.70    7.55
   8  -4 -18   17.46    6.75
  -8   4 -18    5.05    4.54
  -8   5   0  271.15   31.76
   8   5   0  225.80   29.02
   8   5   0  217.65   15.96
   8  -5   0  254.83   39.63
  -8   5   0  207.23    6.60
  -8   5  -1  181.48   10.43
  -8   5   1  199.15   23.70
   8   5  -1  209.49   41.68
   8   5   1  189.47   39.34
   8   5   1  177.26   16.90
   8   5  -1  195.31   13.39
   8  -5  -1  209.44   19.18
   8  -5   1  221.35   31.06
  -8   5   1  187.53    9.87
  -8   5   2   13.79    6.03
   8   5   2   11.09    7.37
   8  -5   2    6.28    5.70
   8   5   2    7.28    4.26
   8   5  -2   16.44    5.79
   8  -5  -2   15.37    4.73
   8  -5   2    6.16    4.65
  -8   5   2    4.03    2.18
  -8   5   3    7.85    4.15
   8   5  -3   14.79    9.41
   8   5   3    2.74    4.89
   8  -5   3   12.14    5.99
   8   5   3    7.69    3.04
   8   5  -3    2.89    3.03
   8  -5  -3   11.22    6.73
   8  -5   3    7.47    6.62
  -8   5   3    6.99    2.54
  -8   5   4   94.91   20.33
   8   5  -4   78.47   23.10
   8   5   4  108.39   33.42
   8  -5   4   93.54   28.63
   8   5   4   97.93   19.06
   8   5  -4   83.93   16.43
   8  -5  -4   99.12   43.80
   8  -5   4   92.26   23.23
  -8   5   5  428.96   19.17
   8   5  -5  433.35   19.93
   8   5   5  472.28   71.52
   8  -5   5  426.85   27.95
   8   5   5  385.96   14.05
   8   5  -5  425.74   19.20
  -8  -5  -5  392.50   14.47
   8  -5  -5  422.74   65.70
   8  -5   5  481.13   32.41
  -8   5   6   19.04    4.97
   8   5  -6   31.95    7.99
   8   5   6   22.95   10.52
   8  -5   6   38.37    6.39
   8   5  -6   35.12   12.09
  -8  -5  -6   16.69    4.53
   8  -5  -6   28.10    8.33
   8  -5   6   19.28    5.44
  -8   5  -6   21.02    5.51
   8   5  -7  113.40   27.94
   8   5   7  120.68   28.47
   8  -5   7  126.85   23.72
   8  -5  -7  119.10   32.41
   8   5  -7  120.45   24.33
   8  -5  -7  110.33   17.91
  -8  -5  -7  104.72    2.61
   8  -5   7  136.45   15.51
  -8   5  -7  105.74    7.00
   8   5  -8   33.70    8.78
   8   5   8   54.61   11.68
   8  -5   8   53.23   24.14
   8  -5  -8   42.34   16.48
   8   5  -8   46.34   10.82
   8  -5  -8   31.41    8.19
   8  -5   8   31.24   10.99
  -8   5  -8   28.32    7.65
   8   5  -9   90.10   19.76
   8   5   9   78.52   16.93
   8  -5   9   75.47   24.04
   8  -5  -9   72.42   20.59
   8   5  -9   85.33   26.61
   8  -5  -9   87.39   11.07
   8  -5   9   85.15   16.86
   8  -5  -9  112.80   22.91
  -8   5  -9   83.71   13.55
   8   5 -10   33.38   10.26
   8   5  10   22.77    6.73
   8  -5  10   45.53   10.32
   8  -5 -10   25.81    7.96
   8   5 -10   42.93    7.82
   8  -5 -10   35.14   14.08
   8  -5  10   33.99   11.27
   8  -5 -10   27.64    6.43
  -8   5 -10   27.46    8.90
  -8  -5 -10   11.12    6.49
   8   5 -11  165.82   19.99
   8   5  11  187.01   18.32
   8  -5  11  170.81   16.85
   8  -5 -11  115.77   25.24
   8   5 -11  138.14   31.65
   8  -5 -11  154.84   29.97
   8  -5 -11  191.00   35.53
  -8   5 -11  157.70    8.45
  -8  -5 -11  126.60   27.63
   8   5  12   42.34   12.30
   8  -5  12   43.04   13.50
   8  -5 -12   34.71   12.58
   8   5 -12   53.50   12.05
   8  -5 -12   30.60   12.65
   8  -5 -12   58.46   12.69
  -8   5 -12   35.43   10.47
  -8  -5 -12   47.03   15.32
   8   5  13   31.19   10.34
   8  -5  13   35.31    8.84
   8   5 -13   40.78   11.40
   8  -5 -13   26.74    6.42
   8  -5 -13   39.24   12.71
  -8   5 -13   28.71   10.47
  -8  -5 -13   39.31    8.32
   8   5  14    1.53    2.01
   8  -5  14    5.04    3.66
   8   5 -14   15.33    6.46
   8  -5 -14   -0.69    6.01
   8  -5 -14    1.06    2.65
  -8   5 -14    3.27    2.07
  -8  -5 -14    6.95    5.15
   8   5  15   36.34   13.24
   8  -5  15   36.89   13.66
   8   5 -15   40.94   13.40
   8  -5 -15   31.17    9.63
   8  -5 -15   42.28   18.20
  -8   5 -15   26.98    9.51
  -8  -5 -15   31.54   17.51
   8   5  16   11.91    5.25
   8  -5  16    5.83    2.77
   8   5 -16    5.11    3.68
   8  -5 -16   12.82    6.50
   8  -5 -16    6.26    3.48
  -8  -5 -16   14.75    7.35
   8   5  17   36.25   19.04
   8  -5  17   36.73   19.24
   8   5 -17   45.39   24.33
   8  -5 -17   45.33   10.75
   8  -5 -17   54.76   16.72
  -8  -5 -17   49.77   18.24
  -8   6   0  172.95   19.68
   8   6   0  156.76   30.78
   8   6   0  156.22   17.45
   8  -6   0  163.33   17.19
  -8   6  -1   10.37    3.98
  -8   6   1    4.36    4.64
   8   6  -1   18.00    6.84
   8   6   1    1.35    5.15
   8   6   1   13.51    3.96
   8   6  -1   -3.22    4.57
   8  -6  -1    2.71    4.50
   8  -6   1    4.84    4.89
  -8   6  -2  171.69   36.61
  -8   6   2  136.87   20.35
   8   6   2  136.76   28.11
   8   6   2  152.17   17.57
   8   6  -2  130.15   20.05
   8  -6  -2  160.44   27.02
   8  -6   2  131.51   21.22
  -8   6   2  117.82    3.88
  -8   6  -3  319.74   19.84
  -8   6   3  375.51   25.51
   8   6  -3  347.20   17.22
   8   6   3  376.65   22.30
   8   6  -3  336.76   15.39
   8  -6  -3  362.22   34.26
   8  -6   3  339.25   20.34
  -8   6   3  336.92   12.51
  -8   6  -4  103.25   26.24
  -8   6   4   98.78   16.56
   8   6  -4   94.81   26.29
   8   6   4  100.54   25.37
   8   6   4   85.42    8.97
   8   6  -4  105.58   27.82
   8  -6  -4  104.33   20.80
   8  -6   4   81.81   25.04
  -8   6   5   61.98   18.23
   8   6  -5   69.86   11.96
   8   6   5   59.78   15.37
   8   6   5   56.19    7.39
   8   6  -5   53.38   13.21
   8  -6  -5   43.58   14.95
   8  -6   5   57.59   16.57
  -8   6   6   26.61    6.53
   8   6  -6   31.11    8.88
   8   6   6   28.58   12.20
   8  -6   6   40.70    8.04
   8   6  -6   22.37    8.64
  -8  -6  -6   13.05    4.72
   8  -6  -6   40.83    9.87
   8  -6   6   34.46   12.55
  -8   6   7   56.37   17.78
   8   6  -7   49.87   15.81
   8   6   7   69.46   19.30
   8  -6   7   63.80   17.10
   8   6  -7   49.94    8.22
   8  -6  -7   84.37   16.12
   8  -6   7   68.06   13.83
   8  -6  -7   72.86    9.18
  -8   6   8  166.74   26.46
   8   6  -8  187.93   31.30
   8   6   8  209.81   44.36
   8  -6   8  180.71   36.14
   8   6  -8  175.91   33.87
   8  -6  -8  192.75   48.15
   8  -6   8  178.89   14.62
   8  -6  -8  233.12   27.00
  -8  -6  -8  162.95   35.17
  -8   6   9  290.30   16.10
   8   6  -9  286.09   11.67
   8   6   9  251.47   22.78
   8  -6   9  256.83   53.03
   8   6  -9  352.00   35.71
   8  -6  -9  235.32   42.83
   8  -6  -9  303.87   11.78
  -8  -6  -9  284.78   34.87
   8   6 -10    8.00    2.46
   8   6  10   13.07    5.60
   8  -6  10   10.50    5.89
   8  -6 -10   12.78    4.05
   8   6 -10   17.76    7.14
   8  -6 -10   15.49    7.30
  -8   6 -10   11.53    2.85
   8  -6 -10   23.72    5.88
  -8  -6 -10   11.19    9.47
   8   6 -11    6.32    3.36
   8   6  11    4.97    7.50
   8  -6  11    1.11    3.81
   8  -6 -11    3.29    1.99
   8   6 -11   12.34    6.39
   8  -6 -11    9.05    4.81
  -8   6 -11    6.90    2.24
   8  -6 -11    5.24    4.03
  -8  -6 -11   -0.19    6.19
   8   6  12   40.84   13.27
   8  -6  12   49.47   13.88
   8  -6 -12   38.93   12.52
   8   6 -12   51.28   11.36
   8  -6 -12   53.25   19.67
  -8   6 -12   50.21   13.22
   8  -6 -12   53.50   15.91
  -8  -6 -12   51.94   12.54
   8   6  13    7.74    4.30
   8  -6  13   19.96    6.55
   8   6 -13    6.14    4.16
   8  -6 -13   11.68    5.03
  -8   6 -13    6.88    2.51
   8  -6 -13    7.11    6.39
  -8  -6 -13    7.33    5.43
   8   6  14   42.49   19.73
   8  -6  14   38.26   12.19
   8   6 -14   42.62   17.42
   8  -6 -14   63.24   17.28
   8  -6 -14   46.91   11.26
  -8  -6 -14   31.83   12.82
   8   6  15   34.07    9.94
   8  -6  15   23.74   13.27
   8   6 -15   26.87   10.62
   8  -6 -15   37.36    8.08
   8  -6 -15   29.36   12.27
  -8  -6 -15   29.20    7.64
   8   6  16    5.23    3.73
   8  -6  16    6.16    3.95
   8   6 -16   -3.41    4.98
   8  -6 -16    3.79    4.28
   8  -6 -16    2.17    3.56
  -8  -6 -16    3.99    6.39
   8   6  17   18.13    5.26
   8   6 -17   22.76    7.33
   8  -6 -17   27.29   12.28
   8  -6 -17   26.02   10.03
  -8  -6 -17   32.33   13.46
  -8   7   0  214.29   35.57
   8   7   0  228.72   40.16
   8   7   0  202.64   15.07
   8  -7   0  241.15   25.46
  -8   7  -1  325.99   41.45
  -8   7   1  314.84   31.78
   8   7  -1  321.47   36.87
   8   7   1  314.82   18.46
   8   7   1  314.38   14.50
   8   7  -1  306.34   19.93
   8  -7  -1  365.97   41.27
   8  -7   1  335.67   38.93
  -8   7  -2    7.25    8.95
  -8   7   2   11.09    7.30
   8   7   2   -3.03    8.01
   8   7   2   -1.44    4.04
   8   7  -2    4.73    2.50
   8  -7  -2   -5.54    8.47
   8  -7   2   -5.74    8.16
  -8   7  -3  125.93   28.36
  -8   7   3  135.25   13.58
   8   7   3  169.28   29.12
   8   7   3  147.14   15.97
   8   7  -3  141.68   28.01
   8  -7  -3  160.64   32.70
   8  -7   3  169.24   12.92
  -8   7   3  111.33    6.92
  -8   7  -4   76.01   11.74
  -8   7   4   74.28   15.09
   8   7  -4   79.45   17.20
   8   7   4   82.72   18.79
   8   7   4   63.21   10.21
   8   7  -4   70.76   18.70
   8  -7  -4   62.80   17.74
   8  -7   4   87.53   15.72
  -8   7  -5  308.20   52.01
  -8   7   5  306.10   18.24
   8   7  -5  295.05   22.07
   8   7   5  327.94   64.95
   8   7  -5  330.14   37.33
   8  -7  -5  308.30   54.12
   8  -7   5  349.27   38.53
  -8   7  -6   18.36    8.63
  -8   7   6   25.12    5.11
   8   7  -6   23.97    7.57
   8   7   6    8.52    4.31
   8   7  -6   27.19    6.58
   8  -7  -6   14.12    7.45
   8  -7   6   27.00    8.45
   8  -7  -6   11.24    4.55
  -8   7   7  222.31   23.39
   8   7  -7  185.37   29.03
   8   7   7  212.33   51.08
   8   7  -7  215.12   18.52
   8  -7  -7  174.44   39.25
   8  -7   7  219.65   24.91
   8  -7  -7  230.79   10.86
  -8   7   8   33.33   10.60
   8   7  -8   40.15    9.63
   8   7   8   27.71   10.46
   8  -7   8   29.21    9.42
   8   7  -8   33.56    9.78
   8  -7  -8   24.33    9.33
   8  -7  -8   38.70    8.42
  -8  -7  -8   27.61    6.22
  -8   7   9   74.90   19.12
   8   7  -9   63.45   20.44
   8   7   9   85.40   22.62
   8  -7   9   70.68   23.01
   8   7  -9   64.65   21.22
   8  -7  -9   86.45   21.31
   8  -7  -9   67.38   18.84
  -8  -7  -9   65.07   16.01
  -8   7  10   32.17   13.81
   8   7 -10   22.28    7.58
   8   7  10   33.77    6.91
   8  -7  10   27.97   11.11
   8   7 -10   35.80   11.51
   8  -7 -10   25.15    9.27
   8  -7 -10   22.84    7.06
  -8  -7 -10   26.57    6.99
  -8   7  11  233.78   10.61
   8   7 -11  241.25   10.77
   8   7  11  230.61   22.24
   8  -7  11  185.89   47.99
   8   7 -11  269.33   36.85
   8  -7 -11  194.65   52.18
   8  -7 -11  220.42   34.78
  -8  -7 -11  215.46   22.93
   8   7  12   19.03    5.40
   8  -7  12   31.47   10.64
   8  -7 -12   24.04    6.36
   8   7 -12   28.28    8.92
   8  -7 -12   30.23   10.53
   8  -7 -12   21.19    7.17
  -8  -7 -12   16.81    6.10
   8   7  13   45.01   13.93
   8  -7  13   56.31   10.33
   8   7 -13   60.29   15.31
   8  -7 -13   42.02   10.03
   8  -7 -13   47.48   10.69
  -8  -7 -13   64.79   16.34
   8   7  14   16.85    5.25
   8  -7  14   14.14    5.50
   8   7 -14    7.93    4.21
   8  -7 -14   21.27    7.51
   8  -7 -14    5.15    2.41
  -8  -7 -14    8.58    4.39
   8   7  15   34.73    9.79
   8  -7  15   24.89    6.30
   8   7 -15   34.53   13.91
   8  -7 -15   10.52    7.99
   8  -7 -15   22.62    8.57
  -8  -7 -15   18.60    9.01
   8   7  16    9.94    3.94
   8  -7  16   14.51    6.78
   8   7 -16    5.04    2.98
   8  -7 -16    8.35    7.91
   8  -7 -16    7.03    5.41
  -8  -7 -16    7.40    5.61
  -8   8   0   31.67   10.10
   8   8   0   16.13    9.88
   8   8   0   31.77    7.66
   8  -8   0   26.70    6.43
  -8   8  -1  287.93   40.16
  -8   8   1  261.72   35.58
   8   8  -1  246.06   52.69
   8   8   1  237.71   44.07
   8   8   1  278.29   12.38
   8   8  -1  249.93   27.64
   8  -8  -1  252.12   42.58
   8  -8   1  278.32   26.46
  -8   8  -2  187.63   35.82
  -8   8   2  211.64   30.05
   8   8  -2  217.82   50.04
   8   8   2  192.30   47.89
   8   8   2  182.07    9.25
   8   8  -2  200.65   22.57
   8  -8  -2  179.30   37.24
   8  -8   2  204.20   33.37
  -8   8  -3  184.97   32.54
  -8   8   3  193.76   23.61
   8   8   3  226.73   26.72
   8   8   3  200.00   17.06
   8   8  -3  195.84   17.68
   8  -8  -3  200.57   39.10
   8  -8   3  224.44   23.80
  -8   8  -4   40.86   10.26
  -8   8   4   51.68    9.15
   8   8  -4   28.12   10.49
   8   8   4   25.15    5.57
   8   8   4   27.64    8.35
   8   8  -4   35.83    7.96
   8  -8  -4   28.70    8.50
   8  -8   4   29.87    7.16
  -8   8  -5   43.18   12.05
  -8   8   5   44.92   11.18
   8   8  -5   42.36    9.97
   8   8   5   47.12   12.24
   8   8  -5   36.10    8.15
   8  -8  -5   26.50   10.88
   8  -8   5   39.35   12.32
   8  -8  -5   38.71    9.40
  -8   8  -6   22.88    7.69
  -8   8   6   28.04    6.86
   8   8  -6   18.24    7.16
   8   8   6   19.58    7.51
   8   8  -6   30.65    7.88
   8  -8  -6   24.71   11.44
   8  -8   6   34.29    8.54
   8  -8  -6   23.64    5.56
  -8   8  -7   18.39    4.64
  -8   8   7   20.53    7.28
   8   8  -7   14.78    5.65
   8   8  -7   15.85    5.51
   8  -8  -7   10.30    8.17
   8  -8  -7   19.33    3.78
  -8   8  -8   38.38   15.01
  -8   8   8   42.02    8.88
   8   8  -8   35.88   14.64
   8   8   8   53.89   15.09
   8   8  -8   39.33    9.76
   8  -8  -8   27.19   12.15
   8  -8  -8   35.74    8.90
  -8  -8  -8   40.48   11.61
  -8   8   9  110.50   25.81
   8   8  -9   91.13   20.83
   8   8   9  117.08   28.01
   8  -8   9  110.85   26.63
   8   8  -9   86.92   19.09
   8  -8  -9  108.58   34.96
   8  -8  -9  100.88   14.64
  -8  -8  -9   90.25   25.57
  -8   8  10   19.29    8.20
   8   8 -10   20.43    5.17
   8   8  10   18.68    7.98
   8  -8  10   29.71    8.25
   8   8 -10   33.88   10.73
   8  -8 -10   12.35    8.49
   8  -8 -10   30.20    7.07
  -8  -8 -10   23.54    8.83
  -8   8  11   23.31    6.26
   8   8 -11   28.96    8.08
   8   8  11   42.95   13.17
   8  -8  11   19.47    8.92
   8   8 -11   17.87    7.19
   8  -8 -11   30.48   10.39
   8  -8 -11   31.59    7.69
  -8  -8 -11   27.14    8.01
  -8   8  12   86.65   14.44
   8   8  12   93.17   37.37
   8  -8  12   83.83   27.65
   8   8 -12   79.22   18.01
   8  -8 -12   69.20   18.33
   8  -8 -12   77.93   24.59
  -8  -8 -12   83.02   20.71
   8   8  13   59.66   23.55
   8  -8  13   57.99   19.64
   8   8 -13   72.38   24.19
   8  -8 -13   79.78   21.47
   8  -8 -13   67.61   14.38
  -8  -8 -13   87.91   22.73
   8   8  14   19.71    7.37
   8  -8  14   10.02    4.68
   8   8 -14   13.18    5.11
   8  -8 -14   14.27    6.17
   8  -8 -14   18.77   10.50
  -8  -8 -14   14.62    4.71
   8  -8  15   27.53   12.25
   8   8 -15   41.86    9.82
   8  -8 -15   43.66   19.66
   8  -8 -15   25.88    9.25
  -8  -8 -15   32.86   13.62
   8   8  16    7.00    6.16
   8  -8  16   -1.69    5.03
   8   8 -16    5.29    5.34
   8  -8 -16   14.35    7.51
   8  -8 -16    5.24    2.63
  -8  -8 -16   10.98    7.18
  -8   9   0   60.87   14.52
   8   9   0   66.26   22.03
   8   9   0   72.09   13.02
   8  -9   0   67.07   16.23
  -8   9  -1   35.23    8.11
  -8   9   1   18.73    8.07
   8   9  -1   36.34   11.59
   8   9   1   34.51    9.44
   8   9   1   35.19    5.51
   8   9  -1   29.44    9.94
   8  -9  -1    7.70    6.61
   8  -9   1   32.97    7.06
  -8   9  -2   19.77    7.92
  -8   9   2   10.84    5.39
   8   9  -2    8.80    4.96
   8   9   2   20.60    6.59
   8   9   2   16.69    4.68
   8   9  -2   10.43    3.15
   8  -9  -2   17.24   13.81
   8  -9   2   21.23    8.49
  -8   9  -3   11.94    8.44
  -8   9   3    5.46    3.96
   8   9   3   15.56    7.50
   8   9   3    4.95    3.11
   8   9  -3    4.07    6.02
   8  -9  -3   19.97    8.17
   8  -9   3    3.40    4.34
  -8   9  -4   37.10    8.84
  -8   9   4   43.69    7.48
   8   9  -4   49.56   10.50
   8   9   4   44.24   11.01
   8   9  -4   46.90   17.04
   8  -9  -4   51.15   18.74
   8  -9   4   68.12   15.59
   8  -9  -4   39.15    5.95
  -8   9  -5   71.00   18.03
  -8   9   5   81.27   12.76
   8   9  -5   75.06   17.69
   8   9   5   71.96   15.11
   8   9  -5   65.82   19.75
   8  -9  -5   81.28   20.76
   8  -9   5   76.39   20.17
   8  -9  -5   75.22    8.74
  -8   9  -6  105.64   27.53
  -8   9   6  103.44   23.49
   8   9  -6  113.49   31.10
   8   9   6   98.25   23.98
   8   9  -6   92.64   30.54
   8  -9  -6   99.35   16.64
   8  -9  -6  101.21   14.96
  -8   9  -7  195.73   42.33
  -8   9   7  204.40   37.23
   8   9  -7  203.63   19.80
   8   9   7  184.52   46.65
   8   9  -7  202.92   24.79
   8  -9  -7  246.41   30.65
   8  -9  -7  226.33    8.72
  -8   9  -8   21.21    6.57
  -8   9   8   14.74    5.22
   8   9  -8   28.61    8.64
   8   9   8   25.85    8.47
   8   9  -8   23.20    9.13
   8  -9  -8   15.64    2.61
  -8  -9  -8   19.62    6.76
  -8   9  -9    9.93    3.51
  -8   9   9    2.88    4.43
   8   9  -9    5.24    6.18
   8   9   9   11.68    7.25
   8   9  -9   13.12    8.25
   8  -9  -9   15.33    6.97
   8  -9  -9   20.90    6.05
  -8  -9  -9   15.18    4.26
  -8   9  10   73.43   21.40
   8   9 -10   52.80   16.25
   8   9  10   70.41   22.11
   8  -9  10   70.88   14.38
   8   9 -10   59.74   22.74
   8  -9 -10   47.40   17.57
   8  -9 -10   70.58   20.28
  -8  -9 -10   70.08   17.05
  -8   9  11   78.80   21.54
   8   9  11   62.44   15.58
   8  -9  11   54.87   18.77
   8   9 -11   77.43   22.55
   8  -9 -11   67.94   22.35
   8  -9 -11   73.57   20.04
  -8  -9 -11   66.67   17.82
  -8   9  12   13.83    4.86
   8   9  12    6.74    5.18
   8  -9  12    0.93    4.41
   8   9 -12    8.98    6.32
   8  -9 -12    6.64    3.48
   8  -9 -12    7.09    4.13
  -8  -9 -12   11.84    6.85
   8   9  13    7.01    2.99
   8  -9  13   11.66    7.18
   8   9 -13    6.63    3.62
   8  -9 -13    4.72    4.17
   8  -9 -13    7.72    6.75
  -8  -9 -13    0.36    8.79
   8   9  14   14.39    5.03
   8  -9  14   17.16    6.81
   8   9 -14    2.59    6.57
   8  -9 -14   15.30    6.38
   8  -9 -14    8.19    5.09
  -8  -9 -14   14.12    7.52
   8   9  15   12.87    7.11
   8  -9  15    8.70    3.90
   8   9 -15   11.16    4.58
   8  -9 -15    9.74    6.27
   8  -9 -15    8.81    4.49
  -8  -9 -15   11.88    7.20
  -8  10   0   12.94    5.55
   8  10   0   12.88    6.98
   8  10   0    6.98    6.60
   8 -10   0    6.58    4.83
  -8  10  -1   14.98   12.81
  -8  10   1   19.19    7.91
   8  10  -1   15.82    6.42
   8  10   1   15.87    9.56
   8  10   1   19.90    6.58
   8  10  -1   23.70    8.87
   8 -10  -1   21.52    7.60
   8 -10   1   17.37    6.20
  -8  10  -2   54.75   11.95
  -8  10   2   29.97    9.84
   8  10  -2   39.76    9.18
   8  10   2   45.54   19.20
   8  10   2   31.38    8.76
   8  10  -2   30.21    7.17
   8 -10  -2   36.56   13.73
   8 -10   2   48.21   16.75
  -8  10  -3   83.54   21.94
  -8  10   3   81.72   15.25
   8  10   3   91.99   20.99
   8  10  -3   93.35   12.90
   8 -10  -3   90.15   20.35
   8 -10   3   89.04   19.34
  -8  10  -4    3.55    3.70
  -8  10   4    7.20    3.98
   8  10   4    4.75    6.80
   8  10  -4    4.03    3.47
   8 -10  -4    3.87   11.73
   8 -10   4    3.19    5.97
   8 -10  -4    4.84    1.83
  -8  10  -5   44.50   11.83
  -8  10   5   37.01    7.39
   8  10  -5   44.33   12.25
   8  10   5   25.29    7.08
   8  10  -5   32.77    7.25
   8 -10  -5   31.49    7.53
   8 -10   5   49.84   12.44
   8 -10  -5   29.92    6.62
  -8  10  -6  100.55   26.91
  -8  10   6   87.28   24.95
   8  10  -6   99.62   23.41
   8  10   6   95.32   30.06
   8  10  -6   85.59   15.37
   8 -10  -6   76.20   24.56
   8 -10  -6   76.41   17.50
  -8  10  -7   23.37   10.54
  -8  10   7   16.58    6.42
   8  10  -7   14.36    4.52
   8  10   7    9.60    5.65
   8  10  -7    9.97    6.30
   8 -10  -7    9.10    5.31
   8 -10  -7   15.17    3.52
  -8  10  -8   17.32   10.13
  -8  10   8   23.14    5.38
   8  10  -8   21.13    5.76
   8  10   8   14.43    8.74
   8  10  -8    7.14    3.95
   8 -10  -8    7.69    6.16
   8 -10  -8   17.75    4.60
  -8 -10  -8   26.78    8.02
  -8  10  -9   57.14   14.00
  -8  10   9   52.85   11.00
   8  10  -9   38.19   13.26
   8  10   9   25.68   13.83
   8  10  -9   41.29    7.53
   8 -10  -9   37.65   16.56
   8 -10  -9   33.04   10.53
  -8 -10  -9   34.81    9.41
  -8  10  10   68.86   16.89
   8  10 -10   37.45   14.02
   8  10  10   48.38   14.10
   8  10 -10   75.73   16.27
   8 -10 -10   54.13   15.57
   8 -10 -10   35.46   11.70
  -8 -10 -10   50.01   14.97
  -8  10  11    4.72    5.05
   8  10 -11    2.50    2.59
   8  10  11   10.95    5.68
   8 -10  11    3.61    3.21
   8  10 -11   10.13    3.85
   8 -10 -11    5.02    5.37
   8 -10 -11    4.32    2.28
  -8 -10 -11    2.55    3.96
  -8  10  12    3.12    5.07
   8  10  12    6.34    4.68
   8 -10  12   -2.77    5.31
   8  10 -12    7.37    7.62
   8 -10 -12   14.41    7.63
   8 -10 -12   15.41    5.00
  -8 -10 -12   18.44    9.78
   8  10  13   24.53    9.50
   8 -10  13   32.52   12.20
   8 -10 -13   31.20   13.46
   8 -10 -13   17.98    5.61
  -8 -10 -13   18.67    8.88
   8  10  14   14.73    8.11
   8 -10  14    6.28    4.75
   8  10 -14   10.74    8.11
   8 -10 -14   10.30    8.23
   8 -10 -14   12.56    4.82
  -8 -10 -14    0.64    5.52
  -8  11   0  160.23   23.69
   8  11   0  131.56   31.89
   8  11   0  169.78   14.49
   8 -11   0  117.34   24.14
  -8  11  -1   88.04   24.07
  -8  11   1  106.28   25.17
   8  11  -1   89.12   30.69
   8  11   1   96.35   23.99
   8  11   1   85.95   24.45
   8  11  -1   86.79   21.47
   8 -11  -1  114.31   41.94
   8 -11   1  103.07   28.78
  -8  11  -2   84.96   11.91
  -8  11   2  101.57   18.86
   8  11  -2   91.71   17.31
   8  11   2  110.82   24.72
   8  11   2  118.65   12.52
   8  11  -2   96.54   21.80
   8 -11  -2  100.71   20.24
   8 -11   2  132.33   43.83
  -8  11  -3    9.21    4.90
  -8  11   3   11.86    4.94
   8  11  -3   11.23    5.77
   8  11   3    7.01    5.59
   8  11  -3    6.49    4.32
   8 -11  -3   10.88    6.49
   8 -11   3   12.68    8.76
  -8  11  -4   85.74   20.90
  -8  11   4   60.41    9.76
   8  11   4   66.72   17.27
   8  11  -4   63.08   16.60
   8 -11  -4   88.11   26.37
   8 -11   4   56.77   19.12
  -8  11  -5   23.73    9.96
  -8  11   5   20.90    6.37
   8  11  -5   26.96   10.20
   8  11   5   31.76    8.54
   8  11  -5   25.42    7.51
   8 -11  -5   38.39   11.75
   8 -11   5   30.20   11.86
  -8  11  -6   37.73   11.03
  -8  11   6   32.98    9.79
   8  11  -6   21.45    5.96
   8  11   6   23.86    6.18
   8  11  -6   14.05    7.09
   8 -11  -6   18.80   10.51
  -8  11  -7   12.66    9.70
  -8  11   7   27.24    8.37
   8  11  -7    9.13    5.58
   8  11   7   14.07    5.53
   8  11  -7   26.55    9.36
   8 -11  -7   16.03    6.10
   8 -11  -7   14.81    4.24
  -8  11  -8   58.51   14.99
  -8  11   8   67.45   16.82
   8  11  -8   54.09   16.15
   8  11   8   47.76   17.55
   8  11  -8   55.75   10.60
   8 -11  -8   48.41   12.67
   8 -11  -8   43.34   12.49
  -8 -11  -8   54.33   12.19
  -8  11  -9   11.59    7.22
  -8  11   9   10.41    5.76
   8  11  -9    7.83    3.35
   8  11   9    7.30    5.38
   8  11  -9    3.71    3.76
   8 -11  -9    9.91    6.01
   8 -11  -9    4.60    2.49
  -8 -11  -9   11.65    7.88
  -8  11  10   49.34   15.19
   8  11 -10   34.24    7.74
   8  11  10   35.45   13.42
   8  11 -10   34.68    9.69
   8 -11 -10   32.03    9.44
   8 -11 -10   31.16    9.35
  -8 -11 -10   35.46   14.14
  -8  11 -11   32.78   11.81
  -8  11  11   19.68    6.89
   8  11 -11   16.78    8.00
   8  11  11   37.70   13.58
   8  11 -11   20.78    5.69
   8 -11 -11   40.53   10.02
   8 -11 -11   23.84    8.36
  -8 -11 -11   23.74    6.30
  -8  11  12   34.98   17.24
   8  11  12   32.69   12.80
   8 -11  12   38.69   16.56
   8  11 -12   60.57   12.08
   8 -11 -12   42.01   17.45
   8 -11 -12   26.77   10.35
  -8 -11 -12   43.18   16.33
   8  11  13   19.63    7.54
   8 -11  13    8.54    5.09
   8  11 -13   14.83    4.46
   8 -11 -13   20.02    9.49
   8 -11 -13    8.10    4.54
  -8 -11 -13   14.65    7.71
  -8  12   0  198.69   46.94
   8  12   0  190.85   50.03
   8  12   0  162.73   24.52
   8 -12   0  190.94   56.49
  -8  12  -1   26.32    6.54
  -8  12   1   13.38    5.74
   8  12  -1   10.29    6.35
   8  12   1   27.30    8.25
   8  12   1   20.87    7.08
   8  12  -1   10.24    4.24
   8 -12  -1   24.07    7.30
   8 -12   1    7.01    5.42
  -8  12  -2   18.73    9.33
  -8  12   2   18.10    8.68
   8  12  -2   17.44    4.81
   8  12   2   13.38    5.47
   8  12  -2   16.17    5.39
   8 -12  -2    8.10   11.50
   8 -12   2   16.65    6.73
  -8  12  -3   89.91   21.32
  -8  12   3   67.55   17.60
   8  12  -3   83.50   20.35
   8  12   3   82.26   38.74
   8  12  -3   98.91   21.09
   8 -12  -3   83.68   21.18
   8 -12   3   93.05   26.87
  -8  12  -4   29.03    9.58
  -8  12   4   23.75   11.39
   8  12   4   15.68    8.59
   8  12  -4   32.89    6.96
   8 -12  -4   48.03   12.64
   8 -12   4   32.34   14.07
  -8  12  -5   30.22    9.74
  -8  12   5   30.65    8.41
   8  12  -5   19.02    6.96
   8  12   5   12.49    5.91
   8  12  -5   17.19    7.27
   8 -12  -5   20.92   12.15
  -8  12  -6   13.03    5.94
  -8  12   6   11.44    4.97
   8  12  -6   12.30    4.22
   8  12   6    7.96    4.45
   8  12  -6    6.27    4.65
   8 -12  -6   12.77    7.93
  -8  12  -7   30.73   13.43
  -8  12   7   26.32    9.28
   8  12  -7   32.58   12.74
   8  12   7   34.68   16.40
   8  12  -7   35.43    7.78
   8 -12  -7   32.71   12.31
  -8  12  -8   22.27    5.09
  -8  12   8   21.86    9.17
   8  12  -8   14.65    6.93
   8  12   8   33.25   10.95
   8  12  -8   23.83    6.70
   8 -12  -8   17.35    5.75
  -8 -12  -8   12.12    8.21
  -8  12  -9   39.51   14.68
  -8  12   9   24.32   15.77
   8  12  -9   32.64   10.94
   8  12   9   46.82   10.39
   8  12  -9   32.75    8.56
   8 -12  -9   33.97    8.41
  -8 -12  -9   30.23   11.58
  -8  12 -10   -0.69    5.81
  -8  12  10    6.93    4.91
   8  12 -10    5.12    3.15
   8  12  10   15.35   10.07
   8  12 -10   12.73    6.92
   8 -12 -10    7.44    8.94
  -8 -12 -10   13.22    5.15
  -8  12  11   13.65    5.75
   8  12 -11    4.16    3.85
   8  12  11    1.78    6.31
   8  12 -11    3.73    2.93
   8 -12 -11    7.34    7.35
  -8 -12 -11   11.65    9.34
  -8  12 -12   34.43   10.85
  -8  12  12   36.93    9.35
   8  12  12   44.25   13.35
   8  12 -12   52.19   17.90
   8 -12 -12   15.56    7.30
  -8 -12 -12   40.50   16.59
  -8  13   0   23.07    7.30
   8  13   0   13.30    7.74
   8  13   0   11.62    8.09
   8 -13   0   15.83    8.44
  -8  13  -1   20.64    8.22
  -8  13   1   32.91   11.02
   8  13   1    6.76    8.55
   8  13  -1   13.78    5.64
   8 -13  -1   19.95    5.92
   8 -13   1   29.69    8.67
  -8  13  -2   46.32   11.73
  -8  13   2   38.69   11.26
   8  13  -2   53.68   13.20
   8  13   2   47.72   12.55
   8  13  -2   38.32   17.62
   8 -13  -2   19.56    9.86
   8 -13   2   48.28   16.75
  -8  13  -3   22.96    7.49
  -8  13   3   27.61    7.19
   8  13  -3    9.46    8.30
   8  13   3   18.88    6.35
   8  13  -3   16.69    7.47
   8 -13  -3   13.71    5.70
   8 -13   3   19.59    7.54
  -8  13  -4  157.23   44.96
  -8  13   4  141.28   24.82
   8  13   4  149.60   48.40
   8  13  -4  159.04   25.82
   8 -13  -4  171.98   34.68
   8 -13   4  130.04   42.00
  -8  13  -5   11.04    5.01
  -8  13   5    9.07    4.94
   8  13  -5    3.29    3.13
   8  13   5   18.46    7.63
   8  13  -5    2.89    4.10
   8 -13  -5    3.12    5.71
  -8  13  -6   57.81   13.63
  -8  13   6   66.44   12.93
   8  13  -6   65.78   18.13
   8  13   6   70.17   16.24
   8  13  -6   68.69   17.86
   8 -13  -6   76.43   22.06
  -8  13  -7   18.35    9.91
  -8  13   7   10.67    3.33
   8  13  -7    6.21    7.13
   8  13   7   10.35    7.26
   8  13  -7    6.51    3.56
   8 -13  -7   12.51    5.36
  -8  13  -8   79.12   21.79
  -8  13   8   51.86   18.29
   8  13  -8   67.01   19.55
   8  13   8   60.13   25.81
   8  13  -8   60.02   15.19
   8 -13  -8   92.85   28.71
  -8 -13  -8   76.86   34.29
  -8  13  -9   32.83   12.88
  -8  13   9   18.61    8.32
   8  13  -9   35.63    9.36
   8  13   9   24.98    7.21
   8  13  -9   25.47    9.32
   8 -13  -9   15.22    6.27
  -8  13 -10   42.44   23.09
  -8  13  10   49.12   12.26
   8  13 -10   26.16    6.41
   8  13  10   25.76    7.74
   8  13 -10   47.57   10.91
   8 -13 -10   48.96   22.59
  -8 -13 -10   37.45   13.79
  -8  13  11   14.63    6.82
   8  13 -11    6.11    4.27
   8  13  11   17.18    7.15
   8  13 -11   14.61    6.77
   8 -13 -11   11.99    5.54
  -8 -13 -11   14.79    7.52
  -8  14   0   31.79   10.31
   8  14   0   35.62    7.83
   8 -14   0   27.82    7.86
  -8  14  -1   12.16    6.99
  -8  14   1   22.96    6.68
   8  14  -1   22.92    9.39
   8  14   1   26.59    6.59
   8  14  -1   21.67    6.46
   8 -14  -1   14.88   10.39
   8 -14   1    7.26    9.02
  -8  14  -2   21.60   10.07
  -8  14   2   21.34    9.44
   8  14  -2   19.20    8.02
   8  14   2   11.18    6.19
   8  14  -2   35.06   10.65
   8 -14  -2   21.43    8.42
   8 -14   2   35.50   10.30
  -8  14  -3   40.61    9.30
  -8  14   3   25.65    6.89
   8  14  -3   29.58   12.64
   8  14   3   54.80   16.26
   8  14  -3   30.94    5.39
   8 -14  -3   14.64    9.74
   8 -14   3   33.66    7.87
  -8  14  -4    8.15    4.54
  -8  14   4    6.15    4.57
   8  14  -4   13.48   10.49
   8  14   4    3.85    5.14
   8  14  -4    4.16    3.02
   8 -14  -4   15.27    4.79
   8 -14   4   13.63    5.87
  -8  14  -5    8.20    4.12
  -8  14   5    3.70    6.72
   8  14   5   18.44   10.44
   8  14  -5   11.14    5.49
   8 -14  -5   20.36    7.19
  -8  14  -6   46.65   14.90
  -8  14   6   60.55   12.80
   8  14  -6   42.50   14.65
   8  14   6   49.00   29.98
   8  14  -6   47.03    9.94
   8 -14  -6   37.98   12.38
  -8  14  -7   18.30    9.12
  -8  14   7   15.18    6.59
   8  14  -7   10.61    4.75
   8  14   7   17.48    9.39
   8  14  -7   20.24    7.40
   8 -14  -7   22.12   10.55
  -8 -14  -7   36.82   10.89
  -8  14  -8   14.80    6.04
  -8  14   8    8.39    5.55
   8  14  -8    9.11    5.19
   8  14   8   11.02    4.18
   8  14  -8    0.33    3.91
   8 -14  -8    2.13    4.51
  -8 -14  -8   14.67    9.49
  -8  14  -9    7.65    3.72
  -8  14   9   10.63    4.06
   8  14  -9    5.01    6.01
   8  14   9    6.26    8.20
   8  14  -9   11.49    7.31
   8 -14  -9   -0.27    5.66
  -8 -14  -9    6.46    6.62
  -8  15   0   17.35    8.50
   8  15   0   20.20    9.52
   8 -15   0   17.24   11.62
  -8  15  -1   40.45    9.68
  -8  15   1   34.76   12.98
   8  15  -1   32.87   11.15
   8  15   1   39.47   11.49
   8 -15  -1   29.64    9.81
   8 -15   1   39.08   18.08
  -8  15  -2   58.76   13.16
  -8  15   2   49.44   11.27
   8  15  -2   44.96   20.43
   8  15   2   47.10   13.17
   8 -15  -2   62.51   20.73
   8 -15   2   44.55   14.36
  -8  15  -3   11.81    6.16
  -8  15   3    6.91    4.81
   8  15  -3    6.10    5.76
   8  15   3    8.20    5.39
   8  15  -3    4.55    2.94
   8 -15  -3   10.97    8.19
   8 -15   3   10.61    6.37
  -8  15  -4   21.57   15.36
  -8  15   4   28.59   11.07
   8  15  -4   44.56   10.04
   8  15   4   24.69   11.17
   8  15  -4   35.52   12.05
   8 -15  -4   24.32    9.66
   8 -15   4   21.09   10.77
  -8  15  -5   25.84    9.30
  -8  15   5   15.08    9.20
   8  15   5   43.49   16.29
   8  15  -5   13.57    6.37
   8 -15  -5   20.80   10.77
   8 -15   5   10.51    8.86
  -8  15  -6    8.35    5.55
  -8  15   6    9.75    7.28
   8  15  -6    7.83    5.70
   8  15   6   14.01    8.76
   8  15  -6   20.28    6.46
   8 -15  -6    5.25    8.62
  -8  15  -7   14.11    4.65
  -8  15   7   11.32    7.28
   8  15  -7   17.93    9.08
   8  15   7   28.79    9.64
   8  15  -7   23.74    6.88
   8 -15  -7   22.22    7.79
  -8 -15  -7    9.78    6.06
  -8  16   0   16.55    6.25
   8  16   0   21.22    8.56
  -8  16  -1   47.36   12.99
  -8  16   1   42.96   10.75
   8  16  -1   35.67   18.01
   8  16   1   49.33   15.28
   8 -16  -1   31.29   14.71
   8 -16   1   47.09   14.03
  -8  16  -2   36.53   13.82
  -8  16   2   20.41    9.29
   8  16  -2   23.14    9.28
   8  16   2   18.85    9.34
   8 -16  -2   22.59    8.66
   8 -16   2   12.15    4.65
  -8  16  -3   23.34   11.19
  -8  16   3   37.56    8.44
   8  16  -3   34.26   13.72
   8  16   3   40.19   11.84
   8 -16  -3   37.22   13.14
   8 -16   3   27.44    8.33
  -8  16  -4   25.16    6.07
  -8  16   4   30.60    7.96
   8  16  -4   20.43    8.03
   8  16   4   28.86   10.36
   8  16  -4   28.61    6.26
   8 -16  -4   11.00    8.91
   8 -16   4   40.66   12.53
   9   0   0    3.90    4.48
   9   0   0    4.61    2.86
   9   0  -1  126.54   26.18
   9   0   1  123.43   26.75
   9   0  -1  130.46   27.21
   9   0   1  138.04   13.22
   9   0   2   58.90   12.63
   9   0  -2   39.80   10.95
   9   0   2   45.96   10.19
   9   0  -3  200.19   32.50
   9   0   3  236.42   46.37
   9   0  -3  217.46   20.87
   9   0   3  212.96   21.77
   9   0  -4   71.81   13.19
   9   0   4   67.78   14.70
   9   0  -4   69.47   15.30
   9   0   4   60.90   13.52
   9   0  -5  190.43   36.23
   9   0   5  228.18   40.36
   9   0  -5  214.40   25.67
   9   0   5  178.35    8.22
  -9   0  -5  185.64   29.13
   9   0  -6  121.67   22.65
   9   0   6  131.54   29.57
   9   0   6  108.27    5.82
   9   0  -6  113.18   32.00
  -9   0  -6  107.00   22.18
   9   0  -7  473.35   16.78
   9   0   7  468.95   28.61
   9   0   7  454.41   10.95
   9   0   7  458.22   11.17
   9   0  -7  483.41   21.04
  -9   0  -7  486.05   16.25
   9   0  -8  142.43   31.23
   9   0   8  152.63   18.54
   9   0  -8  196.09   30.92
  -9   0  -8  150.54   33.02
   9   0  -9  338.83   34.84
   9   0   9  386.53   38.71
   9   0  -9  429.49   47.76
  -9   0  -9  398.89   12.81
   9   0 -10   30.18    7.25
   9   0  10   29.92   10.16
   9   0 -10   46.92   14.43
  -9   0 -10   31.67    5.42
   9   0 -11    3.19    2.42
   9   0  11    1.27    3.55
   9   0 -11   -1.27    7.30
  -9   0 -11    6.38    2.91
   9   0  12    4.54    5.88
   9   0 -12   14.13    5.79
  -9   0 -12    3.53    6.10
   9   0  13    4.95    3.36
   9   0 -13   -1.75    6.79
  -9   0 -13    7.89    3.46
   9   0  14    6.76    4.17
   9   0 -14   16.37   10.70
  -9   0 -14   21.08    7.63
   9   0  15   13.85    5.80
   9   0 -15   12.20    6.26
  -9   0 -15   14.93    8.43
   9   0  16    8.00    4.65
   9   0 -16    8.88    4.75
  -9   0 -16    4.65    4.28
   9   0  17   23.71   12.64
   9   0 -17   16.72    7.81
  -9   0 -17   24.85    8.17
   9   1   0   93.11   20.73
   9  -1   0  115.46   23.19
   9   1   0   88.40   22.22
   9  -1   0   77.64   17.39
   9   1  -1  171.32   33.42
   9   1   1  165.78   30.26
   9  -1  -1  187.62   44.36
   9  -1   1  179.71   32.71
   9   1   1  153.90   19.75
   9   1  -1  177.90   33.03
   9  -1  -1  184.02   33.22
   9  -1   1  142.84   12.89
   9   1   2   44.98   13.41
   9  -1   2   36.37   11.46
   9   1   2   34.47    8.19
   9   1  -2   27.36    6.23
   9  -1  -2   41.64   12.46
   9  -1   2   31.64    9.38
   9   1   3   33.98    8.49
   9  -1  -3   34.83    7.75
   9  -1   3   29.03    7.07
   9   1   3   26.71   10.17
   9   1  -3   36.47    8.41
   9  -1  -3   39.79   10.31
   9  -1   3   32.37    9.70
   9   1  -4  237.32   38.94
   9   1   4  247.54   22.99
   9  -1  -4  268.62   43.31
   9  -1   4  261.34   34.25
   9   1   4  236.22   10.80
   9   1  -4  255.19   22.32
   9  -1  -4  241.25   38.74
   9  -1   4  233.11   12.76
   9   1  -5  161.50   28.80
   9   1   5  197.85   30.94
   9  -1  -5  140.57   38.91
   9  -1   5  154.19   17.31
   9   1   5  161.06    6.43
   9   1  -5  200.16   36.04
   9  -1  -5  175.88   34.56
   9  -1   5  159.40   14.91
  -9   1  -5  155.56   18.47
   9   1  -6    7.77    5.96
   9   1   6   16.86    5.65
   9  -1  -6    4.63    4.46
   9  -1   6   10.50    9.35
   9   1   6    9.26    2.55
   9   1  -6   35.04    7.77
   9  -1  -6   18.37    6.23
   9  -1   6   14.17    3.49
  -9   1  -6   16.00    4.53
  -9  -1  -6   14.12    7.46
   9   1  -7   39.52    9.32
   9   1   7   44.92    9.22
   9  -1  -7   37.50    8.68
   9  -1   7   40.24    9.81
   9  -1   7   18.46    6.40
   9   1  -7   54.57   16.64
   9  -1  -7   47.52   10.98
   9  -1   7   28.76    6.79
  -9   1  -7   31.68   11.10
  -9  -1  -7   31.74    9.64
   9   1  -8  106.25   18.55
   9   1   8  118.75   32.15
   9  -1  -8  106.83   19.96
   9  -1   8  140.07   26.54
   9   1  -8  135.36   37.03
   9  -1  -8  124.95   21.68
   9  -1   8  103.74    6.40
  -9   1  -8  112.75   20.12
  -9  -1  -8  131.70   24.97
   9   1  -9   37.19   11.52
   9   1   9   37.39   10.43
   9  -1  -9   28.72    6.80
   9  -1   9   54.69   14.32
   9   1  -9   38.29   11.26
   9  -1  -9   45.11   12.02
  -9   1  -9   35.04   10.14
  -9  -1  -9   33.76    9.45
   9   1 -10    9.75    5.98
   9   1  10   10.69    5.13
   9  -1 -10    6.65    2.94
   9  -1  10    7.71    4.49
   9   1 -10    8.48    8.01
   9  -1 -10    5.42    4.22
  -9   1 -10    7.58    3.64
  -9  -1 -10    7.87    3.50
   9   1 -11  205.34   11.35
   9  -1 -11  218.56    7.99
   9   1  11  242.79   27.24
   9  -1  11  243.42   29.10
   9   1 -11  214.35   40.33
   9  -1 -11  256.86   27.33
  -9   1 -11  236.03    9.99
  -9  -1 -11  210.89   10.60
   9   1  12   24.87    8.68
   9  -1  12   27.82   11.50
   9   1 -12   17.02    8.14
   9  -1 -12   35.16   13.41
  -9   1 -12   27.69    9.16
  -9  -1 -12   35.65    8.99
   9   1  13   53.33   17.90
   9  -1  13   93.59   19.46
   9   1 -13   94.00   26.99
   9  -1 -13   68.07   18.91
  -9   1 -13   62.02   18.41
  -9  -1 -13   65.46   19.75
   9   1  14    5.03    2.52
   9  -1  14    7.95    6.91
   9   1 -14    8.64    6.44
   9  -1 -14    8.34    7.73
  -9   1 -14    9.15    5.06
  -9  -1 -14    7.73    3.84
   9   1  15    8.84    5.51
   9  -1  15    7.32    5.55
   9   1 -15   18.44    6.07
   9  -1 -15    5.67    4.21
  -9   1 -15    6.77    3.06
  -9  -1 -15    8.25    5.67
   9   1  16    8.16    4.38
   9  -1  16   14.58    5.31
   9   1 -16    5.56    3.98
   9  -1 -16   12.22    5.89
  -9   1 -16   16.49    4.87
  -9  -1 -16   14.12    6.19
   9   1  17   28.82    8.93
   9  -1  17   24.88   11.31
   9   1 -17   28.17    9.03
   9  -1 -17   40.63   10.59
  -9   1 -17   23.75    9.94
  -9  -1 -17   31.90   13.62
   9   2   0   73.39   21.94
   9  -2   0   55.21   11.50
   9   2   0   57.76   14.58
   9  -2   0   63.62   18.03
   9   2  -1  413.01   51.64
   9   2   1  394.96   21.49
   9  -2  -1  352.57   17.18
   9  -2   1  356.23   19.17
   9   2   1  367.63   15.47
   9   2  -1  370.71   28.64
   9  -2  -1  358.46   16.83
   9  -2   1  364.49   16.19
   9   2   2  136.29   38.94
   9  -2   2  174.48   41.30
   9   2   2  114.89    6.12
   9   2  -2  149.85   31.56
   9  -2  -2  131.09   31.51
   9  -2   2  134.26   17.20
   9  -2   3  454.63   22.59
   9  -2  -3  376.37   18.21
   9   2   3  363.88   13.59
   9   2  -3  390.34   20.20
   9  -2  -3  401.63   36.88
   9  -2   3  406.74   22.77
   9   2  -4  172.47   29.16
   9   2   4  214.77   42.49
   9  -2   4  182.18   25.09
   9  -2  -4  177.39   27.16
   9   2   4  172.17    7.73
   9   2  -4  198.43   20.75
   9  -2  -4  217.01   36.95
   9  -2   4  198.77   17.76
  -9   2  -4  204.78    9.06
   9   2  -5    5.90    5.07
   9   2   5   17.48    5.62
   9  -2   5   20.24    9.03
   9  -2  -5   12.26    4.97
   9   2   5    6.40    1.58
   9   2  -5   13.81    5.29
   9  -2  -5   20.47    5.06
   9  -2   5   17.21    5.92
  -9  -2  -5    7.66    2.28
  -9   2  -5    3.81    1.45
   9   2  -6   -1.43    3.71
   9   2   6   -6.29    8.95
   9  -2   6    9.05    6.64
   9  -2  -6    7.39    5.57
   9   2   6    2.61    1.32
   9   2  -6   13.05    6.18
   9  -2  -6   11.28    5.47
   9  -2   6    3.36    1.99
  -9   2  -6    5.59    3.49
  -9  -2  -6    6.34    5.54
   9   2  -7   23.66    6.98
   9   2   7   16.31    6.53
   9  -2  -7   22.78    9.00
   9  -2   7   14.44    5.28
   9   2  -7   41.55    9.38
   9  -2  -7   41.11   14.49
   9  -2   7   26.16    6.73
  -9   2  -7   30.81   11.86
  -9  -2  -7   27.37    7.64
   9   2  -8   13.27    6.28
   9   2   8   10.72    5.59
   9  -2  -8    8.32    4.46
   9  -2   8   13.23    5.19
   9   2  -8   21.79    5.89
   9  -2  -8   11.40    5.55
   9  -2   8    6.17    2.98
  -9   2  -8   11.71    3.22
  -9  -2  -8    6.95    5.97
   9   2  -9   49.03   10.01
   9   2   9   62.03    9.52
   9  -2  -9   51.55   15.97
   9  -2   9   63.79   18.16
   9   2  -9   53.22   16.72
   9  -2  -9   63.83   20.23
   9  -2   9   41.00    8.52
  -9   2  -9   59.60   16.17
  -9  -2  -9   68.82   16.45
   9   2 -10   34.03   10.14
   9   2  10   49.81   14.61
   9  -2 -10   34.76    7.79
   9  -2  10   43.71   12.33
   9   2 -10   54.46   11.94
   9  -2 -10   48.04   13.94
  -9   2 -10   35.94   12.99
  -9  -2 -10   43.93   10.78
   9   2 -11  102.36   15.03
   9   2  11   85.40   26.19
   9  -2 -11   86.92   16.42
   9  -2  11  112.58   25.09
   9   2 -11  108.05   26.86
   9  -2 -11   81.21   16.44
  -9   2 -11   75.45   21.01
  -9  -2 -11  121.41   24.85
   9   2  12   35.28   17.90
   9  -2  12   41.04   10.85
   9   2 -12   53.19   17.07
   9  -2 -12   36.63    9.91
  -9   2 -12   30.57    9.66
  -9  -2 -12   31.50   13.39
   9   2  13   36.38   14.28
   9  -2  13   38.71   10.48
   9   2 -13   27.08   10.62
   9  -2 -13   35.60   10.07
  -9   2 -13   30.45    9.65
  -9  -2 -13   24.86    7.89
   9   2  14   33.96   16.66
   9  -2  14   37.01   16.77
   9   2 -14   45.18    9.62
   9  -2 -14   39.83   13.17
  -9   2 -14   34.51    8.58
  -9  -2 -14   26.03   12.16
   9   2  15  118.94   37.09
   9  -2  15  101.65   33.75
   9   2 -15  135.27   32.67
   9  -2 -15  131.51   39.10
  -9   2 -15  118.40   31.86
  -9  -2 -15  111.63   32.85
   9   2  16   26.58   10.22
   9  -2  16   22.09    6.47
   9   2 -16   34.81   15.35
   9  -2 -16   27.43    8.90
  -9   2 -16   23.87    7.56
  -9  -2 -16   34.00   13.58
   9   2  17   13.36    8.35
   9  -2  17    9.35    4.26
   9   2 -17   17.67    9.46
   9  -2 -17   16.33    8.57
  -9   2 -17   11.21    4.99
  -9  -2 -17   24.40    8.12
   9   3   0   25.45    6.82
   9  -3   0   18.81    7.31
   9   3   0   29.89    6.37
   9  -3   0   25.45    5.80
  -9   3   0   13.33    3.26
   9   3  -1   94.25   19.99
   9   3   1   93.45   21.59
   9  -3   1  102.35   16.31
   9  -3  -1   98.42   30.83
   9   3   1   79.39   21.74
   9   3  -1  103.59   17.53
   9  -3  -1  107.31   23.52
   9  -3   1   87.77   18.02
   9   3   2  198.97   42.43
   9  -3   2  185.71   27.00
   9   3   2  177.57   10.89
   9   3  -2  180.51   36.59
   9  -3  -2  192.49   17.19
   9  -3   2  173.19   10.24
   9  -3   3  224.66   38.72
   9  -3  -3  220.28   19.08
   9   3   3  219.28    9.52
   9   3  -3  216.24   14.88
   9  -3  -3  219.12   46.23
   9  -3   3  207.01   19.53
  -9   3  -3  224.86    8.76
   9   3  -4   12.03    5.40
   9   3   4   16.45    4.71
   9  -3   4   22.07   10.36
   9  -3  -4    4.22    3.34
   9   3   4    4.38    3.31
   9   3  -4    4.96    3.07
   9  -3  -4   -0.61    7.88
   9  -3   4    8.19    3.87
  -9   3  -4    7.50    1.90
   9   3  -5   90.45   22.83
   9   3   5   98.32   18.58
   9  -3   5   87.20   19.49
   9  -3  -5   89.71   23.16
   9   3   5   75.08    4.29
   9   3  -5   99.09   24.75
   9  -3  -5   78.53   14.39
   9  -3   5   74.69   12.67
  -9  -3  -5   59.51   10.78
  -9   3  -5   97.16   11.92
   9   3  -6   20.48    8.13
   9   3   6   36.88    9.26
   9  -3   6   35.68   12.13
   9  -3  -6   23.39    8.62
   9   3   6   13.62    4.98
   9   3  -6   24.67    6.84
   9  -3  -6   22.00    6.43
   9  -3   6   18.87    6.02
  -9   3  -6   22.63    8.16
   9   3  -7  153.34   10.27
   9   3   7  174.50   24.14
   9  -3   7  183.09   42.55
   9  -3  -7  159.78   24.88
   9   3  -7  152.10   26.75
   9  -3  -7  149.19   23.80
   9  -3   7  142.23   14.85
  -9   3  -7  152.21    6.90
  -9  -3  -7  170.99   38.39
   9   3  -8   14.71    8.91
   9   3   8   17.89    5.82
   9  -3   8   26.32    8.15
   9  -3  -8   24.43    7.54
   9   3  -8   26.15    7.71
   9  -3  -8   19.93    7.45
   9  -3   8   18.43    6.64
  -9   3  -8   17.74    4.87
  -9  -3  -8   24.46   10.06
   9   3  -9   50.71   16.12
   9   3   9   52.75   13.23
   9  -3   9   53.63   12.81
   9  -3  -9   54.41   13.55
   9   3  -9   66.87   15.23
   9  -3  -9   66.37   15.49
   9  -3   9   48.00    6.19
  -9   3  -9   57.32   17.04
  -9  -3  -9   65.74   14.35
   9   3 -10   74.48   19.23
   9   3  10   81.80   16.61
   9  -3 -10   74.18   24.27
   9  -3  10  101.95   26.15
   9   3 -10  104.92   29.49
   9  -3 -10   93.94   17.13
  -9   3 -10   78.22   15.26
  -9  -3 -10  113.59   26.75
   9   3 -11   11.33    3.43
   9   3  11   26.40    6.44
   9  -3 -11   15.02    5.23
   9  -3  11   23.09    7.20
   9   3 -11   21.54    9.65
   9  -3 -11   12.40   11.05
  -9   3 -11   22.40    5.13
  -9  -3 -11   16.74    9.87
   9   3  12   13.98    5.46
   9  -3  12   15.15    5.11
   9   3 -12   18.16    7.04
   9  -3 -12   15.65    6.57
  -9   3 -12    6.41    1.91
  -9  -3 -12   10.08    4.50
   9   3  13   25.00   11.66
   9  -3  13   27.07   10.76
   9   3 -13   31.94    9.01
   9  -3 -13   30.11    8.60
  -9   3 -13   11.55    3.57
  -9  -3 -13   18.53    8.10
   9   3  14  119.05   30.17
   9   3 -14  128.50   37.41
   9  -3 -14  141.29   33.49
  -9   3 -14  129.88   23.73
  -9  -3 -14  142.01   22.35
   9   3  15   26.90   10.03
   9  -3  15   13.36    6.74
   9   3 -15   26.29    8.15
   9  -3 -15   19.62    9.28
  -9   3 -15   15.38    5.10
  -9  -3 -15   12.85    6.78
   9   3  16    7.39    4.55
   9  -3  16    7.48    3.15
   9   3 -16   11.97    6.78
   9  -3 -16   13.69    5.16
  -9   3 -16   10.14    4.83
  -9  -3 -16    5.16    4.56
   9   3  17   11.75    6.94
   9  -3  17   12.61    5.17
   9   3 -17   10.18    3.95
   9  -3 -17    5.15    3.43
  -9   3 -17    3.44    1.84
  -9  -3 -17    7.36    4.43
   9   4   0   46.04    9.79
   9  -4   0   36.24    7.13
   9   4   0   50.84   13.27
   9  -4   0   43.23   11.00
  -9   4   0   26.57    5.90
   9   4  -1   20.61    8.81
   9   4   1    7.08    8.73
   9  -4   1    9.81    6.61
   9  -4  -1   10.22    7.46
   9   4   1    7.47    3.25
   9   4  -1    5.37    3.04
   9  -4  -1   10.93    6.32
   9  -4   1   17.00    7.91
  -9   4  -1    1.81    1.32
  -9   4   1    4.99    1.55
   9   4   2   31.76    8.09
   9  -4   2   29.29    8.28
   9   4   2   29.42    5.37
   9   4  -2   27.92    9.84
   9  -4  -2   35.79    8.59
   9  -4   2   25.30    6.89
  -9   4  -2   16.58    4.16
  -9   4  -2   18.95    5.55
   9   4   3  155.36   36.24
   9  -4   3  175.61   18.18
   9  -4  -3  166.64   30.00
   9   4   3  157.94   13.56
   9   4  -3  162.54   22.40
   9  -4  -3  173.58   43.74
   9  -4   3  152.52   29.85
  -9   4  -3  157.78    4.52
   9   4  -4    6.74    6.05
   9   4   4   19.62    7.26
   9  -4   4    9.81    5.64
   9  -4  -4   16.48    5.88
   9   4   4    8.87    3.05
   9   4  -4   10.06    8.10
   9  -4  -4    6.86    5.52
   9  -4   4    5.66    4.11
  -9   4  -4    5.82    1.49
   9   4  -5  246.17   13.60
   9   4   5  264.62   32.62
   9  -4   5  265.98   18.25
   9  -4  -5  239.31   13.04
   9   4   5  244.45    7.75
   9   4  -5  279.48   41.88
   9  -4  -5  235.34   30.24
  -9  -4  -5  247.52    8.91
   9  -4   5  268.97   25.23
  -9   4  -5  237.08    7.09
   9   4  -6  308.43   38.83
   9   4   6  330.90   31.62
   9  -4   6  312.06   48.86
   9  -4  -6  285.05   13.37
   9   4   6  285.46    7.86
   9   4  -6  350.59   28.55
   9  -4  -6  360.78   32.73
   9  -4   6  306.94   17.27
  -9  -4  -6  297.66    8.26
  -9   4  -6  297.11   10.59
   9   4  -7  107.16   22.54
   9   4   7  142.09   30.03
   9  -4   7  101.06   17.91
   9  -4  -7   98.43   18.23
   9   4  -7  108.81   23.93
   9  -4  -7  104.18   26.32
   9  -4   7   86.92   20.57
  -9   4  -7   95.94    4.35
  -9  -4  -7  117.02   27.03
   9   4  -8   61.48   13.27
   9   4   8   40.77    9.27
   9  -4   8   72.93   18.38
   9  -4  -8   51.86   16.24
   9   4  -8   68.82   20.41
   9  -4  -8   59.36   14.84
   9  -4   8   58.54   16.74
  -9   4  -8   51.65    9.86
  -9  -4  -8   62.12   19.76
   9   4  -9   84.99   11.98
   9   4   9   91.31   19.27
   9  -4   9  107.93   32.17
   9  -4  -9   73.40   19.37
   9   4  -9  119.13   26.17
   9  -4  -9   87.56   19.26
   9  -4   9   81.15   12.84
  -9   4  -9   65.04   14.47
  -9  -4  -9   92.50   24.60
   9   4 -10  171.52   26.26
   9   4  10  194.62   25.57
   9  -4  10  170.67   18.01
   9  -4 -10  183.57    8.40
   9   4 -10  160.94   37.43
   9  -4 -10  189.14   39.52
   9  -4  10  166.33    6.86
  -9   4 -10  198.70    7.61
  -9  -4 -10  197.30   41.98
   9   4 -11   27.89   12.09
   9   4  11   47.95   13.76
   9  -4  11   49.73   11.54
   9  -4 -11   41.82   12.36
   9   4 -11   38.01   10.33
   9  -4 -11   36.93   12.21
  -9   4 -11   30.01    9.44
  -9  -4 -11   46.46   10.29
   9   4  12   18.26    8.38
   9  -4  12   -1.95    6.13
   9   4 -12   -0.07    6.66
   9  -4 -12    4.17    3.55
  -9   4 -12   10.56    2.63
  -9  -4 -12    7.10    5.33
   9   4  13    6.22    5.45
   9  -4  13    6.81    5.24
   9   4 -13    8.75    6.64
   9  -4 -13   13.59    9.71
  -9   4 -13   12.20    4.93
  -9  -4 -13   15.33    5.67
   9   4  14   24.84    8.44
   9  -4  14   11.70    3.12
   9   4 -14    5.43    5.76
   9  -4 -14    7.98    4.84
  -9   4 -14    9.60    5.00
  -9  -4 -14    6.78    4.78
   9   4  15    9.23    3.86
   9  -4  15   16.80    5.43
   9   4 -15   11.89    5.36
   9  -4 -15   16.02    6.92
  -9   4 -15   11.83    4.81
  -9  -4 -15   18.54    7.45
   9   4  16    3.60    4.23
   9  -4  16    7.67    5.30
   9   4 -16    5.12    4.56
   9  -4 -16    7.23    4.39
  -9  -4 -16    8.56    4.72
   9   4  17    6.33    2.91
   9  -4  17    8.77    4.51
   9   4 -17   14.57    9.90
   9  -4 -17   20.26    8.63
  -9  -4 -17   10.65    7.77
   9   5   0  105.26   28.23
   9  -5   0  143.04   22.45
   9   5   0  139.67   23.34
   9  -5   0  151.67   25.08
  -9   5   0  126.45    4.79
   9   5  -1  173.56   44.64
   9   5   1  164.50   38.73
   9  -5   1  157.37   37.72
   9  -5  -1  153.51   34.56
   9   5   1  151.14   13.39
   9   5  -1  143.29   16.59
   9  -5  -1  160.82   27.38
   9  -5   1  186.65   37.49
  -9   5   1  139.05    7.54
   9   5   2  230.19   46.77
   9  -5   2  225.03   47.98
   9  -5  -2  117.77   33.68
   9   5   2  200.71   13.97
   9   5  -2  247.95   22.63
   9  -5  -2  222.04   16.94
   9  -5   2  236.87   23.42
  -9   5   2  200.82    8.21
   9   5   3  116.11   26.14
   9  -5   3  146.40   30.46
   9   5   3  136.29    5.96
   9   5  -3  155.56   25.48
   9  -5  -3  140.63   25.39
   9  -5   3  155.32   17.59
   9   5  -4   46.00   13.10
   9   5   4   42.18    9.32
   9  -5   4   62.78   12.57
   9  -5  -4   29.37    9.37
   9   5   4   42.66   10.94
   9   5  -4   32.99    9.73
   9  -5  -4   34.38    9.12
   9  -5   4   48.29   13.82
   9   5  -5   17.18    6.24
   9   5   5   30.94   10.24
   9  -5   5   16.55    6.42
   9  -5  -5   15.80    7.45
   9   5   5   14.18    5.47
   9   5  -5   10.14    4.27
   9  -5  -5   24.89    8.76
   9  -5   5   10.21    4.61
   9   5  -6   19.75    7.17
   9   5   6   19.03    7.70
   9  -5   6    7.34    5.37
   9  -5  -6   32.42    7.10
   9   5  -6   17.64    6.17
   9  -5  -6   20.91    6.52
   9  -5   6   13.82    5.83
  -9   5  -6   13.98    3.90
   9   5  -7    9.07    3.02
   9   5   7   16.54    8.78
   9  -5   7   21.12    6.58
   9  -5  -7   21.07    4.80
   9   5  -7   23.45    6.16
   9  -5  -7   38.50   11.24
   9  -5   7    7.91    5.17
  -9   5  -7   16.81    5.51
   9   5  -8   25.00    8.85
   9   5   8   33.58   11.38
   9  -5   8   46.79   11.31
   9  -5  -8   26.14    9.36
   9   5  -8   34.99    8.95
   9  -5  -8   25.73    7.78
   9  -5   8   38.17    9.97
  -9   5  -8   19.67    5.31
   9   5  -9  178.72    8.72
   9   5   9  178.85   29.49
   9  -5   9  164.79   24.79
   9  -5  -9  157.84   27.83
   9   5  -9  172.69   29.88
   9  -5  -9  146.22   39.97
   9  -5   9  151.67   17.28
  -9   5  -9  165.65   14.13
   9   5 -10   47.17   13.05
   9   5  10   47.35   14.56
   9  -5  10   38.33   20.46
   9  -5 -10   40.90   12.21
   9   5 -10   47.71    8.04
   9  -5 -10   64.05   16.80
   9  -5  10   36.02   14.67
  -9   5 -10   50.55    6.77
   9   5 -11   26.55    9.72
   9   5  11   26.66    8.55
   9  -5  11   33.25   12.64
   9  -5 -11   17.42    9.60
   9   5 -11   24.45    9.37
   9  -5 -11   25.08   10.99
  -9   5 -11   22.93    6.36
   9   5  12   39.14   13.52
   9  -5  12   42.37   10.04
   9   5 -12   40.49   10.04
   9  -5 -12   45.65   13.25
   9   5  13   52.15   22.30
   9  -5  13   53.49   19.01
   9   5 -13   58.82   16.59
   9  -5 -13   49.55   15.38
   9   5  14   21.80    8.94
   9  -5  14   29.99    9.86
   9   5 -14   32.36    8.11
   9  -5 -14   28.50    7.67
   9   5  15   24.24    8.12
   9  -5  15   25.28    6.80
   9   5 -15   22.99    6.56
   9  -5 -15   19.38    7.54
   9   5  16   10.12    6.58
   9  -5  16   24.88    7.27
   9   5 -16   25.71    8.70
   9  -5 -16   20.67   11.24
   9   5  17    9.20    4.90
   9  -5  17   10.32    4.91
   9  -5 -17   -1.56    6.64
  -9   6   0 1062.99  135.13
   9   6   0 1059.25  134.71
   9   6   0  969.80   26.43
   9  -6   0 1057.46  134.50
  -9   6  -1   67.85   28.09
  -9   6   1   72.30   19.08
   9   6  -1   74.79   21.88
   9   6   1   81.01   16.42
   9   6   1   85.83   16.87
   9   6  -1   69.34   13.51
   9  -6  -1   81.56   20.58
   9  -6   1   84.52   13.10
  -9   6   1   52.13    3.79
  -9   6   2  134.59   31.66
   9   6   2  128.00   26.75
   9  -6   2  111.27   23.53
   9   6   2  113.28   14.84
   9   6  -2  118.90   15.41
   9  -6  -2  146.22   27.37
   9  -6   2  135.71   24.87
  -9   6   2  102.66    7.92
  -9   6   3  285.59   14.57
   9   6   3  249.59   24.45
   9  -6   3  303.61   34.34
   9   6   3  295.05   26.97
   9   6  -3  283.44   27.55
   9  -6  -3  282.34   29.60
   9  -6   3  324.00   28.35
  -9   6   4  309.79   31.44
   9   6  -4  250.02   15.00
   9   6   4  251.28   42.73
   9  -6   4  293.69   36.79
   9   6   4  265.86   12.43
   9   6  -4  262.43   16.87
   9  -6  -4  246.59   49.01
   9  -6   4  312.43   33.29
  -9   6   5   19.82    6.07
   9   6  -5   13.29    7.54
   9   6   5   17.69   11.11
   9  -6   5    7.05    4.51
   9   6   5    3.22    1.73
   9   6  -5   13.45    4.68
   9  -6  -5   -7.49    7.79
   9  -6   5   14.05    6.30
  -9   6   6   18.02    5.56
   9   6  -6   17.70    5.33
   9   6   6   23.04    9.62
   9  -6   6   26.71    6.82
   9   6  -6   17.29    4.58
   9  -6  -6    8.38    8.98
   9  -6   6   16.61    4.12
   9   6  -7   15.33    6.61
   9   6   7    7.50    5.82
   9  -6   7   29.91   12.07
   9  -6  -7   12.81    4.68
   9   6  -7   16.63    5.10
   9  -6  -7   30.64   10.17
   9  -6   7   11.92    4.88
   9   6  -8   92.13   19.39
   9   6   8  108.14   21.84
   9  -6   8  106.06   30.96
   9  -6  -8   96.46   22.75
   9   6  -8  119.35   22.10
   9  -6  -8  103.98   16.30
   9  -6   8  104.49   19.15
  -9  -6  -8  114.57   29.20
   9   6  -9   81.57   26.21
   9   6   9   92.30   31.18
   9  -6   9   89.36   19.80
   9  -6  -9   78.19   19.53
   9   6  -9  119.05   26.11
   9  -6  -9   90.83   31.17
   9  -6   9   99.17    9.75
  -9  -6  -9   90.57   20.73
   9   6 -10   17.40    6.91
   9   6  10   11.04    5.06
   9  -6  10   28.54    9.62
   9  -6 -10   13.13    3.97
   9   6 -10   17.42    7.46
   9  -6 -10   18.08    6.68
   9  -6  10   19.09    5.53
  -9  -6 -10   29.01    8.60
   9   6 -11   15.25    5.50
   9   6  11   16.12    4.26
   9  -6  11   21.23    8.47
   9  -6 -11   13.08    5.28
   9   6 -11   14.91   13.39
   9  -6 -11   26.29   10.18
   9  -6  11   16.28    7.94
  -9  -6 -11    9.13    5.74
   9   6  12  173.52   46.16
   9  -6  12  237.29   30.19
   9   6 -12  201.28   39.88
   9  -6 -12  224.44   39.57
  -9  -6 -12  278.41   15.37
   9   6  13   17.54   10.56
   9  -6  13   26.66   10.25
   9   6 -13   33.18   14.66
   9  -6 -13   22.52    7.64
   9  -6 -13   21.09    6.65
  -9  -6 -13   28.63   10.83
   9   6  14    8.30    5.72
   9  -6  14   10.94    7.94
   9   6 -14    5.87    3.70
   9  -6 -14   -0.68    7.21
   9  -6 -14   13.12    3.60
  -9  -6 -14    5.60    5.23
   9   6  15   17.45    6.77
   9  -6  15   18.28    6.03
   9   6 -15   18.65    6.66
   9  -6 -15   27.29   10.50
  -9  -6 -15   26.57   10.31
   9   6  16   34.17   16.28
   9  -6  16   29.83   20.27
   9   6 -16   55.40   16.16
   9  -6 -16   52.02   24.54
  -9  -6 -16   38.04   11.08
  -9   7   0   76.35   10.36
   9   7   0   95.56   23.18
   9   7   0   99.10   22.00
   9  -7   0   88.48   24.19
  -9   7  -1   58.70   15.76
  -9   7   1   38.60    7.07
   9   7  -1   36.88   13.12
   9   7   1   42.32   11.03
   9   7   1   47.74   10.48
   9   7  -1   49.88   13.06
   9  -7  -1   50.30   12.51
   9  -7   1   46.78   10.53
  -9   7  -2  226.43   35.65
   9   7   2  215.30   30.43
   9   7   2  198.13   21.37
   9   7  -2  199.56   10.31
   9  -7  -2  218.72   42.09
   9  -7   2  229.78   23.88
  -9   7  -3   10.69    5.39
  -9   7   3   10.39    5.52
   9   7   3    8.48    5.43
   9   7   3    8.68    1.86
   9   7  -3    3.14    3.54
   9  -7  -3   12.27    4.94
   9  -7   3    9.79    4.01
  -9   7  -4  139.55   20.86
  -9   7   4  156.35   31.39
   9   7  -4  153.49   25.22
   9   7   4  147.92   42.26
   9   7   4  128.87   19.97
   9   7  -4  132.49   25.41
   9  -7  -4  122.81   24.01
   9  -7   4  159.30   19.62
  -9   7   5    7.10    3.11
   9   7  -5    4.83    8.90
   9   7   5   -4.42    9.15
   9  -7   5    2.28    3.28
   9   7  -5    9.42    3.97
   9  -7  -5   12.34    4.67
   9  -7   5   12.64    5.51
  -9   7   6   51.31   13.95
   9   7  -6   47.66   15.58
   9   7   6   57.86   16.37
   9  -7   6   50.59   12.90
   9   7  -6   63.73   10.98
   9  -7  -6   69.37   21.00
   9  -7   6   56.31   15.10
  -9   7   7   21.28    6.83
   9   7  -7   17.26    4.89
   9   7   7   28.57    9.69
   9  -7   7   26.15    7.39
   9   7  -7   26.63    8.95
   9  -7  -7   15.20    8.73
   9  -7   7   12.27    8.47
  -9   7   8   78.99   24.01
   9   7  -8   75.90   25.22
   9   7   8   91.68   21.63
   9  -7   8   95.85   18.07
   9   7  -8   66.68   11.95
   9  -7  -8   98.54   24.44
  -9  -7  -8   80.74   19.79
  -9   7   9   26.16    8.58
   9   7  -9   34.42    9.72
   9   7   9   39.18   10.76
   9  -7   9   20.91   11.70
   9   7  -9   34.70   16.16
   9  -7  -9   26.86   11.03
   9  -7   9   35.80    9.75
  -9  -7  -9   28.96    8.34
   9   7 -10   46.60   10.14
   9   7  10   75.75   18.26
   9  -7  10   73.80   22.04
   9  -7 -10   51.36   16.76
   9   7 -10   66.12   27.15
   9  -7 -10   58.26   28.29
   9  -7  10   52.08   21.28
   9  -7 -10   87.59   16.68
  -9  -7 -10   84.87   22.22
   9   7 -11   30.34    9.49
   9   7  11   51.98   14.01
   9  -7  11   49.82   10.45
   9  -7 -11   33.02   10.78
   9   7 -11   39.75    7.38
   9  -7 -11   46.00   14.33
   9  -7  11   27.59   11.25
   9  -7 -11   54.16   15.98
  -9  -7 -11   36.97   13.88
   9   7  12   38.64    8.41
   9  -7  12   40.79   11.01
   9   7 -12   40.60    8.64
   9  -7 -12   42.45    8.82
   9  -7 -12   33.12    7.82
  -9  -7 -12   57.15   13.64
   9   7  13   13.64    4.84
   9  -7  13   22.14    8.91
   9   7 -13   16.09    7.07
   9  -7 -13   37.39   14.03
   9  -7 -13   24.49    6.94
  -9  -7 -13   30.25   11.20
   9   7  14   10.21    6.29
   9  -7  14   21.32   10.33
   9   7 -14   36.07   14.61
   9  -7 -14    9.21    5.75
   9  -7 -14   12.48    5.34
  -9  -7 -14   34.25    9.41
   9   7  15   11.12    8.24
   9  -7  15    6.38    4.46
   9   7 -15    6.59    8.30
   9  -7 -15    7.38    4.69
   9  -7 -15    9.77    3.48
  -9  -7 -15    2.82    7.42
   9   7  16   12.86    6.70
   9  -7  16   15.89    5.39
   9   7 -16   13.22    5.13
   9  -7 -16   17.07    4.95
   9  -7 -16    8.57    4.37
  -9  -7 -16   15.28    6.42
  -9   8   0    6.81    7.19
   9   8   0   -3.21    8.18
   9   8   0    5.98    3.85
   9  -8   0   12.84    6.61
  -9   8  -1   27.91    6.15
  -9   8   1   34.71   13.80
   9   8  -1   46.73   12.51
   9   8   1   32.59    9.82
   9   8   1   30.38    5.76
   9   8  -1   37.27    8.91
   9  -8  -1   27.40    7.55
   9  -8   1   28.16    8.20
  -9   8  -2   79.15   21.07
  -9   8   2   74.10   13.88
   9   8  -2   68.74   13.08
   9   8   2   61.92   13.70
   9   8   2   68.34   18.69
   9   8  -2   67.35   14.72
   9  -8  -2   79.85   16.11
   9  -8   2   69.43   18.34
  -9   8  -3   51.18   24.36
  -9   8   3   49.35   10.48
   9   8   3   50.16   13.31
   9   8   3   37.94    9.70
   9   8  -3   51.66   18.32
   9  -8  -3   34.87    9.11
   9  -8   3   55.07    9.64
  -9   8  -4    9.00    6.61
  -9   8   4   13.77    5.41
   9   8  -4   -0.02    6.53
   9   8   4    9.79    7.81
   9   8   4   -0.31    2.10
   9   8  -4   11.27    3.94
   9  -8  -4    7.08    5.99
   9  -8   4    1.88    3.10
  -9   8  -5   82.17   20.22
  -9   8   5   72.36   17.04
   9   8  -5   83.12   20.39
   9   8   5   84.59   19.25
   9   8  -5   70.89   20.67
   9  -8  -5   67.61   19.40
   9  -8   5   82.75   15.45
  -9   8  -6  338.62   14.31
  -9   8   6  351.81   13.77
   9   8  -6  327.16   13.45
   9   8   6  374.56   47.30
   9   8  -6  332.54   13.44
   9  -8  -6  324.82   41.67
   9  -8   6  367.46   31.56
  -9   8   7   36.73    7.84
   9   8  -7   38.03    8.70
   9   8   7   17.58    7.78
   9  -8   7   40.85   12.75
   9   8  -7   26.39    6.84
   9  -8  -7   32.33    8.83
   9  -8   7   36.08   10.30
  -9   8   8  124.62   32.12
   9   8  -8  100.73   27.73
   9   8   8  111.23   26.16
   9  -8   8   81.67   30.15
   9   8  -8  101.90   27.20
   9  -8  -8  113.13   24.92
   9  -8   8   88.60   29.43
   9  -8  -8   96.79   26.03
  -9  -8  -8   96.80   20.31
  -9   8   9   12.29    6.33
   9   8  -9   20.47    6.74
   9   8   9   28.39    6.93
   9  -8   9   31.54   11.20
   9   8  -9   26.61   10.67
   9  -8  -9   21.29    8.13
   9  -8   9   24.17    9.55
   9  -8  -9   16.12    5.46
  -9  -8  -9   21.90    7.67
  -9   8  10   59.17   18.24
   9   8 -10   52.54   15.48
   9   8  10   52.83   19.71
   9  -8  10   66.37   19.62
   9   8 -10   63.24   19.35
   9  -8 -10   68.16   16.21
   9  -8  10   64.62   16.73
   9  -8 -10   73.52   12.04
  -9  -8 -10   77.51   21.63
  -9   8  11   14.41    5.71
   9   8 -11   11.49    8.72
   9   8  11   16.04    7.63
   9  -8  11   28.29    9.71
   9   8 -11   22.64    8.67
   9  -8 -11   11.34    9.07
   9  -8  11   19.02    7.52
   9  -8 -11   14.85    4.52
  -9  -8 -11   20.12    5.67
   9   8  12    9.76    5.97
   9  -8  12   14.78    6.83
   9  -8 -12    7.44    2.89
   9   8 -12   18.79    5.74
   9  -8 -12   11.61    4.30
   9  -8 -12   10.47    3.79
  -9  -8 -12   25.84    7.33
   9   8  13   -0.28    5.84
   9  -8  13    7.22    3.16
   9   8 -13    6.06    6.31
   9  -8 -13   15.38    6.13
   9  -8 -13    6.20    3.54
  -9  -8 -13   -0.17    6.18
   9   8  14   -5.74    6.67
   9  -8  14    6.24    5.09
   9   8 -14    9.32    6.08
   9  -8 -14    8.07    3.82
   9  -8 -14    9.18    5.15
  -9  -8 -14    9.15    6.41
   9   8  15    5.21    6.05
   9  -8  15    5.96    3.22
   9   8 -15   10.08    6.88
   9  -8 -15   11.47    4.42
   9  -8 -15    7.54    4.12
  -9  -8 -15    6.17    3.09
  -9   9   0   24.18    7.36
   9   9   0   14.66    5.83
   9   9   0   10.81    3.43
   9  -9   0    9.67    5.25
  -9   9  -1   58.29   11.89
  -9   9   1   69.26   14.45
   9   9  -1   54.56   13.69
   9   9   1   61.60   17.64
   9   9   1   59.30   10.42
   9   9  -1   49.13   13.45
   9  -9  -1   74.22   13.37
   9  -9   1   64.48   15.25
  -9   9  -2  285.84   46.43
  -9   9   2  291.54   51.08
   9   9  -2  278.50   25.29
   9   9   2  264.45   21.81
   9   9   2  289.69   33.12
   9   9  -2  280.77   18.93
   9  -9  -2  314.16   30.26
   9  -9   2  279.03   57.47
  -9   9  -3   14.59    8.86
  -9   9   3   29.15    7.04
   9   9   3   18.79    8.17
   9   9   3   18.37    5.62
   9   9  -3   19.67    5.39
   9  -9  -3   17.22    6.62
   9  -9   3    6.68    4.99
  -9   9  -4    0.76    3.53
  -9   9   4   15.02    4.94
   9   9  -4   -0.26    5.36
   9   9   4   17.38    9.10
   9   9   4    4.33    1.69
   9   9  -4    0.48    2.38
   9  -9  -4   12.58    8.15
   9  -9   4   10.62    4.87
  -9   9  -5   25.55    9.72
  -9   9   5   26.78    7.56
   9   9  -5   13.20    6.87
   9   9   5   25.97    9.74
   9   9  -5   11.49    4.58
   9  -9  -5   30.55   10.15
   9  -9   5   20.18    5.60
  -9   9  -6   17.29    5.44
  -9   9   6   15.46    8.19
   9   9  -6   14.51    7.92
   9   9   6   21.35    8.73
   9   9  -6   18.60    7.05
   9  -9  -6   23.17   12.16
   9  -9   6   14.72    7.14
  -9   9  -7   59.12   20.92
  -9   9   7   46.42   12.03
   9   9  -7   46.72   14.88
   9   9   7   65.44   16.65
   9   9  -7   70.44   13.89
   9  -9  -7   60.18   20.68
   9  -9   7   52.07   18.71
   9  -9  -7   49.30   17.14
  -9   9   8    2.29    2.87
   9   9  -8    0.46    4.31
   9   9   8   -1.89    8.00
   9   9  -8    8.41    5.31
   9  -9  -8   16.83    4.91
   9  -9   8    7.37    3.29
   9  -9  -8   -0.90    2.90
  -9  -9  -8    7.19    4.96
  -9   9   9   18.72    4.60
   9   9  -9   10.21    4.49
   9   9   9   17.73    7.07
   9  -9   9   20.45    8.24
   9   9  -9   22.75    5.77
   9  -9  -9   21.94   10.48
   9  -9   9   14.45    9.77
   9  -9  -9   19.64    6.18
  -9  -9  -9   20.05   10.81
  -9   9  10   38.53   11.24
   9   9 -10   47.22   13.00
   9   9  10   52.61   14.48
   9  -9  10   34.78   13.33
   9   9 -10   50.32   14.69
   9  -9 -10   48.88   13.89
   9  -9  10   40.72   14.38
   9  -9 -10   37.13    7.98
  -9  -9 -10   39.94   10.75
  -9   9  11   32.80    9.22
   9   9 -11   33.37   11.89
   9   9  11   41.34   12.94
   9  -9  11   43.70   12.04
   9   9 -11   44.31   21.01
   9  -9 -11   31.64   11.37
   9  -9 -11   33.71   15.08
  -9  -9 -11   55.88   16.66
   9   9  12    8.28    3.98
   9  -9  12    5.16    3.14
   9   9 -12    3.25    3.50
   9  -9 -12   11.00    7.75
   9  -9 -12    4.93    3.75
  -9  -9 -12    6.47    7.36
   9   9  13   11.41    4.39
   9  -9  13   17.91    7.96
   9   9 -13   16.30    9.75
   9  -9 -13   13.37    8.33
   9  -9 -13    9.52    3.81
  -9  -9 -13   29.05    8.77
   9   9  14   35.53   16.36
   9  -9  14   59.88   14.86
   9   9 -14   52.57   19.23
   9  -9 -14   32.86   13.27
   9  -9 -14   41.71   12.48
  -9  -9 -14   40.13   17.16
  -9  10   0  101.09   17.54
   9  10   0   97.02   30.09
   9  10   0   82.10   12.47
   9 -10   0   68.75   18.17
  -9  10  -1  136.64   29.26
  -9  10   1  148.65   19.47
   9  10  -1  145.98   38.13
   9  10   1  152.94   32.57
   9  10   1  157.33   13.58
   9  10  -1  135.99   24.71
   9 -10  -1  184.14   47.76
   9 -10   1  132.70   26.05
  -9  10  -2   86.18   13.72
  -9  10   2   75.71   10.88
   9  10  -2   65.74   14.76
   9  10   2   93.72   32.23
   9  10   2   79.61   10.70
   9  10  -2   66.77   13.26
   9 -10  -2   80.63   19.01
   9 -10   2   74.79   17.51
  -9  10  -3   29.69    7.82
  -9  10   3   29.90    5.85
   9  10   3   15.58    6.72
   9  10   3   25.68    9.07
   9  10  -3   33.44    6.65
   9 -10  -3   36.17   12.36
   9 -10   3   44.80   13.67
  -9  10  -4  120.00   25.17
  -9  10   4  108.74   28.17
   9  10  -4   88.49   31.96
   9  10   4   88.37   18.91
   9  10  -4   96.29   22.73
   9 -10  -4   91.53   26.84
   9 -10   4  102.59   21.18
  -9  10  -5   11.19    3.96
  -9  10   5   18.72    9.50
   9  10  -5   13.26    7.37
   9  10   5   10.78    9.60
   9  10  -5   15.98    5.35
   9 -10  -5    4.31    8.63
   9 -10   5   11.96    3.97
  -9  10  -6   17.87    5.02
  -9  10   6   21.32    5.00
   9  10  -6   17.69    6.16
   9  10   6   13.62    7.16
   9  10  -6   24.43    8.87
   9 -10  -6   16.02    5.44
   9 -10   6   18.78    5.14
  -9  10  -7    6.52    5.78
  -9  10   7   14.91    5.82
   9  10  -7    5.73    4.69
   9  10   7   10.27    6.22
   9  10  -7   12.37    6.49
   9 -10  -7   14.73    6.42
   9 -10   7    7.53    7.49
  -9  10  -8   13.88    4.27
  -9  10   8   14.20    5.77
   9  10  -8   12.96    3.49
   9  10   8   25.14    8.61
   9  10  -8   25.94    8.80
   9 -10  -8   17.31    6.26
   9 -10   8    9.34    3.43
   9 -10  -8   17.66    5.43
  -9 -10  -8   15.83    8.47
  -9  10  -9   30.76   17.84
  -9  10   9   44.23   10.47
   9  10  -9   36.94   10.79
   9  10   9   38.02   17.50
   9  10  -9   35.52   10.62
   9 -10  -9   31.88   14.97
   9 -10   9   28.82   10.57
   9 -10  -9   33.96   12.21
  -9 -10  -9   55.67   16.19
  -9  10  10   17.83    7.13
   9  10 -10   30.56    7.43
   9  10  10   25.90   10.51
   9 -10  10   22.75    8.71
   9  10 -10   33.02    9.81
   9 -10 -10   17.09    7.46
   9 -10 -10   21.93    8.33
  -9 -10 -10   32.24    9.90
  -9  10  11   68.27   18.56
   9  10 -11   35.31    9.66
   9  10  11   46.29   14.32
   9 -10  11   61.99   18.12
   9  10 -11   46.53   17.88
   9 -10 -11   49.96   15.99
   9 -10 -11   41.07   13.63
  -9 -10 -11   72.08   22.51
   9  10  12   51.93   13.56
   9 -10  12   22.09    8.36
   9  10 -12   37.41   14.90
   9 -10 -12   27.94   18.90
   9 -10 -12   33.63   13.56
  -9 -10 -12   29.22    8.58
   9  10  13   15.33    9.82
   9 -10  13    7.78    5.08
   9  10 -13    8.44    7.52
   9 -10 -13   15.46    9.05
   9 -10 -13    6.62    4.50
  -9 -10 -13   12.16    6.59
  -9  11   0   19.34    5.28
   9  11   0   15.84    6.19
   9  11   0   22.76    6.13
   9 -11   0   15.78    6.80
  -9  11  -1   51.53   14.89
  -9  11   1   66.93   15.59
   9  11  -1   60.24   15.18
   9  11   1   75.31   14.79
   9  11   1   61.49   16.59
   9  11  -1   75.64   21.42
   9 -11  -1   86.37   19.99
   9 -11   1  101.75   25.06
  -9  11  -2   19.70   10.49
  -9  11   2   25.15   10.53
   9  11  -2   21.06    5.96
   9  11   2   17.11    6.19
   9  11   2   18.52    4.86
   9  11  -2   11.92    6.36
   9 -11  -2   14.82   12.13
   9 -11   2   32.36   13.81
  -9  11  -3    3.00    8.44
  -9  11   3    3.16    4.74
   9  11  -3   12.86    4.94
   9  11   3   -0.02    7.67
   9  11  -3    9.45    4.59
   9 -11  -3   -5.33    9.99
   9 -11   3    7.93    6.44
  -9  11  -4   55.34   15.48
  -9  11   4   63.21   21.06
   9  11   4   78.96   13.72
   9  11  -4   52.68   13.09
   9 -11  -4   47.69    8.92
   9 -11   4   59.43   16.74
  -9  11  -5   61.64   22.98
  -9  11   5   41.87   17.92
   9  11  -5   43.89   11.79
   9  11   5   57.59   10.80
   9  11  -5   46.74    7.96
   9 -11  -5   42.62   14.42
   9 -11   5   52.16   18.76
  -9  11  -6    8.38    8.98
  -9  11   6   24.11    6.89
   9  11  -6    4.07    3.80
   9  11   6    7.88    5.55
   9  11  -6    4.11    1.73
   9 -11  -6   17.24    8.11
   9 -11   6   17.51    7.57
  -9  11  -7    9.56    3.85
  -9  11   7   10.89    7.16
   9  11  -7    7.23    4.87
   9  11   7    5.90    3.58
   9  11  -7   14.01    4.80
   9 -11  -7    2.26    6.45
   9 -11   7    3.70    5.07
  -9  11  -8   56.80   17.82
  -9  11   8   55.65   18.73
   9  11  -8   49.22   18.02
   9  11   8   55.58   14.53
   9  11  -8   59.71   10.90
   9 -11  -8   52.41   24.12
  -9 -11  -8   52.40   17.63
  -9  11  -9    8.96    4.75
  -9  11   9    7.26    5.90
   9  11  -9    9.21    3.36
   9  11   9   14.19    8.26
   9  11  -9   13.45    4.46
   9 -11  -9    3.73   10.37
  -9 -11  -9   -2.20    5.02
  -9  11  10    1.91    3.50
   9  11 -10   11.55    4.75
   9  11  10    1.25    4.89
   9  11 -10    9.37    5.24
   9 -11 -10    6.75    5.45
  -9 -11 -10   18.94    8.60
  -9  11  11   12.66    6.04
   9  11  11   22.93    9.98
   9 -11  11   20.83    5.55
   9  11 -11   22.03    5.74
   9 -11 -11   22.16    6.77
  -9 -11 -11   18.78    6.46
   9  11  12    5.38    3.68
   9 -11  12    6.36    3.79
   9  11 -12    6.32    4.66
   9 -11 -12    7.92    5.19
  -9 -11 -12   11.44    7.80
  -9  12   0   17.96    4.85
   9  12   0   24.88    9.88
   9  12   0    8.28    3.43
   9 -12   0   19.67   13.82
  -9  12  -1   15.42    5.45
  -9  12   1   19.79    8.16
   9  12  -1   13.75    5.73
   9  12   1   23.21   12.42
   9  12   1   20.74    4.16
   9  12  -1   24.14    6.81
   9 -12  -1   12.25    9.01
   9 -12   1   20.51    9.75
  -9  12  -2   16.06    4.58
  -9  12   2   11.05    5.98
   9  12  -2   10.27    5.30
   9  12   2   15.62   10.75
   9  12  -2    3.85    3.63
   9 -12  -2   -4.20    9.05
   9 -12   2   20.48   10.96
  -9  12  -3   71.45   18.38
  -9  12   3  103.40   15.56
   9  12  -3   81.75   26.67
   9  12   3   64.36   18.05
   9  12  -3   62.91   15.66
   9 -12  -3   83.29   13.88
   9 -12   3   65.42   17.61
  -9  12  -4   35.45   10.13
  -9  12   4   53.01   16.07
   9  12   4   48.23   11.05
   9  12  -4   48.64   18.69
   9 -12  -4   46.08   19.62
   9 -12   4   41.67   12.05
  -9  12  -5   93.10   24.36
  -9  12   5   86.57   18.89
   9  12  -5   58.72   17.74
   9  12   5   93.78   26.53
   9  12  -5   71.06   24.98
   9 -12  -5   92.88   28.11
   9 -12   5   76.34   31.01
  -9  12  -6   21.78    5.52
  -9  12   6   31.24    7.55
   9  12  -6   18.89    6.29
   9  12   6   23.38    7.52
   9  12  -6   20.90   10.06
   9 -12  -6   19.44    7.00
   9 -12   6   20.20   11.60
  -9  12  -7   97.44   18.67
  -9  12   7   85.28   27.35
   9  12  -7   71.75   25.22
   9  12   7   75.12   33.41
   9  12  -7   88.47   20.23
   9 -12  -7   72.00   29.56
   9 -12   7   81.93   23.33
  -9  12  -8   30.00   15.80
  -9  12   8   29.08   10.58
   9  12  -8   30.92   13.46
   9  12   8   36.86    9.90
   9  12  -8   49.99   10.92
   9 -12  -8   28.60    9.22
   9 -12   8   24.34   11.72
  -9 -12  -8   46.32   14.69
  -9  12  -9  109.63   31.08
  -9  12   9  109.69   38.73
   9  12  -9   64.86   26.32
   9  12   9   78.25   19.96
   9  12  -9   97.85   34.21
   9 -12  -9   89.55   28.17
  -9 -12  -9  100.39   33.59
  -9  12 -10   12.61    5.29
  -9  12  10    9.80    3.34
   9  12 -10   16.69    5.97
   9  12  10   24.27   10.81
   9  12 -10    6.18    3.73
   9 -12 -10   18.58    8.90
  -9 -12 -10   16.66    7.21
  -9  12  11   15.59    6.28
   9  12  11   10.42    5.16
   9  12 -11   15.56    5.01
   9 -12 -11   21.40    7.14
  -9 -12 -11   20.46    8.68
  -9  13   0   35.12   11.49
   9  13   0   32.54   15.34
   9  13   0   21.54   10.48
   9 -13   0   22.71    5.92
  -9  13  -1   67.33   22.00
  -9  13   1   47.10   12.98
   9  13  -1   37.34   16.85
   9  13   1   40.58   22.21
   9  13  -1   56.78   12.14
   9 -13  -1   59.71   23.46
   9 -13   1   50.83   11.29
  -9  13  -2   22.30    7.67
  -9  13   2    8.56    4.22
   9  13  -2    6.15    5.82
   9  13   2   13.84    7.54
   9  13  -2    6.85    4.53
   9 -13  -2   31.38   11.26
   9 -13   2   23.34   10.11
  -9  13  -3    4.03    4.69
  -9  13   3   12.52    4.95
   9  13  -3   -2.56    5.88
   9  13   3   -0.37    3.34
   9  13  -3    3.80    4.87
   9 -13  -3   14.24   10.95
   9 -13   3    6.23    6.58
  -9  13  -4    9.71    7.00
  -9  13   4    1.73    6.56
   9  13   4   11.51    8.99
   9  13  -4    7.15    3.82
   9 -13  -4   13.49   10.56
   9 -13   4   10.70    6.24
  -9  13  -5   59.79    9.77
  -9  13   5   46.14   16.01
   9  13  -5   47.90   12.75
   9  13   5   52.33   10.02
   9  13  -5   38.89    9.16
   9 -13  -5   60.78   20.27
   9 -13   5   53.05   13.02
  -9  13  -6    0.53    7.06
  -9  13   6   21.41    8.03
   9  13  -6   -1.60    5.75
   9  13   6   15.80    6.13
   9  13  -6    9.54    4.06
   9 -13  -6   -4.11    8.74
   9 -13   6   14.49    7.11
  -9  13  -7    5.39    3.20
  -9  13   7   13.22    3.88
   9  13  -7   10.23    3.32
   9  13   7   10.80   10.37
   9  13  -7    6.94    4.09
   9 -13  -7   13.88    7.82
   9 -13   7    7.91    3.27
  -9  13  -8    9.31    5.34
  -9  13   8    2.80    5.54
   9  13  -8    9.34    5.96
   9  13   8    8.97    5.50
   9  13  -8    6.89    3.75
   9 -13  -8    9.29    7.66
   9 -13   8    7.41    5.16
  -9 -13  -8   10.77    8.09
  -9  13  -9   -1.68    7.12
  -9  13   9    4.04    3.06
   9  13  -9    5.80    4.32
   9  13   9   11.35    4.50
   9  13  -9    8.52    4.88
   9 -13  -9   17.67    6.45
  -9 -13  -9   11.34    7.76
  -9  13 -10   -1.64    6.51
  -9  13  10    9.72    3.32
   9  13 -10    1.61    2.82
   9  13  10   14.84    7.59
   9  13 -10   12.14    5.14
   9 -13 -10   11.92    6.43
  -9 -13 -10   11.58    7.57
  -9  14   0   14.92    9.18
   9  14   0   25.48   11.74
   9 -14   0   23.38    8.60
  -9  14  -1   47.29    9.85
  -9  14   1   79.44   21.11
   9  14  -1   48.83   14.88
   9  14   1   53.52   18.98
   9  14  -1   44.97    8.69
   9 -14  -1   53.02   23.38
   9 -14   1   53.56   27.12
  -9  14  -2   18.90    8.43
  -9  14   2   24.63    7.49
   9  14  -2   18.55    8.75
   9  14   2   33.13   11.42
   9  14  -2   16.16    6.12
   9 -14  -2   29.08   10.76
   9 -14   2   23.85    5.41
  -9  14  -3   50.00   16.71
  -9  14   3   48.95   14.11
   9  14  -3   44.67   20.44
   9  14   3   45.96    9.74
   9  14  -3   44.55   12.84
   9 -14  -3   68.26   22.84
   9 -14   3   53.64   19.95
  -9  14  -4   11.89    6.07
  -9  14   4   12.04    5.92
   9  14  -4    8.98    5.61
   9  14   4   13.32    6.38
   9  14  -4    9.23    4.71
   9 -14  -4   22.43   14.98
   9 -14   4   21.11    9.98
  -9  14  -5    8.99    5.98
  -9  14   5   11.39    5.74
   9  14  -5   16.29    8.99
   9  14   5    5.23    4.23
   9  14  -5    4.85    4.41
   9 -14  -5   22.93   10.79
   9 -14   5    5.26    5.35
  -9  14  -6    4.71    3.35
  -9  14   6   14.24    6.44
   9  14  -6   14.56    6.60
   9  14   6    4.52    4.77
   9  14  -6   11.72    3.82
   9 -14  -6   12.84    6.48
   9 -14   6   11.41    5.85
  -9  14  -7    5.92    5.68
  -9  14   7   -1.16    6.39
   9  14  -7    8.41    3.76
   9  14   7   -2.34    7.12
   9  14  -7   11.70    6.59
   9 -14  -7   11.74    8.40
   9 -14   7   13.11    8.57
  -9  14  -8   10.99    5.13
  -9  14   8    8.97    2.68
   9  14  -8    8.23    6.66
   9  14   8    3.73    3.43
   9  14  -8    9.41    5.40
   9 -14  -8    8.28    5.24
   9 -14   8    6.07    5.25
  -9 -14  -8   15.05    8.91
  -9  15   0   15.34    6.41
   9  15   0    9.79    3.17
   9 -15   0    5.71    5.52
  -9  15  -1    7.99    7.16
  -9  15   1   14.32    7.55
   9  15  -1   11.26    5.57
   9  15   1   33.15   10.71
   9 -15  -1   10.63    7.27
   9 -15   1   23.51   11.00
  -9  15  -2   37.26   11.83
  -9  15   2   37.45    8.67
   9  15  -2   33.07   10.14
   9  15   2   29.43    9.19
   9  15  -2   26.83   10.27
   9 -15  -2   37.33   11.77
   9 -15   2   21.33   13.99
  -9  15  -3   15.05    8.35
  -9  15   3   22.58    9.10
   9  15  -3    9.31    4.91
   9  15   3   14.20    7.96
   9  15  -3    5.71    5.96
   9 -15  -3   27.53   12.17
   9 -15   3   20.40   11.54
  -9  15  -4    8.75    6.66
  -9  15   4   17.73    8.15
   9  15  -4   20.56   14.16
   9  15   4   19.42    7.01
   9  15  -4   17.52    7.52
   9 -15  -4   10.89    4.71
   9 -15   4   14.45    8.15
  -9  15  -5   12.74    7.88
  -9  15   5    7.28    9.12
   9  15   5   17.71    8.75
   9  15  -5   32.63   10.22
   9 -15  -5   26.52   10.90
   9 -15   5   23.87    8.35
  10   0   0   17.97    9.60
  10   0   0   22.52    5.66
  10   0  -1  165.26   30.12
  10   0   1  147.38   25.82
  10   0   1  150.85   18.02
  10   0  -1  148.76   32.08
  10   0   2  346.46   20.45
  10   0  -2  334.44   17.27
  10   0   2  305.94   14.36
  10   0   3   81.66   15.30
  10   0  -3   92.82   18.55
  10   0   3   84.49    9.64
  10   0  -4    8.88    4.84
  10   0   4   -0.29    9.21
  10   0  -4    3.04    4.12
  10   0   4    5.69    3.26
  10   0  -5    0.36    3.70
  10   0   5   10.79    5.91
  10   0   5    2.74    3.30
  10   0  -5    7.18    4.60
 -10   0  -5    4.85    3.48
  10   0  -6  103.52   32.73
  10   0   6  107.82   22.23
  10   0   6   88.93    4.37
  10   0  -6  110.44   14.63
 -10   0  -6   92.69   19.69
  10   0  -7    8.15    3.10
  10   0   7   -5.81    8.41
  10   0   7    1.62    0.72
  10   0  -7    3.08    6.52
 -10   0  -7    5.84    3.92
  10   0  -8   21.26    5.89
  10   0   8   26.11    8.64
  10   0  -8   24.57    8.24
 -10   0  -8   15.27    3.95
  10   0  -9    9.92    4.25
  10   0   9   15.15    4.97
  10   0  -9   12.47    5.66
 -10   0  -9    6.66    5.75
  10   0 -10  258.25    9.70
  10   0  10  272.28   61.93
  10   0 -10  277.67   14.23
 -10   0 -10  270.36   21.54
  10   0 -11    9.22    4.26
  10   0  11    4.68    3.90
  10   0 -11   13.63    4.80
 -10   0 -11    7.50    4.40
  10   0  12    9.70    4.54
  10   0 -12    8.43    6.67
 -10   0 -12    4.05    3.30
  10   0  13   38.78   15.25
  10   0 -13   43.69   16.69
 -10   0 -13   35.14   14.07
  10   0  14   18.26    6.29
  10   0 -14   33.89   10.65
 -10   0 -14   18.27    6.82
  10   0  15   16.18   11.31
  10   0 -15   13.82   10.75
 -10   0 -15    6.33    3.10
  10   0  16    9.23    6.85
  10   0 -16    7.81    4.18
 -10   0 -16    4.21    1.96
  10   0  17   13.91    8.39
  10   0 -17   20.35    6.17
 -10   0 -17    5.63    3.51
  10   1   0  144.72   34.68
  10  -1   0  127.40   21.54
  10   1   0  103.34   12.92
  10  -1   0  120.02   17.03
  10   1  -1   42.24   11.48
  10   1   1   29.56    7.30
  10  -1   1   33.15    8.82
  10  -1  -1   43.94    8.58
  10   1   1   44.38   13.35
  10   1  -1   43.40    8.55
  10  -1  -1   34.93    9.40
  10  -1   1   38.71   10.98
  10   1   2  247.21   36.91
  10  -1   2  224.36   51.41
  10   1   2  243.41   24.37
  10   1  -2  223.95   36.32
  10  -1  -2  214.76   20.37
  10  -1   2  202.28   24.46
  10   1  -3  218.40   46.16
  10   1   3  222.34   24.78
  10  -1   3  212.58   34.87
  10   1   3  209.37   10.18
  10   1  -3  246.16   14.36
  10  -1  -3  224.24   14.71
  10  -1   3  213.64   24.63
  10   1  -4  110.12   24.10
  10   1   4  115.65   29.61
  10  -1  -4   81.64   27.38
  10  -1   4  148.65   32.44
  10   1   4   79.41   12.73
  10   1  -4  144.88   35.16
  10  -1  -4  109.97   23.92
  10  -1   4   96.77   20.09
  10   1  -5   32.86   12.40
  10   1   5   47.53    9.54
  10  -1  -5   29.23    8.68
  10  -1   5   30.16    7.88
  10   1   5   15.40    8.47
  10   1  -5   38.08    8.39
  10  -1  -5   34.09    8.60
  10  -1   5   18.52    6.99
 -10   1  -5   30.77    8.53
  10   1  -6   36.54    9.80
  10   1   6   30.70   19.60
  10  -1  -6   34.55    7.83
  10  -1   6   45.10   10.38
  10   1   6   19.81    6.74
  10   1  -6   56.20   13.02
  10  -1  -6   34.01    9.24
  10  -1   6   30.97   10.56
 -10   1  -6   26.87    6.37
 -10  -1  -6   39.61    9.98
  10   1  -7   75.82   14.36
  10   1   7  105.80   21.53
  10  -1  -7   88.78   17.30
  10  -1   7   84.78   17.39
  10   1  -7  102.14   25.47
  10  -1  -7   94.53   27.98
  10  -1   7   84.97    7.25
 -10   1  -7   74.30   21.08
 -10  -1  -7  101.32   23.15
  10   1  -8   38.86    9.72
  10   1   8   46.62   19.74
  10  -1  -8   59.89   11.17
  10  -1   8   42.85   16.01
  10   1  -8   48.52   12.70
  10  -1  -8   66.90   16.60
 -10   1  -8   59.29   15.57
 -10  -1  -8   70.35   15.12
  10   1  -9  111.95    7.48
  10   1   9  105.58   23.72
  10  -1  -9   87.56   19.71
  10  -1   9   84.72   29.97
  10   1  -9  133.00   37.31
  10  -1  -9  100.55   20.27
 -10   1  -9  100.89   24.74
 -10  -1  -9  110.84   20.85
  10   1 -10   61.20   15.77
  10   1  10   85.44   19.77
  10  -1 -10   55.06   13.20
  10  -1  10   77.07   38.04
  10   1 -10   81.19   22.12
  10  -1 -10   85.69   15.20
 -10   1 -10   65.18   13.93
 -10  -1 -10   79.60   17.83
  10   1 -11    7.59    2.71
  10  -1 -11   11.70    5.08
  10   1  11   -5.68    8.34
  10  -1  11    5.86    6.61
  10   1 -11    9.01    6.80
  10  -1 -11   16.82    7.37
 -10   1 -11   11.16    3.38
 -10  -1 -11    2.30    4.88
  10   1  12   17.16    7.01
  10  -1  12   12.70    7.18
  10   1 -12   12.41    6.37
  10  -1 -12   12.63    5.40
 -10   1 -12   14.93    4.57
 -10  -1 -12   19.12    6.30
  10   1  13   18.19    6.30
  10  -1  13    5.73    7.21
  10   1 -13    5.18    4.82
  10  -1 -13   18.24    8.35
 -10   1 -13    7.53    4.17
 -10  -1 -13   13.81    6.33
  10   1  14   28.41   11.41
  10  -1  14   36.26    8.11
  10   1 -14   45.96   11.51
  10  -1 -14   45.59   15.64
 -10   1 -14   22.01   13.55
 -10  -1 -14   33.32    5.82
  10  -1  15   15.73   10.16
  10   1 -15   32.61    9.97
  10  -1 -15   31.21   13.25
 -10   1 -15   26.19    7.62
 -10  -1 -15   29.97   10.00
  10   1  16   36.17   16.13
  10  -1  16   38.56    9.96
  10   1 -16   26.28   10.26
  10  -1 -16   34.43   10.74
 -10   1 -16   36.95    9.29
 -10  -1 -16   29.36   13.39
  10   1  17    6.31    5.18
  10  -1  17    9.60    4.89
  10   1 -17    4.41    7.11
  10  -1 -17    4.75    7.85
 -10   1 -17    1.09    2.45
 -10  -1 -17   -0.03    4.61
  10   2   0  150.69   38.95
  10  -2   0  145.88   27.09
  10   2   0  122.55   11.99
  10  -2   0   97.93   20.85
  10   2  -1  133.91   40.92
  10   2   1  128.02   30.39
  10  -2  -1  112.20   19.09
  10  -2   1  125.25   25.02
  10   2   1  133.91   14.55
  10   2  -1  131.05   13.06
  10  -2  -1  123.24   19.30
  10  -2   1  100.38   17.73
  10   2   2   13.28    5.13
  10  -2   2   22.45    8.44
  10   2   2   15.34    4.24
  10   2  -2   15.37    7.71
  10  -2  -2   14.38    5.02
  10  -2   2    8.57    4.24
  10   2  -3   49.64    9.84
  10   2   3   59.74   12.97
  10  -2   3   50.88   11.42
  10   2   3   47.05    8.84
  10   2  -3   65.80   15.53
  10  -2  -3   56.83   12.83
  10  -2   3   42.89   12.78
  10   2  -4  115.47   23.65
  10   2   4   90.30   21.32
  10  -2  -4  125.33   20.57
  10  -2   4  121.69   23.38
  10   2   4   91.57   16.16
  10   2  -4  123.15   20.84
  10  -2  -4  122.76   22.32
  10  -2   4  113.87   14.91
 -10   2  -4   92.84   14.83
  10   2  -5   37.99   11.10
  10   2   5   33.98   23.70
  10  -2   5   39.29   10.71
  10  -2  -5   53.61   10.95
  10   2   5   31.62   11.55
  10   2  -5   32.71   10.60
  10  -2  -5   37.77   12.71
  10  -2   5   29.87    9.22
 -10   2  -5   44.03   12.22
  10   2  -6    9.84    4.84
  10   2   6   11.27    6.20
  10  -2  -6   13.04    7.73
  10  -2   6   19.89    6.61
  10   2   6    6.71    2.21
  10   2  -6   12.88    4.71
  10  -2  -6   10.52    4.69
  10  -2   6    9.23    3.29
 -10   2  -6   14.14    5.87
 -10  -2  -6   13.40    5.78
  10   2  -7   58.24   11.63
  10   2   7   55.61   15.48
  10  -2  -7   64.08   17.43
  10  -2   7   60.49   12.28
  10   2  -7   76.49   12.34
  10  -2  -7   63.53   14.44
  10  -2   7   46.84    7.88
 -10   2  -7   56.01   13.67
 -10  -2  -7   60.62   13.61
  10   2  -8   54.46   10.49
  10   2   8   74.59   20.77
  10  -2  -8   54.23   10.02
  10  -2   8   49.97   12.23
  10   2  -8   64.22   15.57
  10  -2  -8   55.08   10.51
  10  -2   8   32.96   11.86
 -10   2  -8   55.80   12.10
 -10  -2  -8   66.72   11.43
  10   2  -9   26.44    6.07
  10   2   9   48.34   14.65
  10  -2  -9   32.55   14.19
  10  -2   9   38.15   12.64
  10   2  -9   52.19   19.38
  10  -2  -9   38.71   11.55
 -10   2  -9   36.95    9.46
 -10  -2  -9   46.05    9.58
  10   2 -10   11.75    4.51
  10   2  10   11.72    4.36
  10  -2 -10   11.74    3.85
  10  -2  10   22.83    5.55
  10  -2 -10   25.88    7.88
 -10   2 -10   15.62    5.57
 -10  -2 -10   20.93    6.36
  10   2 -11   31.07   12.32
  10   2  11   58.10   15.68
  10  -2 -11   34.18   10.35
  10  -2  11   46.53   17.59
  10   2 -11   37.65   12.86
  10  -2 -11   41.03    8.63
 -10   2 -11   36.84   10.78
 -10  -2 -11   50.94   16.52
  10   2  12   83.70   28.26
  10  -2  12   74.48   15.27
  10   2 -12   85.87   25.79
  10  -2 -12   76.22   23.55
 -10   2 -12   56.91   14.73
 -10  -2 -12   54.88   18.71
  10   2  13   46.66   18.90
  10  -2  13   50.24   17.41
  10   2 -13   52.47   23.84
  10  -2 -13   46.84   16.64
 -10   2 -13   41.29   11.21
 -10  -2 -13   41.45   11.02
  10   2  14   18.37    8.44
  10  -2  14   -5.19    5.93
  10   2 -14   11.81    8.54
  10  -2 -14   23.34    7.46
 -10   2 -14    7.18    3.48
 -10  -2 -14   14.33    7.23
  10   2  15   18.50    6.97
  10  -2  15   18.34    6.08
  10   2 -15   15.13   11.35
  10  -2 -15   25.30    8.36
 -10   2 -15   11.07    4.83
 -10  -2 -15   17.80    8.71
  10   2  16   29.22   11.60
  10  -2  16   38.44   14.04
  10   2 -16   27.22   12.59
  10  -2 -16   38.15   17.89
 -10   2 -16   27.44    9.38
 -10  -2 -16   45.38   14.55
  10   3   0   20.25    6.08
  10  -3   0   23.44    6.88
  10   3   0   32.67    7.76
  10  -3   0   29.56    7.16
  10   3  -1  118.08   30.60
  10   3   1   89.96   24.04
  10  -3   1   95.84   25.12
  10  -3  -1  119.16   25.20
  10   3   1  127.09   17.43
  10   3  -1   94.69   12.15
  10  -3  -1  108.12   21.53
  10  -3   1  101.71   20.95
 -10   3  -1   78.41    7.99
  10   3   2   11.05    6.87
  10  -3   2   15.17    6.00
  10   3   2   11.32    3.08
  10   3  -2   17.18    6.86
  10  -3  -2   18.83    8.34
  10  -3   2   13.35    6.17
  10   3  -3  157.20   32.60
  10   3   3  161.39   21.26
  10  -3   3  168.27   26.64
  10   3   3  160.23    8.14
  10   3  -3  174.97   18.90
  10  -3  -3  141.10   10.90
  10  -3   3  176.07   19.61
 -10   3  -3  154.12   15.07
  10   3  -4  224.22   37.06
  10   3   4  279.25   52.20
  10  -3   4  240.57   28.85
  10  -3  -4  215.59   13.12
  10   3   4  241.87    8.58
  10   3  -4  240.34   12.39
  10  -3  -4  261.94   24.48
  10  -3   4  236.03   27.99
 -10   3  -4  232.79    7.84
  10   3  -5   43.26   10.20
  10   3   5   41.39    8.13
  10  -3   5   48.53   14.83
  10  -3  -5   26.70    9.78
  10   3   5   35.36    4.91
  10   3  -5   41.15    8.43
  10  -3  -5   46.23   10.14
  10  -3   5   34.46    8.97
 -10   3  -5   33.87    8.42
  10   3  -6   26.75    7.60
  10   3   6   18.75    9.95
  10  -3   6   16.15    5.93
  10  -3  -6   19.68    5.06
  10   3   6   10.13    3.25
  10   3  -6   22.15    6.55
  10  -3  -6   14.17    8.52
  10  -3   6   21.34    6.70
 -10   3  -6   17.69    5.26
  10   3  -7   33.17    9.16
  10   3   7   17.95    5.31
  10  -3   7   36.66    7.36
  10  -3  -7   25.43    7.49
  10   3  -7   24.71    6.81
  10  -3  -7   25.82    9.23
  10  -3   7   22.32    5.63
 -10   3  -7   26.27    6.44
 -10  -3  -7   25.53    6.75
  10   3  -8  240.57   10.49
  10   3   8  230.16   46.95
  10  -3  -8  221.33   11.00
  10  -3   8  301.22   33.24
  10   3  -8  270.42   38.17
  10  -3  -8  221.59   20.81
  10  -3   8  213.12   15.30
 -10   3  -8  231.48   10.65
 -10  -3  -8  229.89   32.78
  10   3  -9   31.83    7.79
  10   3   9   32.24    6.86
  10  -3  -9   16.97   10.80
  10  -3   9   26.14    7.73
  10   3  -9   25.48   10.76
  10  -3  -9   35.22   10.52
 -10   3  -9   20.98    7.61
 -10  -3  -9   35.12    7.79
  10   3 -10   52.93   15.37
  10   3  10   82.27   25.09
  10  -3 -10   70.46   19.50
  10  -3  10   92.61   20.03
  10   3 -10  111.49   23.29
  10  -3 -10   60.58   18.55
 -10   3 -10   61.15   19.25
 -10  -3 -10   81.93   14.79
  10   3 -11   43.65   16.78
  10   3  11   85.56   20.61
  10  -3 -11   42.93   13.41
  10  -3  11   61.12   20.57
  10   3 -11   62.81   24.36
  10  -3 -11   50.72   13.92
 -10   3 -11   63.28   12.63
 -10  -3 -11   59.30   14.04
  10   3  12   16.73    8.58
  10  -3  12   20.35    7.17
  10   3 -12   14.83    8.22
  10  -3 -12   20.07    7.42
 -10   3 -12   11.17    4.46
 -10  -3 -12   12.64    4.09
  10   3  13   70.71   19.45
  10  -3  13   76.27   26.55
  10   3 -13   82.04   22.29
  10  -3 -13   50.89   14.83
 -10   3 -13   56.33   15.87
 -10  -3 -13   74.73   23.25
  10   3  14    7.86    8.04
  10  -3  14    5.73    5.64
  10   3 -14    5.27    7.29
  10  -3 -14   11.55    5.92
 -10   3 -14    0.07    1.92
 -10  -3 -14    2.54    5.01
  10   3  15   20.36   10.12
  10  -3  15   31.08   13.14
  10   3 -15   14.42    7.33
  10  -3 -15   38.30   10.27
 -10  -3 -15   25.85    8.95
  10   3  16   14.06    4.20
  10  -3  16    4.23    5.36
  10   3 -16    1.89    4.34
  10  -3 -16   11.71    3.77
 -10  -3 -16    6.06    3.82
  10   4   0   21.01   10.07
  10  -4   0   18.07    8.67
  10   4   0   22.63    7.68
  10  -4   0   13.28    5.83
 -10   4   0    7.98    3.07
  10   4  -1  137.27   34.97
  10   4   1  139.66   25.01
  10  -4   1  120.12   20.22
  10  -4  -1  151.18   31.06
  10   4   1  140.38   16.46
  10   4  -1  127.77   22.15
  10  -4  -1  131.67   23.16
  10  -4   1  132.07   28.30
 -10   4  -1  103.65    7.54
  10   4   2  177.69   32.71
  10  -4   2  185.09   34.36
  10   4   2  187.55   16.72
  10   4  -2  143.05   13.33
  10  -4  -2  186.02   42.19
  10  -4   2  158.69   30.03
 -10   4  -2  142.14    4.51
 -10   4  -2  177.52    8.74
  10   4  -3   39.26   10.37
  10   4   3   29.16    8.31
  10  -4   3   35.43   14.10
  10   4   3   34.79    9.20
  10   4  -3   42.64   15.95
  10  -4  -3   41.59    7.80
  10  -4   3   33.55   10.01
 -10   4  -3   23.80    7.91
  10   4  -4   67.36    9.63
  10   4   4   97.57   22.22
  10  -4   4   73.11   13.04
  10  -4  -4   82.63   18.92
  10   4   4   74.06   10.23
  10   4  -4   74.68   20.06
  10  -4  -4   62.58   16.21
  10  -4   4   65.04   13.64
 -10   4  -4   53.26    6.68
  10   4  -5   79.26   17.03
  10   4   5   97.18   23.37
  10  -4   5   82.70   18.03
  10  -4  -5   56.17   13.30
  10   4   5   75.77    7.27
  10   4  -5   85.29   17.14
  10  -4  -5   66.79   17.08
  10  -4   5   89.59   12.69
 -10   4  -5   67.62    4.28
  10   4  -6   75.32   24.41
  10   4   6   95.00   31.98
  10  -4   6   77.84   27.73
  10  -4  -6   84.16   23.90
  10   4   6   71.26    6.08
  10   4  -6   71.89   21.20
  10  -4  -6   95.60   17.30
  10  -4   6   67.56   16.02
 -10   4  -6   85.61    9.18
  10   4  -7   82.92   18.37
  10   4   7  127.94   31.14
  10  -4   7   92.15   17.98
  10  -4  -7   81.29   21.23
  10   4  -7   79.72   22.09
  10  -4  -7   86.49   21.68
  10  -4   7   92.68   13.94
 -10   4  -7   95.04    7.84
 -10  -4  -7   98.42   22.47
  10   4  -8   59.40   12.56
  10   4   8   58.28   12.50
  10  -4   8   68.53   13.39
  10  -4  -8   45.96   16.19
  10   4  -8   54.52   15.05
  10  -4  -8   59.77   16.09
  10  -4   8   44.96   11.40
 -10   4  -8   50.15    9.45
 -10  -4  -8   53.47   14.09
  10   4  -9   40.08   12.65
  10   4   9   49.86   11.25
  10  -4   9   49.92   22.95
  10  -4  -9   46.10   17.19
  10   4  -9   47.20   11.95
  10  -4  -9   60.79   11.37
  10  -4   9   38.64    9.78
 -10   4  -9   37.68   11.36
 -10  -4  -9   48.46   15.53
  10   4 -10   71.41   17.22
  10   4  10   72.61   18.60
  10  -4  10   92.07   30.01
  10  -4 -10   66.61   12.65
  10   4 -10   95.03   15.87
  10  -4 -10  101.88   23.50
 -10   4 -10   57.09   15.31
 -10  -4 -10   83.92   24.25
  10   4 -11   34.21    9.04
  10   4  11   16.08    6.42
  10  -4 -11   21.31    9.31
  10  -4  11   45.71   11.19
  10   4 -11   35.53    8.51
  10  -4 -11   41.08   11.22
 -10  -4 -11   29.22    8.71
  10   4  12   12.07    9.47
  10  -4  12    8.65    4.96
  10   4 -12    9.56    5.78
  10  -4 -12    8.34    8.66
 -10  -4 -12   10.27    7.06
  10   4  13   45.86   14.24
  10  -4  13   43.37   12.73
  10   4 -13   46.98   13.17
  10  -4 -13   60.93   20.42
 -10  -4 -13   38.58   14.42
  10   4  14   47.91   20.31
  10  -4  14   73.80   17.42
  10   4 -14   56.68   25.52
  10  -4 -14   59.96   23.44
 -10  -4 -14   54.60   10.03
  10   4  15    3.58    4.56
  10  -4  15    6.18    4.98
  10   4 -15    7.11    6.32
  10  -4 -15    5.53    5.20
 -10  -4 -15   10.66    4.13
  10   4  16   -3.80    5.66
  10  -4  16    2.96    5.30
  10   4 -16   -1.47    4.38
  10  -4 -16    5.96    6.47
 -10  -4 -16    0.17    4.95
  10   5   0  203.59   38.84
  10  -5   0  196.74   52.98
  10   5   0  183.38   14.88
  10  -5   0  213.00   40.50
 -10   5   0  152.92    6.76
  10   5  -1  159.87   23.04
  10   5   1  145.74   31.63
  10  -5   1  159.36   35.32
  10  -5  -1  154.35   39.49
  10   5   1  140.26   12.80
  10   5  -1  156.53   15.46
  10  -5  -1  159.33   37.76
  10  -5   1  153.46   16.02
  10   5   2  240.96   44.24
  10  -5   2  272.84   14.84
  10  -5  -2  248.03   45.81
  10   5   2  243.89   14.26
  10   5  -2  273.25   11.83
  10  -5  -2  256.64   29.72
  10  -5   2  276.30   21.70
  10   5  -3   -0.65    7.15
  10   5   3    3.08    8.49
  10  -5   3   10.65    5.66
  10   5   3    7.02    2.87
  10   5  -3    9.35    4.94
  10  -5  -3   11.71    4.41
  10  -5   3    5.98    6.63
  10   5  -4  159.32   36.64
  10   5   4  198.89   41.72
  10  -5   4  201.78   41.66
  10  -5  -4  168.17   33.45
  10   5   4  205.99   13.47
  10   5  -4  200.16   19.13
  10  -5  -4  175.52   37.86
  10  -5   4  193.22   36.18
  10   5  -5  196.89   36.95
  10   5   5  199.59   42.05
  10  -5   5  226.29   44.63
  10  -5  -5  173.51   36.35
  10   5   5  176.48    5.48
  10   5  -5  185.01   33.36
  10  -5  -5  185.07   28.25
  10  -5   5  195.10   21.35
  10   5  -6   30.90   16.53
  10   5   6   39.45   12.29
  10  -5   6   23.28    7.03
  10  -5  -6   23.93    9.19
  10   5  -6   37.61   11.31
  10  -5  -6   19.72    7.14
  10  -5   6   38.89   12.55
  10   5  -7  105.80   26.44
  10   5   7  127.43   18.90
  10  -5   7  119.74   19.37
  10  -5  -7  142.85   29.53
  10   5  -7  128.01   25.55
  10  -5  -7  131.74   30.79
  10  -5   7  106.17   20.32
  10   5  -8   66.04   12.65
  10   5   8  104.76   25.10
  10  -5   8  104.31   22.14
  10  -5  -8   73.46   20.59
  10   5  -8   86.30   20.04
  10  -5  -8   99.18   23.74
  10  -5   8   68.80   14.53
 -10  -5  -8   69.28   25.03
  10   5  -9   12.54    5.54
  10   5   9   29.18    8.17
  10  -5   9   23.39    6.01
  10  -5  -9   20.61    6.65
  10   5  -9   28.10    8.29
  10  -5  -9   29.37    8.24
  10  -5   9   21.45    5.25
 -10  -5  -9   29.08    7.69
  10   5 -10   89.62   27.77
  10   5  10  104.62   21.73
  10  -5  10  100.86   30.35
  10  -5 -10   86.68   16.99
  10   5 -10  113.30   19.47
  10  -5 -10  111.57   36.31
 -10  -5 -10   84.91   26.98
  10   5 -11   40.86   10.35
  10   5  11   28.87   10.29
  10  -5  11   60.37   12.21
  10  -5 -11   40.50    9.75
  10   5 -11   57.88   23.76
  10  -5 -11   51.97   15.72
 -10  -5 -11   56.16   10.18
  10   5  12   46.12   14.23
  10  -5  12   38.48   10.69
  10   5 -12   43.94   10.12
  10  -5 -12   36.64   11.81
 -10  -5 -12   29.85    7.28
  10   5  13   30.87   10.75
  10  -5  13   33.63    7.91
  10   5 -13   38.13    9.85
 -10  -5 -13   30.15    9.23
  10   5  14   68.60   20.70
  10  -5  14   63.79   22.99
  10   5 -14   49.94   22.66
  10  -5 -14   68.21   17.77
 -10  -5 -14   77.71   25.05
  10   5  15   10.02    5.98
  10  -5  15    8.73    6.85
  10   5 -15   13.80    6.13
  10  -5 -15   14.45    6.77
 -10  -5 -15   -0.49    5.47
  10   5  16   12.93    5.61
  10  -5  16   13.54    6.69
  10   5 -16   13.64    6.84
  10  -5 -16   12.85    6.67
 -10  -5 -16    2.29    4.34
  10   6   0    9.01    3.71
  10  -6   0    6.67    4.95
  10   6   0    4.36    2.25
  10  -6   0   14.79    6.16
  10   6  -1  179.76   33.38
  10   6   1  192.44   45.20
  10  -6   1  160.26   31.12
  10  -6  -1  183.52   33.47
  10   6   1  181.40   29.30
  10   6  -1  170.24   18.18
  10  -6  -1  181.55   40.38
  10  -6   1  190.52   17.27
  10   6   2   19.62   11.88
  10  -6   2   -1.41    8.07
  10  -6  -2   11.14    7.19
  10   6   2    2.33    1.91
  10   6  -2    6.81    3.81
  10  -6  -2    9.12    6.44
  10  -6   2    5.61    3.85
  10   6  -3   64.65   14.79
  10   6   3   64.76   14.05
  10  -6   3   53.89   12.85
  10   6   3   35.60    9.82
  10   6  -3   51.77   12.00
  10  -6  -3   59.04   14.16
  10  -6   3   56.78   11.98
  10   6  -4   47.43   10.15
  10   6   4   48.11   18.15
  10  -6   4   35.03    9.25
  10  -6  -4   43.51   11.35
  10   6   4   41.79   10.64
  10   6  -4   53.13    9.41
  10  -6  -4   53.24   12.44
  10  -6   4   39.14    8.11
  10   6  -5    5.28    3.99
  10   6   5   18.48    8.72
  10  -6   5   -2.66    8.52
  10  -6  -5   12.34    3.36
  10   6   5    2.56    1.75
  10   6  -5    9.52    6.37
  10  -6  -5   -0.31    8.10
  10  -6   5   -4.06    5.95
  10   6  -6    4.62    5.74
  10   6   6   41.74    9.65
  10  -6   6   11.89    5.35
  10  -6  -6   13.81    6.49
  10   6  -6   10.22    5.76
  10  -6  -6    6.84    6.43
  10  -6   6   11.46    5.51
  10   6  -7    9.04    6.14
  10   6   7    9.35    7.59
  10  -6   7    7.36    4.33
  10  -6  -7    4.18    4.53
  10   6  -7    7.11    3.53
  10  -6  -7    8.70    9.24
  10  -6   7    7.36    4.09
  10   6  -8   71.12   16.65
  10   6   8   88.72   23.70
  10  -6   8   72.72   15.15
  10  -6  -8   69.75   20.22
  10   6  -8   64.28   16.71
  10  -6  -8   75.36   16.07
  10  -6   8   60.20   18.07
  10   6   9   25.49   10.65
  10  -6   9    7.82    4.21
  10  -6  -9    5.05    3.26
  10   6  -9   17.35    7.44
  10  -6  -9   10.44    7.80
  10  -6   9    9.06    4.72
  10   6 -10   10.30    4.28
  10   6  10   15.57    9.61
  10  -6  10    5.58    5.32
  10  -6 -10    2.20    2.98
  10   6 -10   11.06    5.42
  10  -6 -10   19.07    8.23
  10  -6  10    5.98    3.40
  10   6 -11   61.46   21.17
  10   6  11   71.56   20.32
  10  -6  11   90.34   20.98
  10  -6 -11   57.99   23.85
  10   6 -11   92.77   22.98
  10  -6 -11   67.07   16.07
  10   6  12   19.54    6.91
  10  -6  12   21.75    8.90
  10   6 -12   13.43    6.62
  10  -6 -12   13.12    5.21
  10   6  13   46.87   14.46
  10  -6  13   44.84   13.86
  10   6 -13   57.21   12.35
  10  -6 -13   26.19   14.48
  10   6  14    6.64    5.65
  10  -6  14    3.77    7.31
  10   6 -14    8.43    3.80
  10  -6 -14    6.28    5.64
  10   6  15   20.96    4.59
  10  -6  15   20.02    7.87
  10   6 -15   13.14    5.43
  10  -6 -15   11.24    7.59
  10   7   0   39.16   11.14
  10   7   0   27.43   11.04
  10  -7   0   38.79   10.00
 -10   7   1  101.99   25.48
  10   7  -1   95.04   26.78
  10   7   1  110.08   26.45
  10  -7   1  102.75   24.81
  10   7   1  110.68   16.51
  10   7  -1   93.85   26.57
  10  -7  -1  125.76   28.71
  10  -7   1  125.09   21.93
 -10   7   2   74.23   24.60
  10   7  -2   47.53   13.57
  10   7   2   67.18   17.26
  10  -7   2   86.12   16.73
  10   7   2   53.21    9.35
  10   7  -2   59.26   12.58
  10  -7  -2   57.01   11.81
  10  -7   2   54.61   15.96
 -10   7   3    3.51    5.22
  10   7   3   -1.24    7.91
  10  -7   3   19.03   10.14
  10   7   3    5.08    2.28
  10   7  -3   10.82    3.83
  10  -7  -3   -2.11    8.34
  10  -7   3    2.16    3.65
 -10   7   4   65.97   10.78
  10   7  -4   72.12   22.20
  10   7   4   75.13   20.22
  10  -7   4   75.06   23.02
  10   7   4   56.49   14.26
  10   7  -4   73.45   12.08
  10  -7  -4   77.50   20.02
  10  -7   4   81.07   28.58
  10   7  -5   43.98   16.61
  10   7   5   61.76   14.73
  10  -7   5   54.29   16.09
  10  -7  -5   69.02   12.19
  10   7   5   56.52    7.21
  10   7  -5   59.20   10.79
  10  -7  -5   76.65   16.41
  10  -7   5   56.91   16.27
  10   7  -6   13.29    4.64
  10   7   6   15.26    9.91
  10  -7   6   13.84    6.10
  10  -7  -6   10.31    3.77
  10   7  -6    5.84    3.09
  10  -7  -6   11.09    4.21
  10  -7   6   18.17    5.75
  10   7  -7  113.51   30.33
  10   7   7  127.11   20.26
  10  -7   7  111.26   37.62
  10  -7  -7  109.15   27.30
  10   7  -7  133.49   19.39
  10  -7  -7  143.60   40.35
  10  -7   7  126.70   14.46
  10   7  -8   63.19   23.14
  10   7   8   92.54   19.66
  10  -7   8   74.18   21.07
  10  -7  -8   65.36   23.93
  10   7  -8   97.57   18.50
  10  -7  -8  104.35   15.59
  10  -7   8   64.81   24.90
 -10  -7  -8   68.84   17.63
  10   7  -9   11.52    3.92
  10   7   9    5.93    8.21
  10  -7   9   30.47    9.21
  10  -7  -9    8.89    3.16
  10   7  -9   10.92    6.64
  10  -7  -9   13.58    5.56
  10  -7   9   14.73    7.89
 -10  -7  -9   14.80    6.07
  10   7 -10    9.62    5.43
  10   7  10    2.39    5.63
  10  -7  10    9.03    3.74
  10  -7 -10   -0.71    3.58
  10   7 -10   10.38    4.38
  10  -7 -10   -1.06    4.90
  10  -7  10    5.00    2.63
 -10  -7 -10    4.37    3.82
  10   7  11   63.79   31.72
  10  -7  11   47.13   12.70
  10  -7 -11   34.50   14.86
  10   7 -11   48.44    9.94
  10  -7 -11   45.06   14.39
 -10  -7 -11   60.75   19.08
  10   7  12   16.38    5.11
  10  -7  12    2.50    2.99
  10   7 -12   15.03    6.86
  10  -7 -12   12.83    4.23
 -10  -7 -12   17.24    7.07
  10   7  13   21.24    8.95
  10  -7  13   25.42    7.77
  10   7 -13    7.66    3.98
  10  -7 -13    2.41    6.30
 -10  -7 -13   15.26    8.16
  10   7  14   10.38    4.94
  10  -7  14   20.93    8.20
  10   7 -14   16.93    5.67
  10  -7 -14   13.15    7.08
 -10  -7 -14   25.31    5.96
  10   7  15    8.58    4.14
  10  -7  15    7.79    3.46
  10   7 -15    4.59    4.07
  10  -7 -15   -2.91    6.52
 -10  -7 -15   11.71    5.15
 -10   8   0   42.45    8.15
  10   8   0   25.77    8.13
  10   8   0   32.13    6.12
  10  -8   0   34.07    7.47
 -10   8  -1   40.15   10.49
 -10   8   1   36.90    7.54
  10   8  -1   34.83   16.53
  10   8   1   26.16    8.09
  10   8   1   40.05    8.95
  10   8  -1   30.83   11.64
  10  -8  -1   44.37   11.67
  10  -8   1   32.49    6.83
 -10   8  -2  107.46   31.99
 -10   8   2  120.91   16.20
  10   8  -2  105.93   25.54
  10   8   2  112.91   21.64
  10   8   2  114.46    9.95
  10   8  -2  120.89   24.01
  10  -8  -2  102.13   25.21
  10  -8   2   90.12   26.44
 -10   8  -3   80.80   24.27
 -10   8   3   93.96   19.99
  10   8   3   80.53   17.54
  10   8   3   74.55   10.41
  10  -8  -3   93.84   17.96
  10  -8   3   84.96   16.98
 -10   8   4   21.82    4.16
  10   8  -4   17.38   14.86
  10   8   4   10.33    7.75
  10  -8   4   14.27    6.53
  10   8   4   20.47    4.74
  10   8  -4   17.59    7.04
  10  -8  -4   13.40    7.70
  10  -8   4   39.16    9.31
 -10   8   5   39.06   10.64
  10   8  -5   34.74   10.04
  10   8   5   37.84   12.59
  10  -8   5   46.90   14.14
  10   8  -5   26.93    6.48
  10  -8  -5   25.82   14.61
  10  -8   5   45.78   17.12
 -10   8   6   69.66   16.68
  10   8  -6   63.02   17.28
  10   8   6   75.16   20.95
  10  -8   6   94.44   20.91
  10   8  -6   74.53   27.15
  10  -8  -6   78.23   19.02
  10  -8   6   68.35   23.56
 -10   8   7   26.46    9.76
  10   8  -7   24.24    8.00
  10   8   7   21.89    8.11
  10  -8   7   22.48    9.98
  10   8  -7   16.81   10.28
  10  -8  -7   32.63   15.24
  10  -8   7   24.78    7.83
 -10   8   8   12.82    5.96
  10   8  -8    6.82    3.30
  10   8   8   20.29    8.28
  10  -8   8    8.95    6.28
  10   8  -8   11.25    4.13
  10  -8  -8    6.00    4.94
  10  -8   8    5.93    3.47
 -10  -8  -8   -1.65    6.20
  10   8  -9   51.52   15.67
  10   8   9   64.43   15.32
  10  -8   9   59.51   13.68
  10  -8  -9   48.16   17.80
  10   8  -9   45.73   16.77
  10  -8  -9   66.11   22.34
  10  -8   9   47.17   15.85
 -10  -8  -9   34.03   15.04
  10   8 -10   48.18   21.63
  10   8  10   41.91   13.76
  10  -8  10   59.04   19.36
  10  -8 -10   35.29   10.80
  10   8 -10   58.09   20.88
  10  -8 -10   38.84   17.05
  10  -8  10   47.86   20.66
 -10  -8 -10   40.86   12.03
  10   8  11   18.60    6.80
  10  -8  11   17.47    7.30
  10  -8 -11   10.66    5.16
  10   8 -11    7.69    6.13
  10  -8 -11   23.94    9.04
 -10  -8 -11    9.41    4.77
  10   8  12    6.88    5.23
  10  -8  12    8.20    3.97
  10   8 -12    8.00    3.85
  10  -8 -12   10.80    6.41
 -10  -8 -12    3.19    4.90
  10   8  13    9.80    4.38
  10  -8  13    8.17    5.15
  10   8 -13   15.14    6.14
  10  -8 -13   11.79    6.40
 -10  -8 -13   10.63    4.19
  10   8  14   23.65   10.66
  10   8 -14   30.43   10.38
  10  -8 -14   21.55   14.15
 -10  -8 -14   28.28   17.96
 -10   9   0    6.29    3.91
  10   9   0   17.36    8.13
  10   9   0    9.58    5.95
  10  -9   0   15.44    5.38
 -10   9  -1   87.61   28.40
 -10   9   1   82.69   23.88
  10   9  -1   93.52   23.79
  10   9   1   96.89   24.47
  10   9   1   94.54   10.61
  10   9  -1   89.59   20.81
  10  -9  -1   79.93   19.74
  10  -9   1   97.06   23.53
 -10   9  -2   94.90   17.76
 -10   9   2  101.13   12.59
  10   9  -2   87.16   20.91
  10   9   2   95.87   22.49
  10   9  -2   94.30   16.50
  10  -9  -2   85.12   27.17
  10  -9   2   93.38   18.96
 -10   9  -3  135.18   24.05
 -10   9   3  148.31   24.32
  10   9   3  137.91   45.42
  10   9   3  127.87   13.80
  10   9  -3  131.97   31.89
  10  -9  -3  108.25   26.15
  10  -9   3  109.66   31.64
 -10   9  -4   48.62   14.02
 -10   9   4   51.91   12.93
  10   9  -4   43.57   12.75
  10   9   4   53.40   13.38
  10   9   4   28.86    6.05
  10   9  -4   52.43   15.73
  10  -9  -4   66.44   16.16
  10  -9   4   59.23   11.26
 -10   9  -5    5.42    3.24
 -10   9   5    1.78    3.15
  10   9  -5    6.38    7.20
  10   9  -5    5.86    4.04
  10  -9  -5   10.42    7.83
  10  -9   5   14.48    7.31
 -10   9   6   43.15   16.28
  10   9  -6   39.51   12.32
  10   9   6   49.65   12.37
  10  -9   6   49.70   13.72
  10   9  -6   47.36   15.85
  10  -9  -6   65.58   12.07
  10  -9   6   49.89   12.19
 -10   9   7   16.82    7.77
  10   9  -7   10.18    3.81
  10   9   7   23.58    9.12
  10  -9   7    1.08    4.61
  10   9  -7    9.84    3.77
  10  -9  -7   14.92   10.07
  10  -9   7    6.22    4.96
 -10   9   8   52.20   17.79
  10   9  -8   43.51   13.77
  10   9   8   43.13   17.44
  10  -9   8   51.18   21.86
  10   9  -8   45.16   13.16
  10  -9  -8   63.25   17.38
  10  -9   8   47.29   14.09
 -10  -9  -8   48.35   16.11
 -10   9   9   17.72    4.61
  10   9  -9   29.24    8.77
  10   9   9    7.17    7.25
  10  -9   9   19.34    6.97
  10   9  -9    9.47    3.70
  10  -9  -9   10.90    6.28
 -10  -9  -9   23.89    9.09
 -10   9  10   17.38    7.67
  10   9 -10   20.23    5.77
  10   9  10   18.54   11.50
  10  -9  10   11.96    9.86
  10   9 -10    7.89    6.37
  10  -9 -10   14.53    9.11
  10  -9  10   16.09    5.76
 -10  -9 -10   20.24    8.95
  10   9  11   60.46   27.66
  10  -9  11   56.20   27.79
  10  -9 -11   47.27   11.28
  10   9 -11   51.53   17.05
  10  -9 -11   39.86   15.28
 -10  -9 -11   49.36   25.99
  10   9  12   -3.66    6.91
  10  -9  12    3.84    3.94
  10   9 -12   -0.14    5.09
  10  -9 -12    2.50    7.91
 -10  -9 -12   14.42    7.72
  10   9  13   37.32   10.35
  10  -9  13   38.72   12.73
  10   9 -13   38.26   18.99
  10  -9 -13   20.87    7.81
 -10  -9 -13   53.35   17.06
 -10  10   0  164.83   25.06
  10  10   0  152.15   36.22
  10  10   0  156.99   25.00
  10 -10   0  187.94   50.00
 -10  10  -1   24.01   13.21
 -10  10   1   22.12    7.73
  10  10  -1   27.34    8.64
  10  10   1   22.49    7.58
  10  10   1   31.11   10.85
  10  10  -1   33.67   11.97
  10 -10  -1   10.89    7.95
  10 -10   1   43.70   12.15
 -10  10  -2   10.19    3.94
 -10  10   2    4.76    5.27
  10  10  -2   -6.53    6.64
  10  10   2   14.73    5.80
  10  10   2    6.07    2.54
  10  10  -2    9.63    1.83
  10 -10  -2   14.92   11.27
  10 -10   2    8.37    6.48
 -10  10  -3   46.63   10.16
 -10  10   3   68.77   17.49
  10  10   3   47.33   13.92
  10  10   3   50.72   12.65
  10  10  -3   67.14   12.86
  10 -10  -3   57.39   25.17
  10 -10   3   76.13   23.18
 -10  10  -4   47.06   19.63
 -10  10   4   47.12   12.36
  10  10  -4   34.39   13.48
  10  10   4   47.73   18.02
  10  10  -4   26.30    8.50
  10 -10  -4   26.75   11.87
  10 -10   4   42.86   12.01
 -10  10  -5   35.47   15.66
 -10  10   5   45.33    8.31
  10  10  -5   55.42   11.62
  10  10   5   36.74   14.60
  10  10  -5   24.19   10.20
  10 -10  -5   18.53    7.21
  10 -10   5   31.45   10.21
 -10  10  -6   12.50    7.14
 -10  10   6   16.72    7.07
  10  10  -6   16.20    5.42
  10  10   6   -2.06    6.76
  10  10  -6    6.04    6.32
  10 -10  -6    3.90    4.19
  10 -10   6   13.53    6.51
 -10  10   7   28.35    8.91
  10  10  -7   21.64    7.75
  10  10   7   30.75    7.27
  10  10  -7   23.81    8.56
  10 -10  -7   21.22    7.00
  10 -10   7   20.19    7.31
 -10  10   8   11.90    3.52
  10  10  -8   18.25    4.96
  10  10   8   33.02    9.73
  10 -10   8    4.69    4.81
  10  10  -8   24.49    7.94
  10 -10  -8   23.64   11.81
  10 -10   8   15.35    8.25
 -10 -10  -8   31.56    8.51
 -10  10   9   15.21    8.04
  10  10  -9   12.28    6.30
  10  10   9   21.84   11.93
  10 -10   9   31.40   11.28
  10 -10  -9   16.66    5.38
  10 -10   9    8.32    4.24
 -10 -10  -9   17.79    7.77
 -10  10  10    4.27    3.79
  10  10 -10    5.33    3.41
  10  10  10   10.37    5.32
  10 -10  10    9.42    6.75
  10  10 -10    6.75    4.74
  10 -10 -10   -5.34    7.76
  10 -10  10    7.91    5.84
 -10 -10 -10    5.00    5.56
 -10  10  11    7.83    4.74
  10  10  11    7.81    4.50
  10 -10  11    9.13    4.48
  10  10 -11   12.46    3.03
  10 -10 -11   12.55   12.51
  10 -10  11    7.76    5.06
 -10 -10 -11   20.85    6.32
  10  10  12    8.69    9.52
  10 -10  12   13.41    7.36
  10  10 -12   28.99    9.72
  10 -10 -12   15.16    5.34
 -10 -10 -12   19.67   11.23
 -10  11   0   77.04   13.59
  10  11   0   81.62   20.63
  10  11   0   61.90   22.16
  10 -11   0   54.91   19.00
 -10  11  -1   13.41    4.43
 -10  11   1    8.70    6.10
  10  11  -1    9.20    3.29
  10  11   1   13.85    8.75
  10  11   1    8.57    5.05
  10  11  -1    1.92    2.92
  10 -11  -1   22.65    9.82
  10 -11   1    7.52    5.09
 -10  11  -2   44.53   11.29
 -10  11   2   39.27   13.04
  10  11  -2   46.76   10.16
  10  11   2   37.83   11.14
  10  11   2   23.93    6.74
  10  11  -2   22.80    9.55
  10 -11  -2   22.65    9.67
  10 -11   2   56.92   14.89
 -10  11  -3  124.30   37.35
 -10  11   3  128.41   31.75
  10  11  -3   23.74    9.54
  10  11   3  101.30   23.58
  10  11  -3  119.12   30.19
  10 -11  -3   87.67   18.15
  10 -11   3  101.54   28.03
 -10  11  -4   31.34   12.61
 -10  11   4   34.62    9.47
  10  11  -4   38.90   10.96
  10  11   4   44.17   11.35
  10  11  -4   39.59   12.64
  10 -11   4   44.17   16.54
 -10  11  -5   91.75   24.07
 -10  11   5   97.77   24.68
  10  11  -5   85.72   27.60
  10  11   5  111.55   25.14
  10  11  -5   74.80   26.38
  10 -11  -5   91.71   24.97
  10 -11   5   83.34   35.35
 -10  11  -6   15.96    5.50
 -10  11   6   13.72    6.59
  10  11  -6   19.35    7.13
  10  11   6   14.47    5.24
  10  11  -6   20.01    8.40
  10 -11  -6   12.78    5.16
  10 -11   6   21.25    7.04
 -10  11  -7   58.98   12.95
 -10  11   7   64.22   20.55
  10  11  -7   66.25   19.94
  10  11   7   72.53   18.43
  10  11  -7   57.38   24.07
  10 -11  -7   74.43   22.87
  10 -11   7   56.63   17.21
 -10  11  -8   13.09    5.23
 -10  11   8   17.29    7.29
  10  11   8   11.76    8.63
  10  11  -8   16.76    5.39
  10 -11  -8   17.43    6.06
  10 -11   8   17.98    8.57
 -10 -11  -8   25.15   11.09
 -10  11   9   84.76   19.61
  10  11  -9   72.07   21.64
  10  11   9   75.80   32.60
  10 -11   9   74.39   27.93
  10  11  -9   68.68   21.70
  10 -11  -9   76.35   22.69
  10 -11   9   53.39   30.13
 -10 -11  -9   88.56   17.65
 -10  11  10   26.87   11.01
  10  11 -10   26.73    6.61
  10  11  10   34.03   14.34
  10 -11  10   29.86   18.65
  10  11 -10   30.23    9.34
  10 -11 -10   32.71   14.49
  10 -11  10   21.03    8.29
 -10 -11 -10   15.97    4.12
 -10  11  11    4.38    2.90
  10  11  11   -0.06    5.13
  10 -11  11   -3.45    6.67
  10  11 -11    8.30    5.01
  10 -11 -11   13.07    6.38
  10 -11  11    2.23    2.58
 -10 -11 -11    3.53    3.49
 -10  12   0   10.09    7.40
  10  12   0    4.30    3.09
  10  12   0    4.74    2.95
  10 -12   0   14.60    6.12
 -10  12  -1   15.01    9.04
 -10  12   1   21.70    6.79
  10  12  -1   16.39    9.88
  10  12   1   13.26    5.59
  10  12   1   24.94    8.43
  10  12  -1   16.06    6.88
  10 -12  -1   28.33    8.80
  10 -12   1   28.21   10.40
 -10  12  -2   43.91   13.54
 -10  12   2   60.83   14.18
  10  12  -2   40.90   11.29
  10  12   2   49.93   10.35
  10  12   2   40.52   15.79
  10  12  -2   41.34    7.70
  10 -12  -2   51.45   21.83
  10 -12   2   24.35    7.63
 -10  12  -3    9.27    5.92
 -10  12   3    8.54    5.04
  10  12  -3    9.19    6.41
  10  12   3   10.20    6.64
  10  12  -3    7.39    3.65
  10 -12  -3    5.04    3.69
  10 -12   3   11.53    7.05
 -10  12  -4    5.86    6.48
 -10  12   4   11.03    4.69
  10  12   4    2.15    8.89
  10  12  -4    8.85    3.43
  10 -12  -4    9.57   12.31
  10 -12   4    9.92    4.61
 -10  12  -5    5.84    7.09
 -10  12   5    3.24    2.77
  10  12  -5    2.13    4.81
  10  12   5    6.41    5.93
  10  12  -5    1.17    3.32
  10 -12  -5   17.74    9.99
  10 -12   5    6.11    5.28
 -10  12  -6    9.93    4.69
 -10  12   6    8.30    3.31
  10  12  -6   25.89    8.56
  10  12   6    8.15    5.83
  10  12  -6   13.63    3.94
  10 -12  -6   22.81    6.73
  10 -12   6   28.38    8.97
 -10  12  -7   12.34    4.23
 -10  12   7    4.19    3.30
  10  12  -7    9.91    8.54
  10  12   7    6.42    5.24
  10  12  -7   14.23    4.85
  10 -12  -7   15.25    7.62
  10 -12   7    0.02    8.41
 -10  12  -8    1.49    6.84
 -10  12   8   10.81    6.57
  10  12  -8    3.22    4.04
  10  12   8   15.22    8.51
  10  12  -8    6.98    3.10
  10 -12  -8   -1.48    5.42
  10 -12   8    5.92    5.25
 -10 -12  -8   -3.33    7.66
 -10  12  -9    8.34    3.93
 -10  12   9    8.46    5.46
  10  12  -9    7.96    4.78
  10  12   9   11.09    5.83
  10  12  -9   20.18    5.37
  10 -12  -9    8.77    7.03
  10 -12   9   11.19    4.77
 -10 -12  -9    6.87    6.43
 -10  12  10   41.10   15.22
  10  12 -10   30.80    8.79
  10  12  10   53.55   13.36
  10 -12  10   36.32   11.53
  10  12 -10   26.01    4.91
  10 -12 -10   29.67   12.02
  10 -12  10   41.43   14.91
 -10 -12 -10   45.16   16.61
 -10  13   0   49.86   16.88
  10  13   0   28.27   13.26
  10  13   0   30.61   13.36
  10 -13   0   52.59   24.70
 -10  13  -1   14.08   10.88
 -10  13   1   12.02    6.47
  10  13  -1   28.12   11.22
  10  13   1   13.82    6.92
  10  13   1   17.48    5.17
  10  13  -1   21.86    9.68
  10 -13  -1   23.64   10.97
  10 -13   1   13.46    5.87
 -10  13  -2   47.73   19.77
 -10  13   2   39.10    9.78
  10  13  -2   32.81   13.78
  10  13   2   29.34   10.32
  10  13  -2   41.72   13.34
  10 -13  -2   36.51   13.45
  10 -13   2   25.51    8.56
 -10  13  -3   42.99   11.98
 -10  13   3   16.95    5.39
  10  13  -3   14.99    8.80
  10  13   3    1.12    4.66
  10  13  -3   11.42    4.84
  10 -13  -3   19.81   10.08
  10 -13   3   27.64   11.18
 -10  13  -4   19.88   11.89
 -10  13   4    8.16    4.30
  10  13   4   14.35    7.55
  10  13  -4   16.15    5.85
  10 -13  -4   17.16    6.34
  10 -13   4   13.86    6.81
 -10  13  -5   10.74    8.87
 -10  13   5   14.12    7.44
  10  13  -5   -0.92    5.75
  10  13   5    9.20    5.61
  10  13  -5   12.91    3.79
  10 -13  -5   15.57    5.39
  10 -13   5   10.18    4.81
 -10  13  -6   20.57    7.00
 -10  13   6   16.81    5.00
  10  13  -6    6.34    5.68
  10  13   6   14.54    7.03
  10  13  -6   12.14    5.01
  10 -13  -6    8.26    7.99
  10 -13   6   14.37    7.97
 -10  13  -7   10.43    4.28
 -10  13   7   12.83    4.83
  10  13  -7    1.66    2.91
  10  13   7    5.87    5.64
  10  13  -7   12.85    5.44
  10 -13  -7   27.59   11.67
  10 -13   7   10.23    6.40
 -10  13  -8   13.25    6.44
 -10  13   8    8.97    5.07
  10  13  -8    4.91    6.40
  10  13   8    8.83    7.19
  10  13  -8    9.36    4.43
  10 -13  -8    6.77    4.01
  10 -13   8    5.68    3.94
 -10 -13  -8   11.15    5.80
 -10  14   0   46.24   20.04
  10  14   0   38.75   16.90
  10  14   0   33.94   14.57
  10 -14   0   38.51   16.14
 -10  14  -1   -0.29    6.45
 -10  14   1   18.04    9.10
  10  14  -1   13.06    7.50
  10  14   1    9.56    5.18
  10  14  -1   14.60    7.04
  10 -14  -1   19.16    8.75
  10 -14   1   14.99    5.73
 -10  14  -2   19.22    9.52
 -10  14   2    4.05    5.33
  10  14  -2    7.85    3.94
  10  14   2   18.26    9.21
  10  14  -2    6.73    3.41
  10 -14  -2   -0.12    8.43
  10 -14   2   10.85    4.57
 -10  14  -3   33.19   10.92
  10  14  -3   12.39    7.28
  10  14   3   33.46   14.42
  10  14  -3   11.95    4.09
  10 -14  -3   20.47    8.75
  10 -14   3    4.30    9.19
 -10  14  -4   51.38   16.99
 -10  14   4   39.49   14.25
  10  14   4   11.85    8.32
  10  14  -4   28.22   13.96
  10 -14  -4   24.64   11.96
  10 -14   4   19.35   11.65
 -10  14  -5   22.26    8.54
 -10  14   5   37.11    8.50
  10  14  -5   30.16    9.87
  10  14   5   34.38   11.75
  10  14  -5   23.10   10.86
  10 -14  -5    0.19    5.90
  10 -14   5   31.92   13.94
 -10  14  -6    8.98    3.57
 -10  14   6    8.71    3.79
  10  14  -6    9.00    4.52
  10  14   6    8.73    5.62
  10  14  -6   12.30    5.17
  10 -14  -6   12.64   11.24
  10 -14   6    8.75    5.18
 -10  15   0   11.79    7.37
  10  15   0   -1.68    7.12
  10 -15   0    3.73    3.90
 -10  15  -1   12.63    6.91
 -10  15   1    5.21    4.71
  10  15  -1    6.12    8.23
  10  15   1   28.43    8.57
  10 -15  -1   10.51    6.31
  10 -15   1   28.21   14.76
  11   0   0    8.01    8.70
  11   0   0    9.46    5.79
  11   0   1   17.83    7.41
  11   0  -1   36.63    9.58
  11   0  -1   23.99    9.17
  11   0   1   19.78    7.73
  11   0   2  304.98   59.40
  11   0  -2  300.87   19.52
  11   0   2  321.65   11.45
  11   0  -3   24.83    6.22
  11   0   3   28.96    8.96
  11   0   3   22.18    5.54
  11   0  -3   26.28    7.38
  11   0  -4   -2.99    6.64
  11   0   4    2.12    5.88
  11   0   4   -1.10    3.03
  11   0  -4   13.53    7.45
  11   0  -5   12.43    4.38
  11   0   5   18.59    7.17
  11   0   5    8.83    4.83
  11   0  -5   10.36    4.95
 -11   0  -5    8.29    2.82
  11   0  -6    8.72    3.58
  11   0   6   19.70    9.92
  11   0   6    2.75    1.24
  11   0  -6    2.79    3.91
 -11   0  -6    3.04    3.82
  11   0  -7   24.10    7.03
  11   0   7   19.85    6.20
  11   0  -7   21.64    8.27
 -11   0  -7   21.31    6.36
  11   0  -8    2.13    4.13
  11   0   8   16.95    8.35
  11   0  -8   -0.23    7.26
 -11   0  -8    3.67    2.31
  11   0  -9   20.24    5.45
  11   0   9   23.37    9.57
  11   0  -9   29.61    6.38
 -11   0  -9   22.42    6.93
  11   0 -10   33.11    9.04
  11   0  10   25.62    9.19
  11   0 -10   19.03    8.66
 -11   0 -10   24.00    9.23
  11   0  11   46.47   11.89
  11   0 -11   58.11   16.11
 -11   0 -11   46.65   14.14
  11   0  12   30.56   13.10
  11   0 -12   -1.08    7.12
 -11   0 -12   -0.10    3.81
  11   0  13   -1.58    7.18
  11   0 -13   -3.87    7.35
 -11   0 -13   11.35    6.16
  11   0  14   96.90   36.01
  11   0 -14  106.81   38.30
 -11   0 -14  116.35   24.10
  11   0  15   38.85   11.72
  11   0 -15   16.38    8.65
 -11   0 -15   19.40    8.71
  11   0  16    9.36    4.91
  11   0 -16   10.20    5.76
 -11   0 -16   -2.47    3.70
  11   1   0   18.17    6.11
  11  -1   0   21.25    7.52
  11   1   0   13.76    4.87
  11  -1   0    8.86    4.72
  11   1  -1  229.31   48.58
  11   1   1  215.11   58.02
  11  -1  -1  187.46   48.30
  11  -1   1  200.46   42.05
  11   1   1  188.69   26.35
  11   1  -1  196.07   29.66
  11  -1  -1  208.60   26.72
  11  -1   1  164.13   29.93
  11   1   2  229.47   31.79
  11  -1   2  267.66   43.01
  11   1   2  245.46   10.52
  11   1  -2  269.46   25.98
  11  -1  -2  229.90   40.37
  11  -1   2  245.13   10.79
  11   1  -3   19.61    8.42
  11   1   3   22.42   15.81
  11  -1  -3   22.35   10.39
  11  -1   3   23.43    6.64
  11   1   3   17.36    5.27
  11   1  -3   40.42    6.80
  11  -1  -3    3.64    6.77
  11  -1   3   20.67    6.49
  11   1  -4    3.01    3.48
  11   1   4    9.37    7.42
  11  -1  -4    5.67    5.74
  11  -1   4   13.61    7.43
  11   1   4    5.35    2.88
  11   1  -4   15.47    6.21
  11  -1  -4   12.85    5.26
  11  -1   4    4.89    2.59
  11   1  -5   56.02   10.08
  11   1   5   77.39   19.74
  11  -1  -5   44.77   12.89
  11  -1   5   83.60   21.26
  11   1   5   53.54    3.82
  11   1  -5   69.83   13.35
  11  -1  -5   87.14   18.03
  11  -1   5   64.82    9.65
 -11   1  -5   61.76   13.12
  11   1  -6   75.41   19.16
  11   1   6   81.69   19.58
  11  -1  -6   61.03   16.33
  11  -1   6   80.99   16.86
  11   1   6   62.26    9.42
  11   1  -6   94.06   19.54
  11  -1  -6   57.46   10.61
  11  -1   6   80.85    8.88
 -11   1  -6   63.32   13.02
 -11  -1  -6   73.90   14.19
  11   1  -7   85.65   20.52
  11   1   7  106.96   23.23
  11  -1  -7   75.79   22.60
  11  -1   7  104.51   27.72
  11   1  -7   89.02   23.29
  11  -1   7   67.82    9.80
  11  -1  -7  102.30   32.15
 -11   1  -7   80.29   17.51
 -11  -1  -7   75.13   13.65
  11   1  -8   12.94    6.10
  11   1   8   25.89    6.10
  11  -1  -8   13.19    6.27
  11  -1   8   27.83   12.09
  11   1  -8   15.37    5.35
  11  -1  -8   21.73   13.72
 -11   1  -8   16.55    4.12
 -11  -1  -8    7.86    4.50
  11   1  -9    6.27    3.17
  11   1   9   11.48    4.53
  11  -1  -9    2.08    4.73
  11  -1   9   16.29    6.78
  11   1  -9   16.80    7.69
  11  -1  -9   -1.31    7.07
 -11   1  -9    5.50    2.94
 -11  -1  -9   10.33    5.01
  11   1 -10   58.93   20.33
  11   1  10   86.10   22.40
  11  -1 -10   57.68   19.06
  11  -1  10   96.65   23.33
  11   1 -10   97.70   41.08
  11  -1 -10   95.61   19.24
 -11   1 -10   65.57   22.33
 -11  -1 -10   84.31   28.75
  11   1  11   56.23   13.84
  11  -1  11   30.19    8.15
  11   1 -11   33.46   12.71
  11  -1 -11   29.44   11.66
 -11   1 -11   31.57   13.14
 -11  -1 -11   26.46    9.13
  11   1  12   31.06   10.11
  11  -1  12   30.79    9.84
  11   1 -12   20.75    6.70
  11  -1 -12   21.55   11.84
 -11   1 -12   18.30    4.98
 -11  -1 -12   19.13    7.64
  11   1  13   32.46   16.33
  11  -1  13   37.76   10.48
  11   1 -13   48.27   16.27
  11  -1 -13   36.36   10.23
 -11   1 -13   29.28   12.82
 -11  -1 -13   29.15    9.66
  11   1  14    8.55    6.25
  11  -1  14    8.91    6.12
  11   1 -14   13.29    5.46
  11  -1 -14   14.94    3.97
 -11   1 -14    3.54    3.81
 -11  -1 -14    3.40    3.45
  11   1  15   23.12    8.93
  11  -1  15   13.85    8.32
  11   1 -15   17.41    8.25
  11  -1 -15   16.15    4.34
 -11   1 -15    8.82    4.12
 -11  -1 -15   11.04    5.03
  11   1  16   14.66   11.71
  11  -1  16    4.59    3.59
  11   1 -16   11.27    7.12
  11  -1 -16   14.94    4.64
 -11  -1 -16    7.08    3.46
  11   2   0    3.36    6.38
  11  -2   0   -4.38    9.28
  11   2   0    6.50    4.74
  11  -2   0    0.55    3.70
  11   2  -1    4.55    7.45
  11   2   1   10.47    6.42
  11  -2   1    7.59    8.00
  11  -2  -1   21.26    8.28
  11   2   1    1.86    4.92
  11   2  -1    3.06    3.33
  11  -2  -1    5.98    4.42
  11  -2   1    5.38    5.85
  11   2   2   22.20   10.98
  11  -2   2    6.04    6.26
  11   2   2    5.17    3.21
  11   2  -2    4.28    4.59
  11  -2  -2   11.96    5.43
  11  -2   2    6.92    3.33
  11   2  -3  160.22   46.26
  11   2   3  202.26   39.22
  11  -2  -3  204.21   39.46
  11  -2   3  199.05   30.74
  11   2   3  196.66   20.97
  11   2  -3  178.91   22.00
  11  -2  -3  218.98   35.38
  11  -2   3  159.84   16.01
  11   2  -4  222.32   11.83
  11   2   4  238.22   35.93
  11  -2   4  297.12   51.01
  11  -2  -4  204.85   12.62
  11   2   4  214.32    7.06
  11   2  -4  249.27   13.13
  11  -2  -4  201.77   13.92
  11  -2   4  221.55   26.99
 -11   2  -4  209.50   22.37
  11   2  -5    2.20    2.31
  11   2   5   22.29   10.58
  11  -2  -5    9.81    5.07
  11  -2   5   17.16    6.11
  11   2   5    3.84    2.10
  11   2  -5   -4.20    6.38
  11  -2  -5    7.79    3.95
  11  -2   5    4.67    1.92
 -11   2  -5    2.19    2.58
  11   2  -6   34.10    8.33
  11   2   6   22.57    5.69
  11  -2  -6   20.75   12.26
  11  -2   6   31.96   14.44
  11   2   6   15.34    4.53
  11   2  -6   31.16    9.78
  11  -2  -6   29.42    9.66
  11  -2   6   30.68    8.58
 -11   2  -6   27.48    6.61
 -11  -2  -6   19.13    9.81
  11   2  -7    8.17    4.51
  11   2   7   -2.24    9.50
  11  -2  -7    0.62    4.30
  11  -2   7   -2.42    8.01
  11   2  -7    2.10    4.18
  11  -2  -7   13.40    5.87
  11  -2   7   -0.45    2.05
 -11   2  -7    2.68    2.46
 -11  -2  -7    3.23    3.52
  11   2  -8  225.47   11.20
  11   2   8  233.28   43.09
  11  -2  -8  244.87   11.20
  11  -2   8  241.75   25.44
  11   2  -8  244.98   44.70
  11  -2  -8  266.21   53.48
 -11   2  -8  252.24    8.81
 -11  -2  -8  263.31   11.80
  11   2  -9  125.28   24.34
  11   2   9  125.73   34.46
  11  -2  -9  107.89   27.81
  11  -2   9  138.67   28.35
  11   2  -9  137.38   20.48
  11  -2  -9  114.66   31.65
 -11   2  -9  100.37   23.08
 -11  -2  -9  122.73   29.42
  11   2 -10    9.86    3.63
  11   2  10   12.34    6.62
  11  -2 -10    6.41    2.58
  11  -2  10   13.83    7.48
  11   2 -10   -0.73    7.08
  11  -2 -10    4.30    5.18
 -11   2 -10    3.58    3.08
 -11  -2 -10    7.43    5.45
  11   2  11   37.79    8.65
  11  -2 -11   15.20    5.01
  11  -2  11   16.89    5.59
  11   2 -11   25.01    4.14
  11  -2 -11   42.86   12.12
 -11   2 -11   16.22    7.08
 -11  -2 -11   20.08    7.07
  11   2  12   23.22   11.67
  11  -2  12   23.97   10.27
  11   2 -12   11.22    7.19
  11  -2 -12    8.76    5.85
 -11   2 -12    4.77    2.81
 -11  -2 -12    4.49    1.78
  11   2  13    0.87    6.60
  11  -2  13    6.89    7.50
  11   2 -13    7.47    5.34
  11  -2 -13   10.18    7.95
 -11   2 -13    4.82    3.98
 -11  -2 -13    5.99    4.86
  11   2  14   -1.39    6.61
  11  -2  14    6.63    3.01
  11   2 -14    3.87    6.00
  11  -2 -14    8.37    3.82
 -11  -2 -14    4.13    3.87
  11   2  15   11.95    6.32
  11  -2  15   16.30    7.30
  11   2 -15    8.58    4.23
  11  -2 -15    5.67    4.83
 -11  -2 -15   12.94    7.74
  11   3   0  181.64   41.95
  11  -3   0  184.10   30.66
  11   3   0  166.13   12.01
  11  -3   0  181.49   31.83
  11   3  -1   44.92    8.10
  11   3   1   48.75   16.43
  11  -3   1   64.63   16.54
  11  -3  -1   36.56    8.50
  11   3   1   40.78   13.62
  11   3  -1   53.33   16.51
  11  -3  -1   50.25    8.06
  11  -3   1   47.75   14.74
  11   3   2    8.85    5.06
  11  -3   2   12.14    7.00
  11   3   2   15.67    5.41
  11   3  -2   24.98    5.47
  11  -3  -2   31.66    7.49
  11  -3   2   10.16    6.49
  11   3  -3   69.12   15.10
  11   3   3   70.43   21.87
  11  -3   3   45.35   12.49
  11  -3  -3   72.85   24.36
  11   3   3   56.33   16.40
  11   3  -3   70.99   23.54
  11  -3  -3   69.47   19.31
  11  -3   3   59.66   13.19
 -11   3  -3   56.99   10.06
  11   3  -4  140.86   29.60
  11   3   4  167.93   42.41
  11  -3   4  175.58   44.20
  11  -3  -4  135.26   30.91
  11   3   4  152.75    6.33
  11   3  -4  175.96   31.37
  11  -3  -4  171.99   20.48
  11  -3   4  138.08   24.04
 -11   3  -4  145.57   13.12
  11   3  -5   62.48   18.51
  11   3   5   39.38   15.00
  11  -3  -5   67.71   18.80
  11  -3   5   66.67   17.94
  11   3   5   51.34    6.09
  11   3  -5   52.05   15.65
  11  -3  -5   61.33   16.07
  11  -3   5   54.04   16.47
 -11   3  -5   45.63   11.64
  11   3  -6   11.49    5.56
  11   3   6   16.70    8.55
  11  -3  -6   11.72    5.58
  11  -3   6   26.58    9.62
  11   3  -6   12.74    5.09
  11  -3  -6    9.28    5.18
  11  -3   6   13.74    4.25
 -11   3  -6   11.09    3.26
  11   3  -7   18.31    7.80
  11   3   7    9.83    6.66
  11  -3  -7   28.72    7.18
  11  -3   7    2.68    4.03
  11   3  -7    5.40    4.58
  11  -3  -7   13.04    6.74
  11  -3   7    6.66    2.88
 -11   3  -7    8.90    4.51
 -11  -3  -7   11.17    6.68
  11   3  -8   88.08   21.09
  11   3   8   87.47   19.34
  11  -3  -8   90.66   18.37
  11  -3   8   98.30   16.60
  11   3  -8   91.00   18.37
  11  -3  -8   98.01   22.69
 -11   3  -8  107.20    8.43
 -11  -3  -8   92.73   19.67
  11   3  -9   57.24   14.12
  11   3   9   65.24   16.71
  11  -3  -9   47.38   16.96
  11  -3   9   90.06   15.80
  11   3  -9   93.52   20.13
  11  -3  -9   69.80   17.72
 -11   3  -9   66.96   11.31
 -11  -3  -9   88.57   17.23
  11   3 -10    6.14    3.84
  11   3  10   11.91   10.55
  11  -3 -10   14.33    4.25
  11  -3  10   -0.75    7.16
  11   3 -10   41.38   13.13
  11  -3 -10   28.00   11.04
 -11  -3 -10   11.93    5.30
  11   3  11   42.23   12.60
  11  -3 -11   16.36    5.75
  11  -3  11   36.97   10.17
  11   3 -11   25.07    9.82
  11  -3 -11   22.62   12.64
 -11  -3 -11   26.53    9.04
  11   3  12   92.59   36.08
  11  -3  12  108.50   31.49
  11   3 -12   85.58   28.05
  11  -3 -12   83.40   23.11
 -11  -3 -12   83.02   28.63
  11   3  13   25.54    9.59
  11  -3  13   14.99    7.06
  11   3 -13    8.82    4.07
  11  -3 -13   24.91    9.31
 -11  -3 -13    9.53    6.76
  11   3  14   17.84    7.91
  11  -3  14   14.11    4.86
  11   3 -14    9.56    6.07
  11  -3 -14    3.57    6.25
 -11  -3 -14    7.79    7.47
  11   3  15    7.72    4.55
  11  -3  15    6.00    4.24
  11   3 -15   13.35    7.33
  11  -3 -15   19.15    6.78
 -11  -3 -15   20.12    7.36
  11   4   0   67.87   12.77
  11  -4   0   46.13   11.12
  11   4   0   42.92   10.89
  11  -4   0   79.67   12.45
  11   4  -1  155.92   31.36
  11   4   1  182.31   43.62
  11  -4  -1  197.08   40.39
  11  -4   1  172.32   31.70
  11   4   1  195.26   21.31
  11   4  -1  168.16   15.95
  11  -4  -1  159.02   17.29
  11  -4   1  184.80   15.65
  11   4   2  104.81   26.42
  11  -4   2  114.26   32.74
  11  -4  -2   53.92   14.98
  11   4   2  130.81   12.30
  11   4  -2  135.28   16.08
  11  -4  -2  121.51   16.85
  11  -4   2  123.35   26.28
 -11   4  -2  107.78    3.67
  11   4  -3  255.58   14.44
  11   4   3  258.62   49.57
  11  -4   3  235.61   28.33
  11   4   3  244.76    9.51
  11   4  -3  246.21   29.33
  11  -4  -3  239.04   48.93
  11  -4   3  201.75   40.47
 -11   4  -3  225.76    4.65
  11   4  -4    5.47    5.68
  11   4   4    8.28    5.28
  11  -4   4    5.89    4.90
  11  -4  -4    5.98    4.14
  11   4   4    3.94    2.03
  11   4  -4   10.61    5.09
  11  -4  -4    3.98    4.17
  11  -4   4   14.56    6.89
 -11   4  -4    0.97    0.72
  11   4  -5   85.78   16.20
  11   4   5   93.87   27.23
  11  -4   5   83.85   17.81
  11  -4  -5   80.79   22.03
  11   4   5   60.96    6.91
  11   4  -5   78.00   14.25
  11  -4  -5   81.73   18.36
  11  -4   5   71.48   21.22
  11   4  -6   27.74    8.41
  11   4   6   19.12   13.11
  11  -4   6   14.25    7.56
  11  -4  -6   37.80   13.37
  11   4  -6   34.57    8.11
  11  -4  -6   31.26    7.73
  11  -4   6   26.05    6.03
  11   4  -7   -0.36    5.00
  11   4   7    8.00    5.98
  11  -4   7   27.98   11.84
  11  -4  -7   -1.49    4.37
  11   4  -7   10.37    7.09
  11  -4  -7   -2.35    8.15
  11  -4   7    1.17    1.28
 -11  -4  -7    5.31    3.59
  11   4  -8    9.79    3.42
  11   4   8   12.01    5.10
  11  -4   8   18.84    7.86
  11  -4  -8   10.66    3.47
  11  -4  -8   13.60    8.40
  11  -4   8   10.63    4.44
 -11  -4  -8   20.13    6.77
  11   4  -9   76.50   23.76
  11   4   9  106.68   36.64
  11  -4  -9   77.46   26.07
  11  -4   9  131.52   27.71
  11   4  -9   94.01   27.78
  11  -4  -9  114.29   29.75
 -11  -4  -9   82.66   27.73
  11   4 -10   47.47   21.19
  11   4  10   75.05   25.69
  11  -4 -10   56.12   24.48
  11  -4  10   88.20   21.68
  11   4 -10   75.61   15.35
  11  -4 -10   61.29   20.58
 -11  -4 -10   80.99   24.55
  11   4  11   44.22   18.72
  11  -4 -11   30.22    9.73
  11  -4  11   41.47   12.98
  11   4 -11   42.97   15.90
  11  -4 -11   46.80   19.01
 -11  -4 -11   47.19   11.57
  11   4  12   51.17   13.95
  11  -4  12   40.03   13.90
  11   4 -12   34.42   16.02
  11  -4 -12   50.07   13.20
 -11  -4 -12   34.88   16.78
  11   4  13   96.82   33.23
  11  -4  13   61.34   22.39
  11   4 -13  115.01   27.42
  11  -4 -13   63.57   18.66
 -11  -4 -13   75.29   22.78
  11   4  14   17.16    5.16
  11  -4  14   21.31    8.72
  11   4 -14   24.09   12.18
  11  -4 -14   22.45   10.04
 -11  -4 -14   21.65    5.57
  11  -4  15   30.35   22.12
  11   4 -15   50.05   12.18
  11  -4 -15   44.90   19.03
 -11  -4 -15   38.27   19.02
  11   5   0   58.07   10.97
  11  -5   0   46.94   11.76
  11   5   0   58.58   15.70
  11  -5   0   43.46   10.15
  11   5  -1   39.51   10.39
  11   5   1   62.01   15.01
  11  -5   1   54.64   13.44
  11  -5  -1   65.55   12.20
  11   5   1   48.61    8.69
  11   5  -1   44.60   10.91
  11  -5  -1   49.34   11.43
  11  -5   1   63.66   13.07
  11   5   2   57.98   15.43
  11  -5   2   53.18   11.49
  11  -5  -2   50.29   11.24
  11   5   2   37.03   13.37
  11   5  -2   39.64    7.76
  11  -5  -2   57.03   11.40
  11  -5   2   45.57    8.51
  11   5  -3   50.33   11.33
  11   5   3   48.24   10.62
  11  -5   3   59.98   14.84
  11   5   3   45.99   10.81
  11   5  -3   44.37    9.52
  11  -5  -3   64.61   18.67
  11  -5   3   61.85   20.27
  11   5  -4   39.65    9.72
  11   5   4   37.53   10.69
  11  -5   4   36.48   10.09
  11  -5  -4   37.87    8.29
  11   5   4   29.93    9.88
  11   5  -4   40.58    7.36
  11  -5  -4   37.21   11.54
  11  -5   4   33.82    9.77
  11   5  -5    5.83    4.32
  11   5   5    5.92    8.12
  11  -5   5    4.96    7.16
  11  -5  -5    6.39    5.65
  11   5   5    7.49    2.37
  11   5  -5   12.38    5.92
  11  -5  -5   11.89    6.33
  11  -5   5    3.88    1.98
  11   5  -6   92.94   19.70
  11   5   6  110.83   26.01
  11  -5   6  128.32   30.23
  11  -5  -6   81.68   25.69
  11   5  -6  103.71   36.20
  11  -5  -6  100.15   13.39
  11  -5   6   69.57   22.53
  11   5  -7   29.20   11.18
  11   5   7   17.99    7.17
  11  -5   7   16.80    7.16
  11  -5  -7   16.45    4.37
  11   5  -7   29.55    8.33
  11  -5  -7    9.23    8.45
  11  -5   7   30.20   10.68
  11   5  -8   10.54    4.69
  11   5   8   14.99    9.54
  11  -5   8   15.73    5.08
  11  -5  -8    9.37    5.36
  11   5  -8   28.11   10.32
  11  -5  -8    4.47    6.74
  11  -5   8   10.52    5.27
 -11  -5  -8   14.83    4.79
  11   5  -9   52.43   10.70
  11   5   9   53.26   16.20
  11  -5   9   65.74   15.77
  11  -5  -9   34.97   10.91
  11   5  -9   52.91   20.31
  11  -5  -9   71.73   14.06
 -11  -5  -9   48.43   13.11
  11   5  10   79.53   22.48
  11  -5  10   73.82   26.35
  11  -5 -10   48.36   19.13
  11   5 -10   66.73   21.89
  11  -5 -10   65.19   22.52
 -11  -5 -10   58.95   20.30
  11   5  11   13.42    6.77
  11  -5 -11    3.31    2.73
  11  -5  11   18.53    7.24
  11   5 -11   18.57    6.26
  11  -5 -11   30.19   11.52
 -11  -5 -11   20.20    5.85
  11   5  12   36.13    9.99
  11  -5  12   39.22   13.75
  11   5 -12   42.99   12.15
  11  -5 -12    9.99   10.40
 -11  -5 -12   23.40   11.76
  11   5  13    6.19    5.76
  11  -5  13    5.82    4.50
  11   5 -13   11.08    6.24
  11  -5 -13   14.00    9.12
 -11  -5 -13   12.73    4.23
  11   5  14   12.07    5.28
  11  -5  14   11.14    7.32
  11   5 -14    8.60    9.95
  11  -5 -14   10.42    6.90
 -11  -5 -14    8.64    7.37
  11   5  15   16.18    7.87
  11  -5  15   11.82    4.75
  11   5 -15    5.06    5.00
  11  -5 -15   23.58   10.17
 -11  -5 -15    9.63    5.39
  11   6   0    4.50    4.62
  11  -6   0    8.25    4.01
  11   6   0    9.02    4.07
  11  -6   0   -1.04    6.62
  11   6  -1    7.45    7.65
  11  -6   1    6.27    5.41
  11  -6  -1    7.76    3.38
  11   6   1    1.76    2.81
  11   6  -1    8.17    4.26
  11  -6  -1   -5.53    6.96
  11  -6   1    3.02    3.06
  11   6   2   19.49   10.69
  11  -6   2   13.63    6.70
  11  -6  -2   12.52    6.91
  11   6   2   18.09    4.94
  11   6  -2   14.44    4.49
  11  -6  -2   12.04    4.25
  11  -6   2   19.95    9.11
  11   6  -3   21.01    6.37
  11   6   3   33.53    9.09
  11  -6   3   38.43   11.60
  11   6   3   26.49    8.70
  11   6  -3   42.39   11.25
  11  -6  -3   41.18    8.70
  11  -6   3   36.67   15.02
  11   6  -4   15.26    6.30
  11   6   4    9.84    5.26
  11  -6   4   25.55    8.93
  11  -6  -4   11.58    5.54
  11   6   4    4.75    1.82
  11   6  -4   15.23    5.05
  11  -6  -4   24.89    8.62
  11  -6   4    9.38    5.86
  11   6  -5  109.97   30.68
  11   6   5  105.27   14.22
  11  -6   5  118.13   33.22
  11  -6  -5  102.16   35.86
  11   6  -5  100.02   21.98
  11  -6  -5  117.40   32.45
  11  -6   5   84.66   26.07
  11   6  -6   24.27    7.00
  11   6   6   37.44   14.22
  11  -6   6   25.43    7.91
  11  -6  -6   23.92    7.22
  11   6  -6   37.83    9.96
  11  -6  -6   30.87   11.60
  11  -6   6   28.86    8.28
  11   6  -7  263.61   13.15
  11   6   7  247.37   29.70
  11  -6   7  274.65   57.78
  11  -6  -7  239.72   12.19
  11   6  -7  264.21   44.20
  11  -6  -7  231.31   52.34
  11  -6   7  265.65   14.45
  11   6  -8    5.90    4.63
  11   6   8    3.77    3.49
  11  -6   8    5.10    4.89
  11  -6  -8   10.46    5.35
  11   6  -8    6.74    4.95
  11  -6  -8    4.80    4.22
  11  -6   8    3.34    2.29
  11   6  -9   34.68    7.70
  11   6   9   20.84    6.40
  11  -6   9   36.97   13.47
  11  -6  -9   36.40   10.90
  11   6  -9   39.84   11.60
  11  -6  -9   30.09    8.09
 -11  -6  -9   21.21    7.19
  11   6 -10   24.98    7.60
  11   6  10   22.56   11.25
  11  -6  10   53.24   17.01
  11  -6 -10   24.67    8.13
  11   6 -10   26.58    9.09
  11  -6 -10   35.17   14.36
 -11  -6 -10   28.39    7.68
  11   6  11   15.97    6.18
  11  -6  11   13.88    6.10
  11  -6 -11    4.51    6.12
  11   6 -11    6.24    7.47
  11  -6 -11   14.47    7.41
 -11  -6 -11    7.23    4.39
  11   6  12    3.51    7.16
  11  -6  12    6.94    6.14
  11   6 -12   -2.75    5.90
  11  -6 -12    8.81    5.39
 -11  -6 -12   10.60    4.32
  11   6  13   14.22    5.07
  11  -6  13    9.63    5.09
  11   6 -13   11.90    5.55
  11  -6 -13    8.95    8.33
 -11  -6 -13   -1.77    5.54
  11   6  14    7.15    5.96
  11  -6  14    7.18    6.82
  11   6 -14   11.57    6.27
  11  -6 -14   11.97    5.68
  11   7   0   66.17   17.62
  11  -7   0   69.16   14.40
  11   7   0   63.90   19.08
  11  -7   0   67.78   17.55
  11   7  -1   73.10   20.14
  11   7   1   70.38   17.67
  11  -7   1   97.57   24.05
  11  -7  -1   54.83   15.71
  11   7  -1   74.55   16.80
  11  -7  -1   62.20   12.64
  11  -7   1  101.29   17.84
  11   7  -2   33.87    8.76
  11   7   2   56.76   13.12
  11  -7   2   56.49   14.35
  11  -7  -2   33.10    9.50
  11   7   2   31.78   11.44
  11   7  -2   35.25   10.88
  11  -7  -2   37.62    9.52
  11  -7   2   32.18    9.13
  11   7   3  108.08   27.68
  11  -7   3  108.04   29.63
  11   7   3  109.15   14.05
  11   7  -3  124.17   13.75
  11  -7  -3  125.10   27.05
  11  -7   3   86.52   31.82
  11   7  -4    6.07    5.50
  11   7   4    2.61    3.08
  11  -7   4    8.72    5.68
  11  -7  -4   11.19    5.22
  11   7   4    3.08    2.26
  11   7  -4    4.12    3.20
  11  -7  -4   17.14    7.26
  11  -7   4   17.36    8.14
  11   7  -5   18.14    6.67
  11   7   5   10.16    5.49
  11  -7   5   18.09    8.20
  11  -7  -5   -0.89    5.94
  11   7  -5    5.37    2.28
  11  -7  -5    3.74    7.84
  11  -7   5   10.19    4.20
  11   7  -6   58.71   21.49
  11   7   6   91.69   16.19
  11  -7   6   58.36   17.59
  11  -7  -6   67.20   21.06
  11   7  -6   73.23   17.45
  11  -7  -6   57.17   18.39
  11  -7   6   65.00   15.78
  11   7  -7    8.19    3.74
  11   7   7   29.99    9.51
  11  -7   7   14.80    9.50
  11   7  -7   15.74    5.47
  11  -7  -7   29.58    9.95
  11  -7   7   16.78    5.88
  11   7  -8   13.20    6.07
  11   7   8   13.17    9.51
  11  -7   8   24.94    7.38
  11  -7  -8    7.74    4.49
  11   7  -8   21.68    8.11
  11  -7  -8   34.07    6.96
  11  -7   8   20.89    8.12
  11   7  -9   11.62    6.14
  11   7   9   27.84    6.19
  11  -7   9   36.85    7.99
  11  -7  -9   24.54    9.31
  11   7  -9   23.84    6.28
  11  -7  -9   17.19    9.00
  11  -7   9   11.36    2.63
  11   7 -10   21.26    8.16
  11   7  10   25.90    8.80
  11  -7  10   33.12   14.90
  11  -7 -10   17.82    9.74
  11   7 -10   34.32    8.04
  11  -7 -10   16.12    9.37
  11   7  11   16.91   15.36
  11  -7  11   15.77    5.72
  11  -7 -11    8.36    3.40
  11   7 -11   12.72    6.65
  11  -7 -11   15.61    6.89
  11   7  12   12.69    7.11
  11  -7  12   10.37    4.28
  11   7 -12    9.91    5.32
  11  -7 -12   11.71    7.07
  11   7  13    7.15    5.25
  11  -7  13   13.26    9.75
  11   7 -13   32.88    8.54
  11  -7 -13   12.72    7.48
  11   8   0  124.05   18.26
  11  -8   0   94.92   30.10
  11   8   0   94.44   27.78
  11  -8   0   84.24   15.52
  11   8  -1   67.99   15.11
  11   8   1   76.65   16.18
  11  -8   1   77.23   19.79
  11  -8  -1   67.03   16.27
  11   8   1   78.56   18.82
  11   8  -1   59.44   19.92
  11  -8  -1   77.12   22.08
  11  -8   1   77.40   20.29
  11   8  -2   27.20    6.99
  11   8   2   31.26   10.95
  11  -8   2   15.40    8.64
  11  -8  -2   34.52   11.60
  11   8   2   30.18    5.70
  11   8  -2   27.09    8.18
  11  -8  -2   33.88    9.26
  11  -8   2   18.75    7.12
  11   8   3   47.32   11.07
  11  -8   3   47.64   14.42
  11  -8  -3   29.20   11.86
  11   8  -3   68.26   18.56
  11  -8  -3   45.28   21.56
  11  -8   3   64.62   21.34
  11   8  -4   33.64   11.56
  11   8   4   26.50   12.29
  11  -8   4   38.81   12.33
  11   8   4   20.79    7.41
  11   8  -4   30.83   10.49
  11  -8  -4   34.38   12.87
  11  -8   4   22.35   10.08
  11   8  -5    1.00    2.10
  11   8   5    4.92    5.13
  11  -8   5    6.03    6.22
  11  -8  -5    8.42    6.32
  11   8  -5    2.19    2.29
  11  -8  -5   12.12    7.65
  11  -8   5    5.14    3.32
  11   8  -6   15.11    6.08
  11   8   6   26.15    9.12
  11  -8   6   11.36    5.81
  11  -8  -6   12.66    7.92
  11   8  -6    6.38    3.62
  11  -8  -6    9.36    6.37
  11  -8   6   10.76    4.04
  11   8  -7   10.65    4.17
  11   8   7   13.16    5.59
  11  -8   7   -5.23    7.39
  11  -8  -7    3.29    4.06
  11   8  -7    2.35    3.17
  11  -8  -7   21.53    7.19
  11  -8   7    9.64    5.40
  11   8  -8    8.64    4.83
  11   8   8   -0.15    3.80
  11  -8   8    4.18    2.71
  11  -8  -8    2.77    2.86
  11   8  -8    4.16    3.88
  11  -8  -8   -0.07    8.07
  11  -8   8    4.80    2.65
 -11  -8  -8    3.09    2.59
  11   8  -9   20.93    7.42
  11   8   9   31.59    9.62
  11  -8   9   30.15   10.86
  11  -8  -9   25.44    9.27
  11   8  -9   25.17    9.82
  11  -8  -9   34.83   11.66
  11  -8   9   22.44    8.26
 -11  -8  -9   26.11    7.13
  11   8 -10    8.86    4.05
  11   8  10   13.56    7.89
  11  -8  10   14.28    8.85
  11  -8 -10    8.39    4.17
  11   8 -10   11.29    4.56
  11  -8 -10   13.74    8.50
 -11  -8 -10    9.73    6.39
  11   8  11   27.88   11.37
  11  -8  11   28.51   15.26
  11  -8 -11   12.99    6.98
  11   8 -11   39.25   11.81
  11  -8 -11   36.34   11.45
 -11  -8 -11   44.70   13.16
  11   8  12   46.03   14.86
  11  -8  12   39.28   13.91
  11   8 -12   39.86    7.42
  11  -8 -12   27.82   12.69
 -11  -8 -12   44.85   12.20
  11   8  13   13.15   13.05
  11  -8  13   40.87   16.38
  11   8 -13   17.06   10.42
  11  -8 -13   30.90   13.94
 -11  -8 -13   28.19    7.35
 -11   9   0   60.44   16.75
  11   9   0   54.05   12.29
  11   9   0   38.00    8.96
  11  -9   0   32.72    6.74
 -11   9  -1   17.08    8.08
 -11   9   1   12.33    6.90
  11   9  -1   23.84    9.92
  11   9   1   14.52    6.25
  11   9   1   10.65    4.07
  11   9  -1    5.23    2.83
  11  -9  -1    7.93    4.87
  11  -9   1   10.23    5.04
 -11   9   2   27.30   11.90
  11   9  -2   14.63    5.70
  11   9   2   33.26   11.88
  11   9   2   15.03    3.77
  11   9  -2   25.34    8.85
  11  -9  -2   27.24    9.48
  11  -9   2   39.10   11.34
 -11   9   3   98.51   27.50
  11   9   3   70.62   17.28
  11  -9   3  108.80   29.44
  11   9   3   72.76   17.53
  11   9  -3   90.65   25.13
  11  -9  -3  101.64   25.26
  11  -9   3   82.70   17.74
 -11   9   4   50.12   18.34
  11   9  -4   42.88   16.25
  11   9   4   43.06   16.62
  11  -9   4   59.84   14.08
  11   9  -4   42.74    9.36
  11  -9  -4   24.84    7.88
  11  -9   4   46.64   20.32
 -11   9   5   50.27    9.44
  11   9  -5   37.56   12.31
  11   9   5   47.02    9.97
  11  -9   5   48.23   16.81
  11   9  -5   47.66   11.42
  11  -9  -5   57.90   11.76
  11  -9   5   36.19   16.20
 -11   9   6    4.87    3.53
  11   9  -6   -0.40    4.65
  11   9   6   12.77    5.93
  11  -9   6    9.58    5.44
  11   9  -6   15.46    6.64
  11  -9  -6   17.12    5.22
  11  -9   6    4.59    2.97
  11   9  -7   27.13   10.55
  11   9   7   30.18    6.88
  11  -9   7   36.73   11.97
  11  -9  -7   16.17    5.04
  11   9  -7   23.05   10.45
  11  -9  -7   17.58    5.27
  11  -9   7   28.75    9.79
  11   9  -8    9.30    4.20
  11   9   8  -10.08    7.79
  11  -9   8   29.73   11.93
  11  -9  -8   10.20    3.68
  11   9  -8    9.44    4.59
  11  -9  -8   10.14    8.11
  11  -9   8    5.68    3.94
 -11  -9  -8    9.42    4.43
  11   9  -9   16.40    7.68
  11   9   9   20.38    7.96
  11  -9   9   30.80   15.18
  11  -9  -9   21.03   11.06
  11   9  -9   36.49   14.59
  11  -9  -9   16.47    7.93
  11  -9   9   21.64   12.16
 -11  -9  -9   25.77    8.61
  11   9 -10    8.62    5.07
  11   9  10    2.11    1.78
  11  -9  10   11.23    5.31
  11  -9 -10    5.81    5.96
  11   9 -10    4.47    3.99
  11  -9 -10    2.27    4.18
 -11  -9 -10    7.28    6.87
  11   9  11   15.90    7.27
  11  -9  11    7.92    3.55
  11  -9 -11    5.93    3.48
  11   9 -11    6.98    4.24
  11  -9 -11   13.22   10.88
 -11  -9 -11   10.21    7.09
  11   9  12   13.09    5.45
  11  -9  12   10.68    7.29
  11   9 -12   13.31    6.65
  11  -9 -12   32.34    9.77
 -11  -9 -12   18.25    5.52
 -11  10   0    6.67    7.54
  11  10   0   10.43    5.78
  11  10   0   11.72    5.19
  11 -10   0   18.45    5.99
 -11  10  -1   33.86    9.73
 -11  10   1   30.56    7.84
  11  10  -1   27.28    7.77
  11  10   1   19.61    4.54
  11  10   1   36.44    9.07
  11  10  -1   20.70    8.39
  11 -10  -1   44.46   12.64
 -11  10  -2    8.31    3.50
 -11  10   2   23.59    5.91
  11  10  -2   18.19    8.03
  11  10   2   18.24   10.50
  11  10   2   11.38    3.06
  11  10  -2   22.55    5.73
  11 -10  -2   10.54    6.55
  11 -10   2   25.25    7.73
 -11  10  -3   15.17    7.74
 -11  10   3   17.19    8.62
  11  10   3   18.25   12.78
  11  10   3   13.64    6.09
  11  10  -3   13.52    5.91
  11 -10  -3   12.82    6.83
  11 -10   3    0.26    6.07
 -11  10  -4  151.91   43.73
 -11  10   4  183.15   32.55
  11  10  -4  145.71   37.85
  11  10   4  203.03   44.28
  11  10  -4  173.69   34.53
  11 -10  -4  141.67   38.42
  11 -10   4  180.54   43.04
 -11  10   5   17.16    6.47
  11  10  -5    9.92    8.56
  11  10   5   15.75    9.36
  11 -10   5   27.66    8.29
  11  10  -5   25.80    7.51
  11 -10  -5   20.09    9.96
  11 -10   5   21.92    5.85
 -11  10   6   38.85   11.37
  11  10  -6   40.65   11.19
  11  10   6   40.33   12.01
  11 -10   6   69.64   19.55
  11  10  -6   46.96   10.69
  11 -10  -6   55.01   23.03
  11 -10   6   38.07   12.75
 -11  10   7   16.50    4.51
  11  10  -7   18.68    7.52
  11  10   7   23.09   13.81
  11 -10   7   19.61   10.11
  11  10  -7   21.92   10.05
  11 -10  -7   17.98   11.05
  11 -10   7   10.44    7.00
 -11  10   8   96.59   25.88
  11  10  -8  103.85   29.87
  11  10   8  114.14   26.17
  11 -10   8  117.85   29.46
  11  10  -8   90.41   28.47
  11 -10  -8  107.22   37.86
  11 -10   8  116.87   17.63
 -11 -10  -8  119.65   36.16
  11  10  -9   28.06   10.11
  11  10   9   37.88   16.86
  11 -10   9   29.02   13.66
  11  10  -9   35.06    9.18
  11 -10  -9   24.93    8.17
  11 -10   9   42.55   14.94
 -11 -10  -9   19.09   10.18
  11  10 -10    3.20    3.94
  11  10  10    4.22    5.54
  11 -10  10   20.87   12.29
  11 -10 -10   10.96    5.61
  11  10 -10    9.76    8.18
  11 -10 -10   10.79    9.57
 -11 -10 -10   18.31    7.45
  11  10  11    6.06    4.86
  11 -10  11   12.85    7.29
  11 -10 -11    5.28    5.03
  11  10 -11    8.78    5.98
  11 -10 -11   16.27   11.10
 -11 -10 -11   15.22    7.72
 -11  11   0   40.14    9.82
  11  11   0   49.26   16.92
  11  11   0   30.74   10.38
  11 -11   0   50.35   19.91
 -11  11  -1   31.19   10.97
 -11  11   1   36.30    9.06
  11  11  -1   39.12   14.13
  11  11   1   38.56    8.16
  11  11   1   28.12   10.47
  11  11  -1   26.23    9.30
  11 -11  -1   56.97   14.91
  11 -11   1   47.68   10.78
 -11  11  -2   29.32   11.00
 -11  11   2   38.13   11.25
  11  11  -2   32.28   11.82
  11  11   2   23.54    6.87
  11  11   2   26.45    6.39
  11  11  -2   37.60   13.75
  11 -11  -2   29.85   11.83
 -11  11  -3    2.22    6.34
 -11  11   3    9.72    8.47
  11  11   3   -0.24    7.05
  11  11   3    4.05    2.53
  11  11  -3    6.68    2.18
  11 -11  -3    8.88    4.34
  11 -11   3    7.05    7.48
 -11  11  -4    6.05    6.97
 -11  11   4    7.95    7.51
  11  11  -4    4.49    6.69
  11  11   4    8.44    6.92
  11  11  -4    8.14    5.41
  11 -11  -4   17.07    5.66
  11 -11   4    7.75    3.40
 -11  11  -5   26.59    9.00
 -11  11   5   19.76    8.67
  11  11  -5   15.04    8.63
  11  11   5   13.30    9.74
  11  11  -5   11.73    3.77
  11 -11  -5    8.51    6.73
  11 -11   5    5.61    3.11
 -11  11   6    9.99    3.66
  11  11  -6   11.65    5.80
  11  11   6   18.33    8.78
  11 -11   6   20.97    9.46
  11  11  -6   13.50    4.11
  11 -11  -6   35.25   30.84
  11 -11   6   11.36    4.97
  11  11  -7   12.43    5.70
  11  11   7   12.61    8.56
  11 -11   7   13.14    6.50
  11  11  -7   -0.23    4.83
  11 -11  -7    7.05    6.73
  11 -11   7    8.84    6.71
 -11  11   8    5.39    4.58
  11  11  -8    8.40    4.20
  11  11   8   11.31    8.18
  11 -11   8   10.91    6.56
  11  11  -8   16.26    6.29
  11 -11  -8   14.50    6.26
  11 -11   8   10.05    6.17
 -11 -11  -8   14.37    7.12
 -11  11   9    2.86    3.21
  11  11  -9   17.10    9.48
  11  11   9    6.26    5.22
  11 -11   9    5.56    7.93
  11  11  -9    2.82    3.93
  11 -11  -9   -1.89    8.78
  11 -11   9    7.98    4.14
 -11 -11  -9   12.46    5.32
 -11  11  10    6.73    3.66
  11  11  10   10.69    4.72
  11 -11  10   12.77   11.56
  11  11 -10   10.94    5.57
  11 -11 -10   13.29    6.88
 -11 -11 -10   17.60    7.40
 -11  12   0   20.97    9.41
  11  12   0   22.67    9.23
  11  12   0   25.78    6.30
  11 -12   0   26.93    9.08
 -11  12  -1   15.01    9.54
 -11  12   1   23.39    7.31
  11  12  -1   23.66   13.86
  11  12   1   16.69    7.52
  11  12   1   12.08    4.10
  11  12  -1    7.03    3.90
  11 -12  -1   10.68    4.84
  11 -12   1   10.07    5.46
 -11  12  -2   94.10   35.33
 -11  12   2   86.39   29.17
  11  12  -2   88.57   26.95
  11  12   2   88.11   26.83
  11  12   2   84.34   14.96
  11  12  -2   83.39   19.77
  11 -12  -2   91.57   25.95
  11 -12   2   95.00   32.37
 -11  12  -3   13.72    5.86
 -11  12   3    8.79    5.56
  11  12  -3   18.08   10.77
  11  12   3    5.95    4.14
  11  12  -3    2.47    2.15
  11 -12  -3   13.16    8.91
  11 -12   3   11.10    6.18
 -11  12  -4   13.11    4.85
 -11  12   4    8.76    3.77
  11  12   4   11.86    5.42
  11  12  -4   10.16    4.76
  11 -12  -4    6.14    6.99
  11 -12   4    3.66    3.85
 -11  12  -5   18.95    8.67
 -11  12   5   27.15    8.22
  11  12  -5   13.11    4.91
  11  12   5   28.56   15.74
  11  12  -5    9.65    4.94
  11 -12  -5   25.41    9.52
  11 -12   5   13.83    4.82
 -11  12  -6   14.31    8.17
 -11  12   6    3.76    4.69
  11  12  -6   15.50    4.80
  11  12   6   -3.50    7.39
  11  12  -6   14.39    5.64
  11 -12  -6   15.51    6.04
  11 -12   6   17.05    6.79
 -11  12   7    6.93    5.76
  11  12  -7    9.50    7.15
  11  12   7   -1.24    7.44
  11  12  -7   10.49    6.37
  11 -12  -7   15.40    9.50
  11 -12   7    6.96    3.92
 -11  12   8   14.65    7.77
  11  12  -8    3.77    4.92
  11  12   8   10.98    7.09
  11 -12   8   16.86    8.80
  11  12  -8    6.70    3.95
  11 -12  -8   12.11   13.16
  11 -12   8    4.26    4.42
 -11 -12  -8    2.99    5.38
 -11  13   0   25.79   11.78
  11  13   0   27.86    6.28
  11  13   0   11.27    4.71
  11 -13   0   20.47    6.84
 -11  13  -1   29.97   10.62
 -11  13   1   22.14    9.68
  11  13  -1   28.26   13.40
  11  13   1   18.81    4.96
  11  13   1   28.88   11.33
  11  13  -1   29.13    7.79
  11 -13  -1   38.80   14.89
  11 -13   1   35.54    9.62
 -11  13  -2   10.76    4.97
 -11  13   2   13.68    7.43
  11  13  -2   15.38    5.35
  11  13   2    9.32    5.82
  11  13  -2    9.41    4.27
  11 -13  -2   16.92   14.69
  11 -13   2   15.93    7.54
 -11  13  -3   19.71    9.60
 -11  13   3   22.26    8.13
  11  13  -3   16.70    8.31
  11  13   3   26.88   11.63
  11  13  -3   26.76    8.81
  11 -13  -3   13.35    5.25
 -11  13  -4    9.08    8.02
 -11  13   4   13.88    7.40
  11  13   4   14.06   10.10
  11  13  -4    6.30    6.61
  11 -13  -4   16.00   10.13
  11 -13   4   44.52   13.33
 -11  13  -5   27.63    8.28
 -11  13   5    7.43    4.90
  11  13  -5   -0.12    5.76
  11  13   5   20.81   13.69
  11  13  -5    9.69    4.30
  11 -13  -5   16.88   11.56
  11 -13   5   18.35    8.74
 -11  13  -6   28.14   12.83
 -11  13   6   14.73    6.83
  11  13  -6   20.27    6.22
  11  13   6   29.86   11.44
  11  13  -6   21.56    5.92
  11 -13  -6   22.87   10.86
  11 -13   6   19.18    6.15
 -11  14   0    6.05    5.92
  11  14   0   13.96    6.09
  11  14   0    2.72    2.51
  11 -14   0   17.31    7.13
 -11  14  -1   18.54    7.14
 -11  14   1   12.18    7.57
  11  14  -1    5.88    4.15
  11  14   1    6.59    5.02
  11  14  -1    4.26    3.19
  11 -14  -1   18.76    6.35
  11 -14   1   19.05    4.59
 -11  14  -2    9.34    6.27
 -11  14   2   10.66    7.34
  11  14  -2   15.01    7.11
  11  14   2   17.21    5.92
  11  14  -2    8.74    4.74
  11 -14  -2    6.71    5.24
  11 -14   2   14.35    7.19
  12   0   0  348.62   17.36
  12   0   0  404.93   47.53
  12   0  -1   25.31    6.60
  12   0   1   24.23    5.66
  12   0  -1   27.95    8.30
  12   0   1   14.19    5.73
  12   0   2   15.12    8.00
  12   0   2   15.34    4.18
  12   0  -2   10.29    3.39
  12   0  -3   23.38   12.03
  12   0   3   19.58    6.07
  12   0   3   31.29    8.10
  12   0  -3   36.36   10.68
  12   0  -4  114.58   30.29
  12   0   4   89.60   19.68
  12   0   4   81.29   14.37
  12   0  -4  123.87   21.40
  12   0  -5   58.37   16.66
  12   0   5   63.91   18.86
  12   0   5   39.72    9.39
  12   0  -5   77.36   22.58
 -12   0  -5   51.12   18.88
  12   0  -6   44.35   17.89
  12   0   6   56.03   20.53
  12   0  -6   35.98    9.24
 -12   0  -6   33.24    9.17
  12   0  -7   60.00   15.43
  12   0   7   87.26   23.51
  12   0  -7   65.28   23.24
 -12   0  -7   56.05   12.36
  12   0  -8   42.29   18.95
  12   0   8   71.06   13.18
  12   0  -8   62.05   16.86
 -12   0  -8   51.68   14.81
  12   0  -9   20.49    9.25
  12   0   9   50.34   15.91
  12   0  -9   36.79   15.90
 -12   0  -9   30.23   10.27
  12   0 -10   12.79    3.13
  12   0  10   27.53   11.71
  12   0 -10   32.79    8.28
 -12   0 -10   14.56    5.50
  12   0  11   15.14    7.07
  12   0 -11   33.62   10.54
 -12   0 -11   25.92    9.91
  12   0  12   17.45    9.27
  12   0 -12   19.50    7.47
 -12   0 -12    9.11    3.59
  12   0  13    5.82    4.21
  12   0 -13   13.24    3.47
 -12   0 -13    4.32    3.05
  12   0  14    8.31    5.64
  12   0 -14    2.27    4.67
 -12   0 -14    2.47    1.76
  12   1   0    3.16    4.47
  12  -1   0   11.11    6.52
  12   1   0    9.87    3.97
  12  -1   0    7.87    3.91
  12   1  -1   26.26    6.11
  12   1   1   30.48   10.69
  12  -1  -1   28.58    7.27
  12  -1   1   45.07   11.87
  12   1   1   26.85    6.65
  12   1  -1   29.50    9.59
  12  -1  -1   34.32   10.58
  12  -1   1   23.44    6.76
  12   1   2   -6.12    8.71
  12  -1   2   11.12    8.35
  12   1   2    6.90    3.23
  12   1  -2    7.26    3.58
  12  -1  -2    1.49    4.57
  12  -1   2    8.77    3.44
  12   1  -3  145.21   35.63
  12   1   3  176.58   40.67
  12  -1  -3  143.10   26.57
  12  -1   3  169.85   39.15
  12   1   3  159.89   21.40
  12   1  -3  168.61   12.49
  12  -1  -3  172.75   35.80
  12  -1   3  167.87   24.95
  12   1  -4    8.86    5.10
  12   1   4   15.99    8.20
  12  -1  -4   22.57    9.00
  12  -1   4   15.39    5.98
  12   1   4   19.42    6.01
  12   1  -4   10.60    5.49
  12  -1  -4   26.13    7.11
  12  -1   4   16.82    6.66
  12   1  -5   12.98    8.12
  12   1   5   22.65    8.81
  12  -1  -5    7.16    4.98
  12  -1   5   17.78    5.75
  12   1   5    8.57    3.10
  12   1  -5   22.44    7.59
  12  -1  -5   16.37    5.40
  12  -1   5   12.14    3.99
 -12   1  -5   11.14    5.04
  12   1  -6    4.62    2.54
  12   1   6   17.87   10.22
  12  -1  -6   12.54    4.33
  12  -1   6   13.63    6.53
  12   1  -6    5.11    6.18
  12  -1   6    2.77    1.76
  12  -1  -6    3.28    2.77
 -12   1  -6    2.98    2.38
 -12  -1  -6   -1.86    3.47
  12   1  -7   17.79    7.97
  12   1   7   48.39    9.82
  12  -1  -7   28.23    8.32
  12  -1   7   33.64   13.66
  12   1  -7   24.09    8.43
  12  -1  -7   49.34   14.85
 -12   1  -7   32.65    8.93
 -12  -1  -7   27.26    9.95
  12   1  -8   17.43    5.24
  12   1   8   14.41    7.83
  12  -1  -8   20.92    5.69
  12  -1   8   16.29    7.24
  12   1  -8   35.33   14.22
  12  -1  -8   19.79    8.05
 -12   1  -8   15.36    4.38
 -12  -1  -8   21.51    9.38
  12   1  -9   68.67   21.56
  12   1   9   94.90   31.21
  12  -1  -9   74.35   20.19
  12  -1   9  105.03   25.68
  12   1  -9   82.13   19.49
  12  -1  -9  124.13   25.58
 -12   1  -9   77.57   20.88
 -12  -1  -9   96.43   26.27
  12   1  10    1.44    8.52
  12  -1  10    9.67    4.67
  12   1 -10    7.27    5.78
  12  -1 -10   13.11    6.01
 -12   1 -10    2.38    3.06
 -12  -1 -10    1.21    2.11
  12   1  11   14.67    7.79
  12  -1  11   17.93    8.71
  12   1 -11   15.06    6.80
  12  -1 -11    8.18    4.53
 -12   1 -11   16.42    6.67
 -12  -1 -11   13.91    5.04
  12   1  12   17.49    7.24
  12  -1  12    4.37    5.68
  12   1 -12   11.40    4.82
  12  -1 -12   -0.95    7.03
 -12   1 -12    2.02    2.54
 -12  -1 -12    7.94    2.58
  12   1  13   27.07   13.11
  12  -1  13   19.90    8.97
  12   1 -13   28.21    8.31
  12  -1 -13   22.65   11.39
 -12  -1 -13   25.84    8.61
  12   1  14    5.12    6.62
  12  -1  14   14.58    6.07
  12   1 -14   -1.74    6.95
  12  -1 -14    6.26    4.28
 -12  -1 -14    8.95    4.81
  12   2   0  117.40   28.10
  12  -2   0  110.32   18.32
  12   2   0   88.94   18.92
  12  -2   0   87.74   16.70
  12   2  -1  138.83   36.48
  12   2   1  140.95   33.22
  12  -2   1  175.24   22.37
  12  -2  -1  155.51   31.35
  12   2   1  154.50    9.05
  12   2  -1  145.53   26.22
  12  -2  -1  151.27   16.54
  12  -2   1  115.80   16.93
  12   2   2   63.85   17.83
  12  -2   2   69.11   20.07
  12   2   2   44.53   13.32
  12   2  -2   44.66    9.55
  12  -2  -2   55.40   11.96
  12  -2   2   50.48   19.65
  12   2  -3    9.48    6.51
  12   2   3   17.00    6.25
  12  -2  -3   -2.26    7.57
  12  -2   3    9.93    4.54
  12   2   3    6.66    2.30
  12   2  -3    5.40    3.29
  12  -2  -3    4.91    3.31
  12  -2   3    4.28    3.12
  12   2  -4   48.45   10.85
  12   2   4   35.20    9.74
  12  -2  -4   50.41   10.34
  12  -2   4   35.89   10.42
  12   2   4   28.40    7.43
  12   2  -4   40.65   12.86
  12  -2  -4   38.28    9.75
  12  -2   4   31.61    8.78
 -12   2  -4   35.65    7.94
  12   2  -5   98.53   28.66
  12   2   5   97.55   28.88
  12  -2  -5  107.75   24.93
  12  -2   5   92.50   29.73
  12   2   5   94.52   11.82
  12   2  -5  100.10   18.96
  12  -2  -5   91.14   22.78
  12  -2   5   68.53   15.02
 -12   2  -5   94.26   22.12
  12   2  -6   76.47   16.31
  12   2   6   87.33   21.19
  12  -2  -6   71.17   21.12
  12  -2   6   99.55   22.31
  12   2  -6   99.58   27.19
  12  -2  -6   92.17   18.21
  12  -2   6   66.15   19.24
 -12   2  -6   71.15   19.19
 -12  -2  -6   76.05   19.98
  12   2  -7   41.86   11.07
  12   2   7   61.63   24.16
  12  -2  -7   39.37   13.62
  12  -2   7   54.23   18.08
  12   2  -7   53.16   13.66
  12  -2  -7   59.45   14.45
 -12   2  -7   38.02    8.95
 -12  -2  -7   43.11   13.68
  12   2  -8    8.21    6.05
  12   2   8   14.50   10.56
  12  -2  -8    4.98    2.78
  12  -2   8    0.91    7.00
  12   2  -8   -1.34    7.24
  12  -2  -8   18.63    9.71
 -12   2  -8    4.35    2.46
 -12  -2  -8    7.22    3.71
  12   2  -9    7.14    4.18
  12   2   9    4.90    6.53
  12  -2  -9   -0.14    4.11
  12  -2   9   24.33   12.70
  12   2  -9   -0.88    6.70
  12  -2  -9    6.62    3.13
 -12  -2  -9    4.79    2.86
  12   2 -10   22.37    5.40
  12   2  10   19.51    8.38
  12  -2 -10   28.63    9.33
  12  -2  10   37.58   12.30
  12   2 -10   32.86   12.20
  12  -2 -10   35.24    7.96
 -12  -2 -10   38.56   12.47
  12   2  11   54.08   14.03
  12  -2  11   45.55   16.92
  12   2 -11   42.51   20.50
  12  -2 -11   53.16   23.06
 -12  -2 -11   47.59   14.85
  12   2  12   18.26    6.58
  12  -2  12   11.50    5.16
  12   2 -12   16.08    6.93
  12  -2 -12   24.09    9.56
 -12  -2 -12    9.51    5.20
  12   2  13   27.71   14.84
  12  -2  13   21.63    9.00
  12   2 -13   25.77    9.97
  12  -2 -13   31.03   10.42
 -12  -2 -13   13.40    9.56
  12   2  14    9.52    6.52
  12  -2  14    3.88    6.84
  12   2 -14    5.88    4.53
  12  -2 -14   17.37    5.68
 -12  -2 -14    7.88    6.35
  12   3   0  136.91   39.04
  12  -3   0  142.49   28.32
  12   3   0  146.95   20.25
  12  -3   0  120.84   27.79
  12   3  -1   45.28   11.79
  12   3   1   41.37    9.82
  12  -3  -1   32.37    9.87
  12  -3   1   31.40    7.09
  12   3   1   36.03   11.93
  12   3  -1   26.84    6.51
  12  -3  -1   30.39    9.99
  12  -3   1   34.33    8.99
  12   3   2   73.33   21.32
  12  -3   2   69.00   19.17
  12   3   2   71.70    7.42
  12   3  -2   69.19   20.90
  12  -3  -2   69.69   15.52
  12  -3   2   65.60   12.28
  12   3  -3  194.69   40.74
  12   3   3  241.36   31.85
  12  -3   3  231.07   38.84
  12   3   3  176.05   20.65
  12   3  -3  210.37   21.26
  12  -3  -3  179.98   40.73
  12  -3   3  192.26   26.39
 -12   3  -3  183.82    6.01
  12   3  -4   32.90    9.09
  12   3   4   36.00   12.38
  12  -3  -4   35.47    8.98
  12  -3   4   40.47   13.88
  12   3   4   21.30    7.97
  12   3  -4   28.57    9.78
  12  -3  -4   32.36   11.07
  12  -3   4   31.87    9.51
  12   3  -5   23.49    9.81
  12   3   5   13.80    6.77
  12  -3  -5   22.11    8.45
  12  -3   5   34.93   10.46
  12   3  -5   29.22    7.90
  12  -3  -5   17.92   10.75
  12  -3   5   17.13    3.76
  12   3  -6   32.98    8.36
  12   3   6   32.84   12.99
  12  -3  -6   38.64    9.21
  12  -3   6   36.73   13.13
  12   3  -6   43.83   13.51
  12  -3  -6   35.76    6.70
  12  -3   6   27.37    9.83
  12   3  -7   16.97    6.26
  12   3   7   34.04    9.19
  12  -3  -7   18.43    4.80
  12  -3   7   28.90   10.65
  12   3  -7   17.60    8.39
  12  -3  -7   17.61    7.84
 -12  -3  -7    8.39    4.41
  12   3  -8   36.36   13.00
  12   3   8   73.35   19.04
  12  -3  -8   29.32   11.68
  12  -3   8   73.25   14.62
  12   3  -8   39.41   14.01
  12  -3  -8   56.61   23.76
 -12  -3  -8   41.70   14.89
  12   3  -9   69.05   23.56
  12   3   9  124.52   34.07
  12  -3  -9   77.21   21.17
  12  -3   9  125.34   37.91
  12   3  -9  122.90   28.30
  12  -3  -9  138.46   27.71
 -12  -3  -9  103.23   29.71
  12   3 -10   22.03    8.79
  12   3  10   34.87   11.71
  12  -3 -10    8.27    3.49
  12  -3  10   32.74    9.65
  12   3 -10   31.21    9.62
  12  -3 -10   10.12    6.35
 -12  -3 -10   29.09   12.84
  12   3  11   -2.63    8.13
  12  -3  11    5.67    5.71
  12   3 -11    4.35    6.02
  12  -3 -11   10.91    8.04
 -12  -3 -11    3.40    5.26
  12   3  12   26.47    8.73
  12  -3  12   13.06    6.90
  12   3 -12   21.60    8.65
  12  -3 -12   19.91   11.16
 -12  -3 -12   15.33    7.02
  12   3  13   17.08    8.54
  12  -3  13   20.96    5.58
  12   3 -13   19.36   11.21
  12  -3 -13   27.59    9.40
 -12  -3 -13   18.87    6.92
  12   3  14   23.33   11.68
  12  -3  14   26.99   15.29
  12   3 -14   35.75   13.10
  12  -3 -14   31.99   14.48
 -12  -3 -14   28.89   11.39
  12   4   0   15.89    4.98
  12  -4   0   29.44    6.85
  12   4   0   16.00    5.20
  12  -4   0   15.51    8.04
  12   4  -1   74.20   22.02
  12   4   1   67.99   18.81
  12  -4   1   70.48   21.18
  12  -4  -1   65.22   12.43
  12   4   1   53.11   19.58
  12   4  -1   65.92   12.71
  12  -4  -1   65.78   15.77
  12  -4   1   65.39   17.82
  12   4   2   22.72   10.10
  12  -4  -2   30.96    9.26
  12  -4   2   20.50    6.89
  12   4   2   20.09    6.59
  12   4  -2   28.63    8.42
  12  -4  -2   22.35    9.80
  12  -4   2   25.92    6.16
  12   4  -3   18.84    7.08
  12   4   3   38.97   18.89
  12  -4   3   31.79    9.70
  12   4   3   17.23    6.16
  12   4  -3   28.55    7.25
  12  -4  -3   21.26    6.32
  12  -4   3   31.19   14.23
  12   4  -4   59.72   14.85
  12   4   4   61.50   13.61
  12  -4   4   62.44   16.89
  12  -4  -4   51.78   18.01
  12   4   4   37.70   13.50
  12   4  -4   44.55   14.02
  12  -4  -4   37.93    7.05
  12  -4   4   58.68    8.91
  12   4  -5   38.20    9.72
  12   4   5   31.76   10.78
  12  -4   5   44.87   13.29
  12  -4  -5   40.23   15.79
  12   4  -5   37.08   12.29
  12  -4  -5   30.67    9.37
  12  -4   5   43.46   10.67
  12   4  -6   20.54    5.55
  12   4   6   24.94    9.02
  12  -4   6   32.95   11.89
  12  -4  -6   31.90    7.86
  12   4  -6   27.84   13.05
  12  -4  -6   34.40    9.47
  12  -4   6   26.01    6.73
  12   4  -7    7.98    4.83
  12   4   7   11.27   10.30
  12  -4  -7   13.23    6.09
  12  -4   7    9.52    6.18
  12   4  -7   22.26    6.08
  12  -4  -7   17.42   11.15
  12  -4   7    6.33    3.56
 -12  -4  -7   10.87    6.64
  12   4  -8   34.78   12.71
  12   4   8   48.26   13.73
  12  -4  -8   38.41   10.12
  12  -4   8   41.88   13.48
  12   4  -8   31.47   17.28
  12  -4  -8   45.83   12.82
 -12  -4  -8   38.43   10.43
  12   4  -9    3.05    2.73
  12   4   9   25.54    6.96
  12  -4  -9    5.45    3.39
  12  -4   9    2.30    4.45
  12   4  -9    9.84    8.00
  12  -4  -9    2.06    4.86
 -12  -4  -9    8.50    3.77
  12   4 -10   14.35    7.39
  12   4  10   18.24   10.18
  12  -4 -10   14.84    7.99
  12  -4  10    9.69    7.77
  12   4 -10   29.11    8.44
  12  -4 -10   22.81    6.84
 -12  -4 -10   19.74    6.77
  12   4  11   78.79   29.28
  12  -4  11   58.51   25.83
  12   4 -11   62.87   26.59
  12  -4 -11   59.17   20.28
 -12  -4 -11   70.39   15.56
  12   4  12    7.33    3.79
  12  -4  12   16.85    6.02
  12   4 -12   19.08    6.15
  12  -4 -12   12.56    4.81
 -12  -4 -12   21.52    7.31
  12   4  13   20.60    7.76
  12  -4  13    6.81    7.60
  12   4 -13   10.01    5.13
  12  -4 -13   14.17    5.17
 -12  -4 -13    9.83    4.89
  12   4  14   21.28    7.64
  12  -4  14   15.29    5.93
  12   4 -14   20.82   11.65
  12  -4 -14   20.31    6.52
 -12  -4 -14   17.33    5.94
  12   5   0   57.00   15.23
  12  -5   0   46.02   12.22
  12   5   0   56.17   11.46
  12  -5   0   47.49   17.39
  12   5  -1   19.75    8.44
  12   5   1   26.83   11.01
  12  -5   1   13.01    6.59
  12  -5  -1   20.73    6.98
  12   5   1   23.29    5.29
  12   5  -1   23.84    6.77
  12  -5  -1   15.90    5.31
  12  -5   1   24.63    4.92
  12   5   2   25.21    8.13
  12  -5   2   15.02    6.40
  12  -5  -2   36.03   12.58
  12   5   2   20.50    6.88
  12   5  -2   17.51    3.21
  12  -5  -2   15.83    5.93
  12  -5   2   37.62    7.49
  12   5  -3    9.52    5.72
  12   5   3   14.94    7.09
  12  -5   3   24.26    9.61
  12   5   3    2.10    1.48
  12   5  -3    4.84    1.97
  12  -5  -3    2.06    5.25
  12  -5   3   -2.52    5.51
  12   5  -4   35.80    7.94
  12   5   4   56.45   18.19
  12  -5   4   43.02   13.40
  12  -5  -4   40.77   17.49
  12   5   4   28.01   11.25
  12   5  -4   50.71   11.08
  12  -5  -4   62.67   14.40
  12  -5   4   32.35    9.14
  12   5  -5   24.03    9.35
  12   5   5   26.24   10.17
  12  -5   5   15.51    6.77
  12  -5  -5   15.51    4.44
  12   5  -5   28.71    8.50
  12  -5  -5   27.68    8.35
  12  -5   5   22.06    5.61
  12   5  -6   54.17   15.35
  12   5   6   83.39   29.64
  12  -5   6   64.40   24.85
  12  -5  -6   64.31   20.28
  12   5  -6   74.12   15.80
  12  -5  -6   42.73   13.54
  12  -5   6   46.38   15.58
  12   5  -7    6.57    3.62
  12   5   7    7.09    5.75
  12  -5   7   19.09    8.49
  12  -5  -7    5.50    2.98
  12   5  -7   14.74    7.41
  12  -5  -7   17.58    6.05
  12  -5   7    5.74    3.27
 -12  -5  -7   11.07    3.75
  12   5  -8   76.25   20.42
  12   5   8   67.64   16.85
  12  -5   8  120.85   27.30
  12  -5  -8   50.54   21.24
  12   5  -8  104.86   24.64
  12  -5  -8   68.43   21.32
 -12  -5  -8   80.43   27.18
  12   5  -9    6.44    5.46
  12   5   9    1.83    4.12
  12  -5   9   14.53    6.56
  12  -5  -9    2.06    2.73
  12   5  -9   -2.42    5.42
  12  -5  -9    2.53    3.12
 -12  -5  -9    8.85    3.97
  12   5 -10   35.14   14.16
  12   5  10   34.42   11.54
  12  -5  10   33.89   12.60
  12  -5 -10   21.25    6.99
  12   5 -10   41.53   14.21
  12  -5 -10   37.67   13.61
 -12  -5 -10   33.01   10.77
  12   5  11   13.87    8.61
  12  -5  11    7.84    4.73
  12   5 -11   10.83    4.85
  12  -5 -11    9.66    4.47
 -12  -5 -11   15.82    7.75
  12   5  12   57.46   25.14
  12  -5  12   56.40   19.53
  12   5 -12   58.71   20.06
  12  -5 -12   43.87   12.62
 -12  -5 -12   47.13   22.70
  12   5  13   -2.05    7.86
  12  -5  13    4.73    5.11
  12   5 -13    9.22    6.33
  12  -5 -13    2.50    5.98
 -12  -5 -13   10.99    3.30
  12   6   0   11.46    7.18
  12  -6   0   -0.50    7.28
  12   6   0    1.91    2.43
  12  -6   0   12.64    6.23
  12   6  -1   25.19    8.16
  12   6   1   19.51    6.00
  12  -6  -1   17.86    4.15
  12  -6   1   18.62    8.17
  12   6   1   19.35    5.24
  12   6  -1   12.51    5.42
  12  -6  -1   23.27    8.23
  12  -6   1   20.41    8.73
  12   6  -2   41.99   14.30
  12   6   2   91.42   27.93
  12  -6   2  108.09   26.36
  12  -6  -2   79.98   22.63
  12   6   2   68.52   17.34
  12   6  -2   79.62   20.68
  12  -6  -2   96.09   28.26
  12  -6   2   91.60   31.62
  12   6   3   14.26    5.37
  12  -6   3    4.20    4.68
  12   6   3    2.13    1.33
  12   6  -3    6.72    3.88
  12  -6  -3    9.34    3.90
  12  -6   3   14.81    7.66
  12   6  -4    6.25    4.45
  12   6   4    7.38    4.20
  12  -6   4   13.42    5.56
  12  -6  -4    3.75    5.11
  12   6  -4   -0.07    4.76
  12  -6  -4   13.36    6.93
  12  -6   4   -4.80    5.58
  12   6  -5   64.65   19.11
  12   6   5   91.37   32.66
  12  -6   5  109.42   28.33
  12  -6  -5   82.43   23.60
  12   6  -5   75.65   19.16
  12  -6  -5   84.76   22.56
  12  -6   5   71.54   25.59
  12   6  -6    3.56    7.03
  12   6   6   -1.28    8.19
  12  -6   6    3.34    6.88
  12  -6  -6   19.22    6.17
  12   6  -6   10.28    5.30
  12  -6  -6    7.54    5.11
  12  -6   6    2.84    1.40
  12   6  -7   39.73   24.90
  12   6   7   52.53   13.90
  12  -6   7   70.76   20.01
  12  -6  -7   60.38   17.16
  12   6  -7   75.58   16.87
  12  -6  -7   43.93    8.49
  12  -6   7   38.14   17.36
  12   6  -8   20.72    6.83
  12   6   8   22.31    5.39
  12  -6   8    9.00    5.69
  12  -6  -8    8.66    6.83
  12   6  -8    9.48    4.56
  12  -6  -8    9.61    4.20
 -12  -6  -8   14.74    4.09
  12   6  -9   10.37    6.09
  12   6   9   13.97    7.61
  12  -6   9   17.21   10.29
  12  -6  -9   12.29    7.69
  12   6  -9    7.51    6.11
  12  -6  -9   16.68   10.36
 -12  -6  -9   28.42    8.32
  12   6 -10   10.66    4.28
  12   6  10   24.37   11.31
  12  -6  10   26.44    8.49
  12  -6 -10   17.59    8.04
  12   6 -10   34.45    9.79
  12  -6 -10   28.97    9.52
 -12  -6 -10   35.90    9.56
  12   6  11   18.60    8.39
  12  -6  11   18.69    7.50
  12   6 -11   21.34   10.79
  12  -6 -11   24.65    7.62
 -12  -6 -11   27.49    7.31
  12   6  12    7.07    5.12
  12  -6  12   10.86    4.42
  12   6 -12    4.26    2.85
  12  -6 -12   13.52    9.29
 -12  -6 -12    4.81    2.16
  12   6  13   12.68   10.07
  12  -6  13    4.25    3.91
  12   6 -13   10.49    8.09
  12  -6 -13   -0.09    7.39
 -12  -6 -13   13.05    5.42
  12   7   0   28.17    8.85
  12  -7   0   33.55   11.79
  12   7   0   30.29    8.04
  12  -7   0   33.42   13.90
  12   7  -1    8.22    6.53
  12   7   1    7.51    5.55
  12  -7   1   12.73   11.13
  12  -7  -1    9.91    8.45
  12   7   1    6.96    3.76
  12   7  -1    3.41    3.81
  12  -7  -1   13.06    4.00
  12  -7   1   15.49    7.30
  12   7  -2   46.77   15.78
  12   7   2   58.81   15.02
  12  -7   2   53.13   11.38
  12  -7  -2   51.14   17.31
  12   7   2   42.11    9.79
  12   7  -2   51.10   16.60
  12  -7  -2   42.02   16.85
  12  -7   2   55.30   16.42
  12  -7   3   12.46    7.31
  12   7   3    4.19    2.32
  12   7  -3    3.71    2.35
  12  -7  -3   20.67    6.77
  12  -7   3    5.03    4.55
  12   7  -4   76.40   23.73
  12   7   4   58.88   15.35
  12  -7   4   83.85   29.92
  12  -7  -4   66.71   21.46
  12   7  -4   69.55   21.41
  12  -7  -4   78.64   20.42
  12  -7   4   60.30   13.47
  12   7  -5    9.17    5.36
  12   7   5    6.14    5.68
  12  -7   5   13.05    8.94
  12  -7  -5    9.46    5.64
  12   7  -5    7.14    3.46
  12  -7  -5   11.67    6.89
  12  -7   5    1.85    2.57
  12   7  -6   40.84   13.07
  12   7   6   35.62   18.07
  12  -7   6   33.29    6.31
  12  -7  -6   39.02   10.06
  12   7  -6   37.10   17.02
  12  -7  -6   41.65   16.15
  12  -7   6   23.89    6.73
  12   7  -7    9.32    4.41
  12   7   7   11.59    5.62
  12  -7   7   14.26    6.83
  12  -7  -7    5.68    3.30
  12   7  -7    6.07    3.33
  12  -7  -7   20.50    8.51
  12  -7   7    1.62    1.89
  12   7  -8   24.76    6.72
  12   7   8   21.65    7.68
  12  -7   8   24.13    8.58
  12  -7  -8   22.07    9.17
  12   7  -8   20.58   10.82
  12  -7  -8   30.06    9.02
  12  -7   8   12.88    5.20
  12   7  -9   10.06    3.91
  12   7   9    5.56    4.71
  12  -7   9   12.68    8.98
  12  -7  -9   -1.19    4.25
  12   7  -9    7.78    7.53
  12  -7  -9   19.47    8.33
  12   7 -10   19.94    7.61
  12   7  10   22.91   11.73
  12  -7  10   29.21   11.36
  12  -7 -10   16.68    6.25
  12   7 -10   30.00    9.44
  12  -7 -10   22.75    8.26
  12   7  11    9.79    5.30
  12  -7  11    8.64    5.32
  12   7 -11    4.42    3.51
  12  -7 -11    9.06    5.56
  12   7  12   27.08    9.11
  12  -7  12   11.76    9.07
  12   7 -12   26.40    7.05
  12  -7 -12   12.27    8.25
  12   8   0    5.94    4.47
  12  -8   0   14.85    5.20
  12   8   0    4.90    3.62
  12  -8   0   -1.08    6.84
  12   8  -1   27.40   10.39
  12   8   1   30.97   10.04
  12  -8   1   34.22   11.71
  12  -8  -1   44.46   22.67
  12   8   1   33.27    5.86
  12   8  -1   25.75    6.47
  12  -8  -1   14.32    4.88
  12  -8   1   22.99    6.27
  12   8  -2   83.12   27.74
  12   8   2   73.00   19.64
  12  -8   2   62.35   22.35
  12  -8  -2   66.52   20.39
  12   8   2   52.18   20.16
  12   8  -2   87.66   21.36
  12  -8  -2   61.38   19.50
  12  -8   2   67.80   22.91
  12   8   3   -9.35    8.06
  12  -8   3    0.83    4.49
  12  -8  -3    8.02    3.76
  12   8   3    3.41    1.31
  12   8  -3    4.94    4.17
  12  -8  -3   23.71    9.15
  12  -8   3    8.11    7.12
  12   8  -4   42.84   13.35
  12   8   4   40.00    9.98
  12  -8   4   58.62   18.38
  12   8  -4   34.07   10.63
  12  -8  -4   39.23   11.81
  12  -8   4   32.08   12.49
  12   8  -5   23.03   10.47
  12   8   5   39.36   14.62
  12  -8   5   27.34    9.81
  12  -8  -5   27.46    7.95
  12   8  -5   30.82    9.25
  12  -8  -5   46.87   12.51
  12  -8   5   35.14   11.61
  12   8  -6   47.25   16.63
  12   8   6   23.70    6.76
  12  -8   6   38.01   13.63
  12  -8  -6   27.15   13.97
  12   8  -6   27.95   11.13
  12  -8  -6   41.17   16.75
  12  -8   6   31.43   10.15
  12   8  -7    9.27    6.46
  12   8   7   17.05    8.10
  12  -8   7   20.72    9.99
  12  -8  -7   15.21    9.42
  12   8  -7   26.24    9.44
  12  -8  -7   19.31   11.27
  12  -8   7    6.24    4.09
  12   8  -8   26.93   13.25
  12   8   8   41.32   14.51
  12  -8   8   19.22    8.95
  12  -8  -8   26.41    9.02
  12   8  -8   25.97   10.40
  12  -8  -8   31.57   14.04
  12  -8   8   22.80    8.35
 -12  -8  -8   36.87   13.19
  12   8  -9    0.77    5.24
  12   8   9   -3.83    8.21
  12  -8   9    2.17    4.58
  12  -8  -9   -1.05    4.48
  12   8  -9   11.79    5.39
  12  -8  -9    5.42    7.60
 -12  -8  -9    4.25    3.72
  12   8 -10    2.33    1.89
  12   8  10   19.57    5.59
  12  -8  10   10.18    5.90
  12  -8 -10    9.42    4.85
  12   8 -10    8.65    4.56
  12  -8 -10    5.42    4.34
 -12  -8 -10   20.95   10.90
  12   8  11    9.71    5.86
  12  -8  11    7.55    7.24
  12   8 -11    8.22    5.43
  12  -8 -11   20.04    9.24
 -12  -8 -11   19.96    8.48
  12   9   0   43.23   10.10
  12  -9   0   37.31   12.54
  12   9   0   27.56    7.95
  12  -9   0   31.34   25.72
  12   9  -1   16.65    6.46
  12   9   1    9.70    4.73
  12  -9   1   16.81    7.58
  12  -9  -1   12.82    5.66
  12   9   1   10.91    5.21
  12   9  -1    7.30    3.65
  12  -9  -1   15.50    4.67
  12  -9   1   16.86    9.13
  12   9  -2   19.59    6.26
  12   9   2   23.17    8.80
  12  -9   2   19.65    7.78
  12  -9  -2    8.63    6.49
  12   9   2   20.29    4.14
  12   9  -2   33.44    6.26
  12  -9  -2   26.48    8.14
  12  -9   2   22.35    7.36
  12   9   3   49.86   19.79
  12  -9   3   48.18   15.58
  12  -9  -3   41.59   12.79
  12   9  -3   32.72   14.50
  12  -9  -3   35.42   11.70
  12  -9   3   45.60   12.02
  12   9  -4   13.77    5.46
  12   9   4   20.43    8.63
  12  -9   4   29.75   19.47
  12   9  -4   38.79   12.22
  12  -9  -4   25.37   10.52
  12   9  -5   37.48   11.53
  12   9   5   43.21   14.25
  12  -9   5   35.32   16.90
  12  -9  -5   36.37   16.81
  12   9  -5   35.62   13.92
  12  -9  -5   48.84   12.51
  12  -9   5   35.91   12.38
  12   9  -6   53.41   18.33
  12   9   6   42.98   11.48
  12  -9   6   64.86   27.00
  12  -9  -6   42.68   26.22
  12   9  -6   58.95   13.67
  12  -9  -6   63.10   20.28
  12  -9   6   63.54   21.49
  12   9  -7   40.57   17.11
  12   9   7   49.57   16.11
  12  -9   7   43.77   12.03
  12  -9  -7   43.97   16.10
  12   9  -7   39.03   12.85
  12  -9  -7   43.70   21.13
  12  -9   7   49.97   18.33
  12   9  -8    8.56    5.39
  12   9   8   11.19    9.85
  12  -9   8   24.21    9.99
  12  -9  -8   13.36   11.62
  12   9  -8   20.11    8.39
  12  -9  -8   12.30    8.37
  12  -9   8   19.20    5.47
 -12  -9  -8   19.88    8.81
  12   9  -9   13.21    6.16
  12   9   9   15.89    8.12
  12  -9   9    7.69    8.88
  12  -9  -9   14.22    3.92
  12   9  -9   17.67    6.54
  12  -9  -9   14.47    4.87
 -12  -9  -9    7.54    5.01
  12   9  10   16.21    6.57
  12  -9  10   19.50    8.38
  12  -9 -10    6.46    5.01
  12   9 -10   17.82    8.09
  12  -9 -10   15.98    6.67
 -12  -9 -10   13.74    6.82
  12  10   0   24.26    6.95
  12 -10   0   32.04   10.92
  12  10   0   21.33    6.40
  12 -10   0   23.76   11.78
  12  10  -1   40.28   11.74
  12  10   1   44.19   14.83
  12 -10   1   40.22    9.53
  12 -10  -1   38.10   15.92
  12  10   1   38.66   11.10
  12  10  -1   31.95    9.41
  12 -10  -1   34.35   20.52
  12 -10   1   46.38   16.92
  12  10  -2   32.58    7.12
  12  10   2   26.15    7.14
  12 -10   2   28.25    8.06
  12 -10  -2   33.54    9.74
  12  10   2   20.86    4.71
  12  10  -2   18.59    5.20
  12 -10  -2   16.31   11.95
  12 -10   2   20.24   11.06
  12  10   3   18.24    7.60
  12 -10   3   12.29    6.33
  12 -10  -3   15.90    5.70
  12  10  -3    9.61    5.54
  12 -10  -3   25.81   10.19
  12 -10   3   10.03    4.33
  12  10  -4   15.72    6.79
  12  10   4    2.76    4.12
  12 -10   4    6.58    4.32
  12  10  -4    7.21    4.08
  12 -10  -4    8.89    7.51
  12  10  -5   32.01    6.75
  12  10   5   19.61   10.06
  12 -10   5   29.74    9.02
  12 -10  -5   14.29    4.89
  12  10  -5   21.17    7.61
  12 -10  -5    5.06    7.83
  12 -10   5    9.03    5.22
  12  10  -6   37.55   11.74
  12  10   6   37.56   14.47
  12 -10   6   38.51   12.62
  12 -10  -6   18.86   14.44
  12  10  -6   30.88    8.70
  12 -10  -6   47.44   17.97
  12 -10   6   33.68   11.40
  12  10  -7    8.31    6.98
  12  10   7   11.54    3.82
  12 -10   7   14.57    6.12
  12 -10  -7   -1.12    2.88
  12  10  -7    9.39    4.90
  12 -10  -7   17.24    7.39
  12 -10   7    9.11    7.26
  12  10  -8    2.82    3.46
  12  10   8    6.53    4.36
  12 -10   8    0.78    5.32
  12 -10  -8    7.22    4.32
  12  10  -8    7.74    3.85
  12 -10  -8    7.61    8.82
  12 -10   8    4.73    4.32
 -12 -10  -8   12.68    6.66
  12  10  -9   16.90    8.03
  12  10   9   10.98    5.40
  12 -10   9    5.13    4.07
  12 -10  -9    8.29    5.56
  12  10  -9   19.96   10.30
  12 -10  -9   24.03   19.89
 -12 -10  -9   12.28    7.29
 -12  11   0   19.71    8.27
  12  11   0   11.99    7.47
  12  11   0   11.71    5.45
  12 -11   0   12.99    7.72
 -12  11  -1   30.29   10.57
 -12  11   1   38.66   11.55
  12  11  -1   24.35    5.66
  12  11   1   54.39    9.14
  12  11   1   24.41    7.92
  12  11  -1   32.80   10.77
  12 -11  -1   39.23   10.21
  12 -11   1   40.45   13.14
 -12  11   2    4.13    4.24
  12  11  -2   11.81    5.54
  12  11   2    3.85    5.95
  12  11  -2    3.60    4.63
  12 -11  -2    5.65    5.22
  12 -11   2   17.82    5.25
 -12  11   3   50.06   16.92
  12  11   3   61.88   16.95
  12 -11   3   45.44   15.46
  12  11  -3   43.28   19.15
  12 -11  -3   56.52   14.65
  12 -11   3   62.51   28.54
 -12  11   4   10.85    4.19
  12  11  -4   12.10    5.09
  12  11   4   11.43    5.40
  12 -11   4   10.01   10.60
  12  11  -4    9.31    7.14
  12 -11  -4   -2.39    8.65
  12 -11   4   12.35    5.74
 -12  11   5   14.70    5.72
  12  11  -5    8.56    5.91
  12  11   5    3.28    6.92
  12 -11   5   27.03    7.95
  12  11  -5    8.03    6.71
  12 -11  -5    9.26    9.49
  12 -11   5    5.07    6.15
 -12  11   6   13.02    6.95
  12  11  -6   21.36   14.37
  12  11   6   19.62    7.82
  12 -11   6   27.73   10.74
  12  11  -6   19.16    9.67
  12 -11  -6   15.49   10.28
  12 -11   6   33.42   12.23
  12  11  -7   13.62    7.53
  12  11   7   38.39   17.44
  12 -11   7    9.52   10.61
  12 -11  -7   11.92    4.82
  12 -11  -7   15.81    6.78
  12 -11   7    3.59    5.39
  12  11  -8   14.02    6.32
  12 -11   8   15.21    9.48
  12 -11  -8    7.32    6.99
  12  11  -8   18.66    6.99
  12 -11  -8    6.12    6.44
  12 -11   8    1.91    2.98
 -12 -11  -8   13.39    7.22
 -12  12   0   23.56    8.70
  12  12   0   21.53   10.27
  12  12   0   28.52    8.43
  12 -12   0   37.33   20.29
 -12  12  -1   17.53    5.18
 -12  12   1   16.41    5.36
  12  12  -1    8.74    5.30
  12  12   1    7.80    4.55
  12  12  -1   14.34    6.49
  12 -12  -1    8.96    6.03
  12 -12   1   16.15    5.10
 -12  12  -2   11.38    5.99
 -12  12   2   11.30    5.48
  12  12  -2   12.11    7.43
  12  12   2    7.04    6.25
  12 -12  -2   13.32    5.20
  12 -12   2    7.92    5.86
 -12  12  -3   -3.04    5.75
 -12  12   3    2.66    4.91
  12  12  -3   18.17   11.86
  12  12   3   22.03    9.59
  12  12  -3    7.19    5.16
  12 -12  -3   16.39    8.54
  12 -12   3   17.54    7.30
 -12  12   4   17.35    8.07
  12  12   4    6.37    6.09
  12 -12   4   18.28    7.90
  12  12  -4   15.59    7.06
  12 -12  -4   23.93    7.70
  12 -12   4   -3.04    7.49
 -12  12   5   17.22    6.77
  12  12  -5    7.68    5.14
  12  12   5   20.77    8.34
  12 -12   5   21.65   11.72
  12  12  -5   26.94    8.20
  12 -12  -5   24.29   14.61
  12 -12   5   22.83    9.18
 -12  12   6   18.69   12.64
  12  12  -6   33.13   11.98
  12  12   6   15.06    9.23
  12 -12   6   16.60    9.40
  12  12  -6   12.22    6.15
  12 -12  -6   23.71   15.34
  12 -12   6   22.44    8.50
 -12  13   0    9.18    5.83
  12  13   0    7.99    6.26
  12  13   0    2.72    4.14
  12 -13   0   11.82    7.26
 -12  13  -1    7.49    4.63
 -12  13   1   13.93    8.23
  12  13  -1    7.56    5.02
  12  13   1   25.21    9.05
  12  13   1    4.60    1.85
  12  13  -1    8.39    4.81
  12 -13  -1   20.74    9.67
  12 -13   1   17.41    7.01
 -12  13  -2   -3.12    6.64
 -12  13   2    8.92    5.32
  12  13  -2    5.75    4.73
  12  13   2    9.96    6.30
  12  13  -2    3.01    2.07
  12 -13  -2   10.95    6.72
  12 -13   2   10.78    5.99
  13   0   0   -0.37    8.23
  13   0   0   -0.18    4.98
  13   0  -1   17.23    9.68
  13   0   1   -0.28    9.19
  13   0   1    7.22    3.33
  13   0  -1    4.74    2.90
  13   0   2   15.65   11.43
  13   0   2    4.07    2.52
  13   0  -2    0.09    5.93
  13   0  -3   17.50    6.81
  13   0   3   16.03    6.96
  13   0   3    1.81    2.39
  13   0  -3   13.90    7.00
  13   0  -4  145.53   31.39
  13   0   4  144.07   50.21
  13   0   4  125.80   21.10
  13   0  -4  163.73   24.55
  13   0  -5   11.20    6.37
  13   0   5    4.94    5.28
  13   0  -5   19.25    7.16
 -13   0  -5    2.52    2.48
  13   0  -6    4.56    1.96
  13   0   6    6.14    4.04
  13   0  -6   15.13    7.72
 -13   0  -6    1.62    2.50
  13   0  -7   11.85    6.30
  13   0   7    4.71    4.90
  13   0  -7   10.06    5.08
 -13   0  -7   10.44    5.19
  13   0  -8   64.56   25.11
  13   0   8   74.94   22.56
  13   0  -8   80.33   28.81
  13   0  -9    4.98    4.32
  13   0   9    7.28    6.32
  13   0  -9    4.74    5.75
 -13   0  -9    9.14    4.87
  13   0 -10    5.33    3.13
  13   0  10   12.83    3.90
  13   0 -10    4.78    5.26
 -13   0 -10    1.03    2.56
  13   0  11   18.39    8.98
  13   0 -11   12.06    6.85
  13   0  12   24.92   10.35
  13   0 -12   34.38   10.79
  13   0  13    6.34    7.78
  13   0 -13   -0.60    6.70
  13   1   0  173.84   41.76
  13  -1   0  164.55   45.67
  13   1   0  137.45   25.61
  13  -1   0  155.51   16.01
  13   1  -1   67.16   17.39
  13   1   1   51.50   12.89
  13  -1  -1   66.06   17.35
  13  -1   1   50.22   22.29
  13   1   1   47.34   13.68
  13   1  -1   77.78   17.16
  13  -1  -1   60.89   13.63
  13  -1   1   66.27   18.10
  13   1   2   52.57   21.46
  13  -1   2   49.60   19.53
  13   1   2   25.75    9.64
  13   1  -2   42.54   15.17
  13  -1   2   26.01    7.59
  13  -1  -2   37.53   13.31
  13   1  -3    4.67    3.61
  13   1   3    8.05    4.74
  13  -1  -3    3.19    6.85
  13  -1   3   13.74    6.20
  13   1   3   12.03    4.29
  13   1  -3    8.55    5.22
  13  -1   3    1.71    2.18
  13  -1  -3   11.38    5.40
  13   1  -4   29.12    7.44
  13   1   4   22.05   11.83
  13  -1  -4   48.20   13.24
  13  -1   4   32.17   12.10
  13   1   4   22.65    7.62
  13   1  -4   34.01    9.75
  13  -1   4   29.35    7.17
  13  -1  -4   38.61   14.76
 -13   1  -4   22.65    6.35
  13   1  -5   87.58   27.03
  13   1   5   94.99   24.81
  13  -1  -5  110.68   32.37
  13  -1   5   98.32   22.11
  13   1  -5   99.38   24.03
  13  -1   5   64.59   20.45
  13  -1  -5   90.51   20.17
 -13   1  -5  105.97   16.91
  13   1  -6    9.21    3.88
  13   1   6    7.92    7.71
  13  -1  -6    9.50    4.00
  13  -1   6   16.71    7.96
  13   1  -6   14.93    6.40
  13  -1  -6   13.58    8.37
 -13   1  -6    6.38    3.43
 -13  -1  -6    5.39    4.65
  13   1  -7   42.78   15.45
  13   1   7  103.93   27.66
  13  -1  -7   48.45   23.36
  13  -1   7   47.18   22.98
  13   1  -7   70.64   20.10
  13  -1  -7   60.33   17.64
 -13   1  -7   45.75   16.03
 -13  -1  -7   40.07   15.21
  13   1  -8   14.78    5.84
  13   1   8   26.90    8.77
  13  -1  -8   24.02   10.49
  13  -1   8   22.85    9.13
  13   1  -8   23.67    6.73
  13  -1  -8   27.90   10.27
 -13  -1  -8   20.86    9.59
  13   1  -9    4.62    5.63
  13   1   9    1.62    6.03
  13  -1  -9    8.90    7.25
  13  -1   9   16.01   10.16
  13   1  -9    8.28    4.56
  13  -1  -9    9.71    5.97
 -13  -1  -9    1.68    3.42
  13   1 -10   16.76    8.65
  13  -1 -10    9.88    7.11
  13   1  10   10.40    4.83
  13  -1  10   23.72    6.72
  13   1 -10   22.73    6.07
  13  -1 -10   15.94    8.31
 -13  -1 -10   19.31    6.12
  13   1  11   40.49   15.85
  13  -1  11   55.09   19.87
  13   1 -11   54.01   21.91
  13  -1 -11   47.86   16.21
 -13  -1 -11   34.67   15.85
  13   1  12   24.63   10.27
  13  -1  12   19.60   14.26
  13   1 -12   20.74    9.08
  13  -1 -12   33.91    9.75
 -13  -1 -12    8.89    6.42
  13   1  13    0.38    7.15
  13  -1  13   11.82    7.06
  13   1 -13    9.08    6.59
  13  -1 -13    5.66    4.91
  13   2   0   30.29   10.17
  13  -2   0   25.49   10.08
  13   2   0   19.70    8.40
  13  -2   0   11.16    5.14
  13   2  -1   41.55   11.07
  13   2   1   27.41    7.55
  13  -2   1   43.25   16.39
  13  -2  -1   49.45   12.48
  13   2   1   32.27   13.91
  13   2  -1   32.46   10.65
  13  -2  -1   40.56    8.52
  13  -2   1   36.20   11.73
  13   2   2  222.51   54.70
  13  -2   2  215.67   55.18
  13   2   2  229.69   16.44
  13   2  -2  187.65   35.81
  13  -2  -2  226.44   12.60
  13  -2   2  212.97   24.76
  13   2  -3   26.62   10.28
  13   2   3    9.75    6.53
  13  -2   3    5.65    6.52
  13   2   3    2.06    2.63
  13   2  -3    8.78    5.15
  13  -2  -3    8.78    3.40
  13  -2   3    3.94    2.84
  13   2  -4   27.64    7.15
  13   2   4   44.23   14.33
  13  -2  -4   13.13    7.26
  13  -2   4   12.53    5.58
  13   2   4   23.28    8.91
  13   2  -4   26.11    6.27
  13  -2  -4   24.44    8.61
  13  -2   4   17.41    3.69
  13   2  -5   16.85    8.06
  13  -2  -5   20.76    8.00
  13  -2   5   14.09    7.32
  13   2  -5    7.74    4.37
  13  -2  -5   12.89    7.15
  13  -2   5    2.55    3.53
  13   2  -6    6.71    3.93
  13   2   6    3.32    4.41
  13  -2  -6   12.44    3.95
  13  -2   6    4.73    5.01
  13   2  -6   15.15    5.52
  13  -2  -6   14.67    4.38
 -13  -2  -6    7.69    3.38
  13   2  -7   10.71    6.55
  13   2   7    7.04    4.90
  13  -2  -7    7.05    5.99
  13  -2   7   10.77    5.35
  13   2  -7   -0.28    6.19
  13  -2  -7   11.33    9.68
 -13  -2  -7    8.30    3.76
  13   2  -8   12.96    4.30
  13   2   8   13.92    7.94
  13  -2  -8   15.87    3.66
  13  -2   8   37.70    9.66
  13   2  -8   26.16    8.80
  13  -2  -8   19.21    6.71
 -13  -2  -8   18.53    4.98
  13   2  -9   12.40    5.34
  13   2   9   18.08    6.12
  13  -2  -9   16.25    5.63
  13  -2   9   11.66    6.93
  13   2  -9   37.63    9.62
  13  -2  -9   22.11    7.62
 -13  -2  -9   18.82    8.64
  13   2 -10   38.15   12.51
  13   2  10   71.33   26.99
  13  -2 -10   39.15   18.89
  13  -2  10   58.99   19.18
  13   2 -10   74.57   24.48
  13  -2 -10   54.54   16.89
 -13  -2 -10   46.08   14.78
  13   2  11    1.10    3.13
  13  -2  11    1.41    4.93
  13   2 -11   -2.75    6.23
  13  -2 -11   -4.02    6.61
 -13  -2 -11    3.54    3.26
  13   2  12   11.32    6.61
  13  -2  12    7.49    4.82
  13   2 -12   10.57    6.01
  13  -2 -12   12.35    7.22
 -13  -2 -12   16.13    4.17
  13   2  13   19.12    7.21
  13  -2  13   14.31    9.06
  13   2 -13   14.15   13.62
  13  -2 -13   17.38    9.98
 -13  -2 -13    9.07    6.37
  13   3   0   29.97    9.32
  13  -3   0   11.96    6.40
  13   3   0   13.59    4.23
  13  -3   0   17.85    9.28
  13   3  -1   56.17   10.95
  13   3   1   43.65   12.98
  13  -3   1   53.97   15.34
  13  -3  -1   41.18   19.22
  13   3   1   42.33   11.80
  13   3  -1   44.59   11.40
  13  -3  -1   43.64   11.67
  13  -3   1   32.55    7.63
  13   3   2   19.50   10.63
  13  -3  -2   21.59    8.20
  13  -3   2   18.61   12.95
  13   3   2   21.12    8.20
  13   3  -2   10.38    5.42
  13  -3  -2   15.54    6.72
  13  -3   2    5.91    4.54
  13   3  -3   48.51   20.36
  13   3   3   67.95   16.34
  13  -3   3   52.81   23.40
  13   3   3   55.64    9.02
  13   3  -3   50.65    6.62
  13  -3  -3   48.88   20.66
  13  -3   3   43.19   21.22
  13   3  -4   -4.79    6.86
  13   3   4    7.02    8.49
  13  -3  -4   -2.65    6.38
  13  -3   4   12.21    4.94
  13   3  -4    8.74    3.67
  13  -3  -4    8.36    4.25
  13  -3   4    2.27    2.05
  13   3  -5    3.03    3.35
  13   3   5   16.91    9.36
  13  -3  -5    6.82    3.06
  13  -3   5    6.17    3.94
  13   3  -5   -1.08    5.39
  13  -3  -5   16.96    7.57
  13  -3   5   10.37    4.02
  13   3  -6   46.73   10.65
  13   3   6   75.94   22.78
  13  -3  -6   61.19   24.01
  13  -3   6   79.61   28.72
  13   3  -6   62.98   21.16
  13  -3  -6   61.82   20.61
  13   3  -7   15.95    6.57
  13   3   7   11.34    5.40
  13  -3  -7    8.04    4.52
  13  -3   7   16.97    7.11
  13   3  -7   19.72    8.91
  13  -3  -7    9.44    4.90
 -13  -3  -7   19.11    5.62
  13   3  -8    3.57    3.61
  13   3   8   -4.69    7.58
  13  -3  -8    4.03    3.95
  13  -3   8   11.40    4.79
  13   3  -8    7.45    6.30
  13  -3  -8    6.44    4.67
 -13  -3  -8    2.13    3.67
  13   3  -9   16.66    4.94
  13   3   9    7.35    4.65
  13  -3  -9   18.35    5.12
  13  -3   9   20.94    6.00
  13   3  -9   19.60    8.09
  13  -3  -9   23.80    8.69
 -13  -3  -9   12.51    5.39
  13   3  10   60.66   21.72
  13  -3 -10   33.75    9.97
  13  -3  10   37.18   11.82
  13   3 -10   29.75    9.37
  13  -3 -10   43.76   16.08
 -13  -3 -10   35.87   17.54
  13   3  11   17.28    5.13
  13  -3  11   17.88    8.51
  13   3 -11   21.30    6.57
  13  -3 -11   25.11    7.58
 -13  -3 -11   10.83    4.23
  13   3  12   11.56   10.53
  13  -3  12   16.38    8.80
  13   3 -12   13.43    5.21
  13  -3 -12   15.72    8.10
 -13  -3 -12    4.12    3.80
  13   3  13   12.49    8.27
  13  -3  13   17.53    5.34
  13   3 -13   16.96    6.24
  13  -3 -13   16.33    8.97
 -13  -3 -13    7.99    4.45
  13   4   0   17.09    7.26
  13  -4   0   10.21    4.09
  13   4   0    9.46    4.34
  13  -4   0    5.22    3.42
  13   4  -1    9.93    4.16
  13   4   1   11.78    6.88
  13  -4   1   30.13    9.56
  13  -4  -1   16.89    5.10
  13   4   1   17.94    6.92
  13   4  -1   29.31    6.82
  13  -4  -1   20.20    6.54
  13  -4   1   27.52    7.65
  13   4   2    2.30    4.87
  13  -4  -2   12.17    6.55
  13  -4   2    1.20    7.52
  13   4   2    1.09    1.93
  13   4  -2    7.02    5.17
  13  -4  -2    7.92    2.91
  13  -4   2    8.06    4.21
  13   4  -3   13.43    7.26
  13   4   3    1.98    4.81
  13  -4   3   17.58    9.27
  13   4   3    4.84    2.30
  13   4  -3    9.90    6.67
  13  -4  -3    5.38    4.22
  13  -4   3    6.17    2.78
  13   4  -4   16.60    5.89
  13   4   4   42.80   18.25
  13  -4  -4   23.06    7.54
  13  -4   4   31.39    8.41
  13   4  -4   44.01   10.46
  13  -4  -4   20.42    5.21
  13  -4   4   19.62    8.11
  13   4  -5   40.14   14.32
  13   4   5   51.48   18.72
  13  -4  -5   51.03   12.30
  13  -4   5   54.66   15.52
  13   4  -5   63.74   15.11
  13  -4  -5   42.09   15.78
  13  -4   5   42.85   11.54
  13   4  -6    9.10    7.20
  13   4   6   10.78    5.30
  13  -4   6   -4.52    8.02
  13  -4  -6    7.26    3.81
  13   4  -6    4.21    3.10
  13  -4  -6   16.39    9.98
  13  -4   6    0.52    2.16
  13   4  -7   62.54   20.27
  13   4   7   90.15   31.73
  13  -4  -7   72.55   21.72
  13  -4   7   94.93   23.10
  13   4  -7   79.20   22.28
  13  -4  -7   64.11   17.75
 -13  -4  -7   87.82   25.68
  13   4  -8   55.52   15.98
  13   4   8   61.72   21.79
  13  -4  -8   55.91   17.54
  13  -4   8   72.26   18.03
  13   4  -8   69.27   29.48
  13  -4  -8   65.16   13.25
 -13  -4  -8   50.49   20.56
  13   4  -9   23.09    7.87
  13   4   9   19.92    9.38
  13  -4  -9   11.36    4.43
  13  -4   9   28.67   12.34
  13   4  -9   23.65   14.26
  13  -4  -9   30.93   11.87
 -13  -4  -9   21.89    9.82
  13   4  10   16.32    6.97
  13  -4 -10   10.92    5.26
  13  -4  10   15.55    6.91
  13   4 -10    3.06    3.06
  13  -4 -10   13.40    5.97
 -13  -4 -10   10.77    4.58
  13   4  11   17.66    8.02
  13  -4  11    7.28    3.65
  13   4 -11   18.59    7.86
  13  -4 -11   13.71    4.57
 -13  -4 -11   59.72   13.32
  13   4  12   13.99    4.97
  13  -4  12    8.09    3.72
  13   4 -12   -1.11    6.48
  13  -4 -12   12.13    5.89
 -13  -4 -12    6.81    5.24
  13   5   0   66.01   14.14
  13  -5   0   65.64   17.43
  13   5   0   54.31   16.20
  13  -5   0   60.21   14.45
  13   5  -1   16.73    7.05
  13   5   1   14.09    6.61
  13  -5   1   19.59    7.14
  13  -5  -1   13.57    5.64
  13   5   1   13.84    5.80
  13   5  -1   13.28    5.28
  13  -5  -1   15.36    4.87
  13  -5   1   24.80   11.65
  13   5  -2   -1.67    8.28
  13   5   2   -0.06    8.82
  13  -5  -2   17.83    8.17
  13  -5   2    8.25    4.88
  13   5   2    4.84    2.74
  13   5  -2    8.32    4.73
  13  -5   2    9.38    4.77
  13   5  -3   12.62    6.37
  13   5   3   20.71    6.56
  13  -5   3   22.74    5.24
  13   5   3   11.20    4.91
  13   5  -3   26.72    5.39
  13  -5  -3   28.04    9.16
  13  -5   3   16.50    5.18
  13   5  -4   62.74   18.33
  13   5   4   81.04   21.62
  13  -5   4   85.58   19.00
  13  -5  -4   52.45   24.65
  13   5  -4   90.42   14.64
  13  -5  -4   78.63   25.84
  13  -5   4   68.19   14.42
  13   5  -5    8.33    4.93
  13   5   5   12.71    5.81
  13  -5   5    6.72    3.90
  13  -5  -5   14.23    7.66
  13   5  -5   12.81    6.05
  13  -5  -5   17.88    8.84
  13  -5   5    6.80    2.34
  13   5  -6   34.20   17.61
  13   5   6   54.70   12.78
  13  -5   6   58.85   16.01
  13  -5  -6   42.49   10.70
  13   5  -6   51.31   15.39
  13  -5  -6   36.59   13.75
  13  -5   6   45.59   13.62
  13   5  -7   24.39    8.55
  13   5   7   26.64    8.55
  13  -5   7   30.40    9.91
  13  -5  -7   15.68    7.06
  13   5  -7   26.90    9.17
  13  -5  -7    9.16    4.88
 -13  -5  -7   29.57    6.88
  13   5  -8    6.34    4.11
  13   5   8    4.81    5.10
  13  -5  -8   13.26    5.13
  13  -5   8    5.00    7.51
  13   5  -8    5.67    4.92
  13  -5  -8   -0.19    7.02
 -13  -5  -8   10.41    4.45
  13   5  -9   29.35   12.74
  13   5   9   34.10   15.54
  13  -5  -9   21.63   10.32
  13  -5   9   47.39   13.74
  13   5  -9   35.92   10.56
  13  -5  -9   49.34   11.08
 -13  -5  -9   32.77   10.68
  13   5  10    5.28    5.72
  13  -5 -10    4.18    2.72
  13  -5  10    9.59    5.27
  13   5 -10   15.64    6.33
  13  -5 -10    5.78    3.64
 -13  -5 -10    8.24    6.42
  13   5  11    5.10    5.39
  13  -5  11    5.85    5.13
  13   5 -11    6.51    5.28
  13  -5 -11   -0.67    7.58
 -13  -5 -11    8.21    5.62
  13   5  12   20.86    8.16
  13  -5  12   32.61   12.55
  13   5 -12   23.65    9.92
  13  -5 -12   24.34    8.46
  13   6   0    5.96    5.78
  13  -6   0    3.79    6.30
  13   6   0    5.37    3.34
  13  -6   0    8.86    4.70
  13   6  -1   59.99   18.36
  13   6   1   71.25   25.61
  13  -6   1   72.84   22.70
  13  -6  -1   64.57   22.50
  13   6   1   64.67   22.44
  13   6  -1   56.90   16.98
  13  -6  -1   65.41   20.12
  13  -6   1   74.01   27.15
  13   6  -2   -1.20    7.58
  13   6   2   14.21    8.56
  13  -6   2    5.81    7.26
  13  -6  -2   22.30    8.21
  13   6   2    4.62    3.52
  13   6  -2    6.91    3.65
  13  -6  -2    7.87    5.41
  13  -6   2    4.26    5.39
  13   6   3   62.03   19.13
  13  -6   3   57.79   18.54
  13   6  -3   59.52   12.63
  13  -6  -3   58.78   18.70
  13  -6   3   65.65   15.00
  13   6  -4   20.19    8.62
  13   6   4   19.50   16.17
  13  -6   4   16.37    6.21
  13  -6  -4   19.81    7.74
  13   6  -4   19.13    6.98
  13  -6  -4   16.66    6.09
  13  -6   4   12.32    3.78
  13   6  -5   25.32    6.84
  13   6   5   23.19    9.80
  13  -6   5    9.82   13.48
  13  -6  -5   17.59    9.33
  13   6  -5   28.75    9.23
  13  -6  -5   43.76   16.45
  13  -6   5   20.93    6.17
  13   6  -6    8.84    3.90
  13   6   6   19.71   12.11
  13  -6   6   13.74    8.31
  13  -6  -6    0.34    2.92
  13   6  -6    5.01    7.98
  13  -6  -6    0.40    4.86
  13  -6   6   -0.34    3.44
  13   6  -7   10.77    5.55
  13   6   7   10.82    7.52
  13  -6   7   -0.56    8.95
  13  -6  -7    6.82    7.35
  13   6  -7    3.88    2.78
  13  -6  -7    6.68    5.11
  13   6  -8   12.47    7.17
  13   6   8   15.49   10.26
  13  -6   8   28.20    9.11
  13  -6  -8   19.95    4.88
  13   6  -8   24.85    7.42
  13  -6  -8   40.88   12.51
 -13  -6  -8   12.27    3.98
  13   6  -9    7.59    4.06
  13   6   9   17.24    9.30
  13  -6   9   17.44    6.67
  13  -6  -9    6.24    5.68
  13  -6  -9    3.14    4.53
 -13  -6  -9    5.43    3.64
  13   6  10    9.54    8.16
  13  -6  10   15.94    7.67
  13  -6 -10    7.34    5.22
  13   6 -10    7.23    5.04
  13  -6 -10    8.61    4.70
 -13  -6 -10    4.89    4.97
  13   6  11   13.45    8.82
  13  -6  11   25.95   11.50
  13   6 -11   30.11   12.22
  13  -6 -11   21.20   10.78
 -13  -6 -11    3.30    8.29
  13   7   0   18.33    6.25
  13  -7   0   13.68    6.65
  13   7   0   11.95    4.68
  13  -7   0   24.23    6.98
  13   7  -1   12.28    5.93
  13   7   1   23.06    8.08
  13  -7  -1    8.89    8.35
  13  -7   1   12.75    5.24
  13   7   1   19.62    6.02
  13   7  -1   17.46    4.42
  13  -7  -1   14.54    5.93
  13  -7   1   -0.78    6.24
  13   7  -2   19.33    8.79
  13   7   2   36.65   14.38
  13  -7   2   19.94    8.23
  13  -7  -2   18.87    6.78
  13   7   2   11.88    2.50
  13   7  -2    8.24    3.92
  13  -7  -2   11.44    4.22
  13  -7   2   14.83    5.66
  13   7   3   47.22   14.48
  13  -7   3   30.34   10.37
  13   7  -3   34.91   11.35
  13  -7  -3   20.69    8.98
  13  -7   3   32.78    8.49
  13   7  -4    7.59    2.93
  13   7   4    8.92   11.59
  13  -7   4    6.66    9.67
  13  -7  -4   17.47    6.91
  13   7  -4   17.76    6.87
  13  -7  -4   21.94   10.32
  13  -7   4   10.37    6.43
  13   7  -5   28.13   12.01
  13   7   5   27.79   12.33
  13  -7   5   54.16   15.98
  13  -7  -5   35.85    9.53
  13   7  -5   41.41   10.75
  13  -7  -5   51.09   14.67
  13  -7   5   25.81    7.03
  13   7  -6   45.23   14.50
  13   7   6   77.58   18.89
  13  -7   6   45.77   21.17
  13  -7  -6   33.34   15.06
  13   7  -6   41.74   15.18
  13  -7  -6   39.04   18.16
  13  -7   6   33.53   13.71
  13   7  -7   29.37    9.64
  13   7   7   17.40   10.24
  13  -7   7   36.75    7.31
  13  -7  -7   20.57   15.32
  13   7  -7   29.77   11.41
  13  -7  -7   36.03   11.62
  13   7  -8    8.52    5.07
  13   7   8   -2.56    8.75
  13  -7   8    8.04   10.11
  13  -7  -8    6.26    5.45
  13   7  -8    8.25    4.05
  13  -7  -8   16.62    9.36
 -13  -7  -8    9.42    3.87
  13   7  -9   26.02   12.40
  13   7   9   27.98    8.15
  13  -7   9   22.97   11.75
  13  -7  -9   26.66    7.32
  13   7  -9   26.14    9.24
  13  -7  -9   24.37   16.00
 -13  -7  -9   28.86    9.91
  13   7  10   12.98    6.14
  13  -7  10    7.81    9.71
  13  -7 -10   18.40    8.48
  13   7 -10   22.18    6.31
  13  -7 -10   12.28    5.84
 -13  -7 -10    8.40    5.37
  13   8   0    4.07    4.54
  13  -8   0    5.64    4.80
  13   8   0    7.56    4.55
  13  -8   0   13.22    7.83
  13   8  -1   -1.24    7.02
  13   8   1    7.23    6.15
  13  -8   1    7.08    7.16
  13  -8  -1   -0.39    6.56
  13   8   1    4.62    2.27
  13   8  -1   -3.88    3.55
  13  -8  -1   14.08    8.55
  13  -8   1   18.52    6.32
  13   8  -2    7.62    5.62
  13   8   2    1.09    8.55
  13  -8   2   12.35    6.07
  13  -8  -2   10.65    4.79
  13   8   2    2.86    1.30
  13   8  -2    8.19    2.82
  13  -8  -2    7.04    8.52
  13  -8   2   -0.34    5.93
  13   8   3   37.93   13.74
  13  -8   3   38.43   13.40
  13  -8  -3   20.57    8.51
  13   8  -3   30.05   11.19
  13  -8  -3   32.15    7.92
  13  -8   3   23.58    9.49
  13   8  -4   14.79    8.73
  13   8   4   20.78    8.26
  13  -8   4   16.69    5.79
  13   8  -4   12.42    5.78
  13  -8  -4   36.13    9.04
  13  -8   4   14.31    6.12
  13   8  -5   52.06   19.16
  13   8   5   57.06   21.27
  13  -8   5   81.76   20.85
  13  -8  -5   56.24   22.27
  13   8  -5   45.61   23.40
  13  -8  -5   60.03   14.94
  13  -8   5   56.81   18.82
  13   8  -6    7.23    4.22
  13   8   6   10.20    5.75
  13  -8   6   -6.06    7.60
  13  -8  -6    1.84    1.83
  13   8  -6    1.18    2.16
  13  -8  -6    7.63    7.99
  13  -8   6    3.68    2.56
  13   8  -7  117.98   17.83
  13   8   7   94.36   30.89
  13  -8   7   90.21   30.64
  13  -8  -7   68.70   22.99
  13   8  -7   83.51   31.80
  13  -8  -7   82.08   29.25
  13   8  -8    7.23    3.02
  13   8   8   10.85    5.69
  13  -8   8    9.75    6.13
  13  -8  -8   10.21    6.47
  13   8  -8   12.99    7.13
  13  -8  -8   18.20    9.94
  13   8  -9    1.22    4.01
  13   8   9   11.47    6.37
  13  -8   9   -1.81    7.49
  13  -8  -9   11.22    4.70
  13   8  -9   13.67    6.90
  13  -8  -9   20.78   11.61
  13   8  10    5.79    5.83
  13  -8  10    4.04    3.95
  13  -8 -10    3.35    3.58
  13   8 -10    3.29    2.54
  13  -8 -10    5.71    5.96
  13   9   0   -1.45    7.38
  13  -9   0   22.97   10.03
  13   9   0    5.58    3.63
  13  -9   0   -3.70    7.04
  13   9  -1   72.01   18.86
  13   9   1   51.40   12.45
  13  -9   1   50.13   18.07
  13  -9  -1   49.60   19.01
  13   9   1   37.92   11.52
  13   9  -1   50.87   14.02
  13  -9  -1   29.45   14.13
  13  -9   1   47.52   10.57
  13   9  -2    7.02    5.97
  13   9   2   14.73    7.06
  13  -9   2   13.82    6.70
  13  -9  -2    5.26    4.84
  13   9  -2    2.31    2.89
  13  -9  -2    4.87    4.44
  13  -9   2   12.72    5.28
  13   9   3   13.62    6.50
  13  -9   3    8.72    6.29
  13  -9  -3    3.02    4.92
  13   9  -3   24.57    7.07
  13  -9  -3    9.84    7.83
  13  -9   3   10.71    9.46
  13   9  -4    7.64    4.92
  13   9   4   15.73    6.54
  13  -9   4    8.11    7.68
  13   9  -4   11.24    4.54
  13  -9  -4    9.71    5.40
  13  -9   4    7.89    3.02
  13   9  -5   10.91    5.27
  13   9   5   12.68    5.91
  13  -9   5   16.87    8.52
  13  -9  -5   18.16    6.44
  13   9  -5    6.65    3.69
  13  -9  -5   21.62    8.60
  13  -9   5   22.06    6.14
  13   9  -6   28.98    8.55
  13   9   6   43.44   17.41
  13  -9   6   44.47   16.47
  13  -9  -6   34.19    8.09
  13   9  -6   26.73    9.23
  13  -9  -6   10.64   10.64
  13  -9   6   32.03   15.24
  13   9  -7    6.20    4.94
  13   9   7   14.87   10.14
  13  -9   7    3.31    9.11
  13  -9  -7    5.43    3.06
  13   9  -7    4.62    4.10
  13  -9  -7   -0.20    7.26
  13  -9   7   -1.80    4.24
  13   9  -8    4.93    6.59
  13   9   8    6.03    4.72
  13  -9   8   10.68    4.94
  13  -9  -8    2.78    6.53
  13   9  -8    7.52    4.58
  13  -9  -8    6.52    8.28
 -13  -9  -8    3.21    5.15
  13  10   0    4.06    3.57
  13 -10   0   -6.30    6.44
  13  10   0    4.96    3.95
  13 -10   0   13.56    9.41
  13  10  -1   29.66   15.99
  13  10   1   38.60   11.64
  13 -10   1   40.00   13.86
  13 -10  -1   38.88   13.09
  13  10   1   33.95   11.79
  13  10  -1   35.33   12.02
  13 -10  -1   37.35   12.39
  13 -10   1   33.90   16.73
  13  10  -2   33.70    9.00
  13  10   2   27.43   10.65
  13 -10   2   25.04   11.25
  13 -10  -2   41.42   14.10
  13  10  -2   21.19    7.03
  13 -10  -2   26.02    7.88
  13 -10   2   22.66   12.13
  13  10   3   16.35   10.36
  13 -10   3    8.24    8.34
  13 -10  -3    5.89    4.41
  13  10  -3    7.84    3.29
  13 -10  -3   10.15    6.13
  13 -10   3   13.06    8.03
  13  10  -4    9.96    4.69
  13  10   4   10.63    4.57
  13 -10   4    9.16    7.18
  13  10  -4   13.33    5.78
  13 -10  -4    7.96    5.43
  13  10   5   31.18   10.26
  13 -10   5   12.47    6.64
  13 -10  -5   11.95    4.28
  13  10  -5   14.14    7.51
  13 -10  -5   12.02    6.20
  13 -10   5   18.17    8.22
  13  10  -6   13.50    7.80
  13  10   6    6.69    4.63
  13 -10   6   -0.07    8.52
  13 -10  -6   12.84    6.41
  13  10  -6    0.96    4.66
  13 -10  -6   -2.42    7.92
  13 -10   6   11.27    4.34
  13  10  -7   19.43   10.54
  13  10   7   15.77    7.90
  13 -10   7   34.54   12.40
  13 -10  -7   32.80   20.63
  13  10  -7   10.04    4.35
  13 -10  -7   12.37    7.29
  13 -10   7    8.79    5.86
  13  11   0   25.33   12.15
  13 -11   0    9.12   12.07
  13  11   0   18.50    8.86
  13 -11   0   25.29    7.17
  13  11  -1   13.19    5.00
  13  11   1    5.37    8.32
  13 -11   1    9.59    6.08
  13 -11  -1   27.70   12.42
  13  11  -1   12.34    4.64
  13 -11  -1   -1.47    8.32
  13 -11   1   24.88   12.87
  13  11  -2   16.44    6.12
  13  11   2   14.47    5.67
  13 -11   2   21.41   12.35
  13 -11  -2   22.79   11.48
  13  11  -2   15.36    5.81
  13 -11  -2   35.79   13.08
  13 -11   2   14.22   10.16
  13  11  -3   14.86    5.61
  13  11   3    8.41    6.08
  13 -11   3   11.97    9.63
  13 -11  -3    5.69    5.68
  13  11  -3    8.25    6.39
  13 -11  -3    8.39    4.62
  13  11  -4    1.59    7.11
  13  11   4   16.20    7.39
  13 -11   4    5.20    7.08
  13 -11  -4    8.02    4.09
  13 -11  -4   19.52   11.63
  13  11  -5   46.29   16.70
  13  11   5   34.22   13.61
  13 -11   5   45.30   23.94
  13 -11  -5   32.48    9.54
  13  11  -5   40.32   12.83
  13 -11  -5   17.68    7.70
  13 -11   5   25.75    6.23
  14   0   0  226.53   34.82
  14   0   0  260.30   12.09
  14   0  -1   21.11    8.76
  14   0   1   25.82   11.91
  14   0   1   23.84    7.82
  14   0  -1   24.51    7.65
  14   0   2   10.19    5.98
  14   0   2    5.52    4.57
  14   0  -2    5.50    3.73
  14   0  -3   25.49    9.57
  14   0   3   21.26    7.30
  14   0   3   18.99    6.85
  14   0  -3    9.49    5.04
  14   0  -4   41.05   16.10
  14   0   4   61.66   20.66
  14   0  -4   52.97   13.11
  14   0  -5   23.40    7.83
  14   0   5   52.66   18.19
  14   0  -5   42.94   11.47
 -14   0  -5   38.85    9.71
  14   0  -6    7.25    4.11
  14   0   6   -3.37    9.32
  14   0  -6   11.56    5.14
 -14   0  -6    1.42    1.78
  14   0  -7   12.71    5.18
  14   0   7   14.96    9.62
  14   0  -7    5.32    4.65
  14   0  -8   19.53    8.36
  14   0   8   39.74    8.11
  14   0  -8   41.72    9.62
  14   0  -9    7.21    3.93
  14   0   9    7.86    7.72
  14   0  -9   11.30    3.48
  14   0  10   14.72    6.09
  14   0 -10    7.96    5.70
  14   0  11   10.03    6.08
  14   0 -11   21.36    8.22
  14   1   0    3.59    5.10
  14  -1   0    9.09    6.02
  14   1   0   13.42    5.67
  14  -1   0    2.02    2.75
  14   1  -1   44.27   12.00
  14   1   1   57.74   17.80
  14  -1  -1   33.08   13.68
  14  -1   1   53.99   16.43
  14   1   1   36.01    9.89
  14   1  -1   34.21    9.96
  14  -1  -1   31.49    9.60
  14  -1   1   48.82   15.74
  14   1   2   20.63    7.06
  14  -1  -2   13.31    6.91
  14  -1   2   13.14    9.96
  14   1   2   17.64    6.66
  14   1  -2   14.84    6.13
  14  -1   2   21.15    6.14
  14  -1  -2   13.95    5.01
  14   1  -3   77.20   23.09
  14   1   3   73.44   28.34
  14  -1   3   71.05   23.41
  14   1   3   68.30   10.96
  14   1  -3   73.31   18.55
  14  -1   3   58.53   18.99
  14  -1  -3   57.68   18.81
  14   1  -4   20.89    8.69
  14   1   4   12.37   11.77
  14  -1  -4   20.03    9.44
  14  -1   4   21.13   12.72
  14   1  -4    9.95    6.15
  14  -1  -4   23.02    6.25
  14   1  -5   -2.04    5.75
  14   1   5   -1.00    9.35
  14  -1  -5    9.44    4.18
  14  -1   5   17.30    7.78
  14   1  -5    3.95    5.14
  14  -1  -5    3.71    3.48
 -14  -1  -5    3.46    4.20
  14   1  -6    2.96    5.42
  14   1   6   -0.33    9.66
  14  -1  -6    3.74    3.80
  14  -1   6   15.64   10.80
  14   1  -6   16.16    5.11
  14  -1  -6   11.27    3.71
 -14  -1  -6    2.98    2.37
  14   1  -7    7.99    6.68
  14   1   7    0.05    7.42
  14  -1  -7    5.76    4.52
  14  -1   7    6.15    9.30
  14   1  -7   10.35    5.87
  14  -1  -7    4.09    3.11
 -14  -1  -7    3.29    2.74
  14   1  -8    8.76    6.72
  14   1   8    5.12    6.30
  14  -1  -8    5.25    2.61
  14  -1   8    9.21   12.08
  14   1  -8   10.32    6.10
  14  -1  -8   11.10    6.21
 -14  -1  -8   17.15    6.07
  14   1  -9   47.95   18.15
  14   1   9   64.79   33.84
  14  -1  -9   37.61   13.61
  14  -1   9   66.37   23.61
  14   1  -9   71.04   18.96
  14  -1  -9   62.93   23.51
  14   1  10    7.59    7.95
  14  -1  10    5.79    5.78
  14   1 -10   13.92    5.30
  14  -1 -10   -2.96    6.52
  14   1  11   15.68    9.98
  14  -1  11   17.82    5.08
  14   1 -11   -3.45    6.18
  14  -1 -11    0.22    5.10
  14   2   0   29.51   13.26
  14  -2   0   25.49   11.47
  14   2   0   17.53    5.32
  14  -2   0   19.37    5.72
  14   2  -1   18.29   10.56
  14   2   1   25.45   13.08
  14  -2  -1   26.07   12.30
  14  -2   1   40.40   12.28
  14   2   1   14.69    5.72
  14   2  -1   27.78    7.83
  14  -2  -1   27.95   11.20
  14  -2   1   22.70    6.62
  14   2   2   23.45   10.46
  14  -2  -2   29.20    9.11
  14  -2   2   11.27    6.57
  14   2   2    9.50    3.65
  14   2  -2   23.11    9.29
  14  -2  -2   12.31    8.05
  14  -2   2   20.01    9.71
  14   2  -3   15.44    8.78
  14   2   3   30.25   10.32
  14  -2   3    6.63    5.79
  14   2  -3   11.45    4.24
  14  -2  -3   13.91    7.97
  14  -2   3    7.13    3.15
  14   2  -4   12.25    5.05
  14   2   4   29.95   14.73
  14  -2   4   35.37    9.06
  14   2  -4   20.74    9.03
  14  -2  -4   10.45   10.27
  14  -2   4   10.32    4.33
  14   2  -5   30.53   15.11
  14   2   5   19.94    6.19
  14  -2  -5   30.98   14.28
  14  -2   5   43.74   13.56
  14   2  -5   29.67    7.17
  14  -2  -5   26.50    8.49
  14   2  -6   35.99   10.61
  14   2   6   42.16   16.44
  14  -2  -6   54.42   16.35
  14  -2   6   59.82   12.71
  14   2  -6   51.68   21.16
  14  -2  -6   54.02   20.01
 -14  -2  -6   50.23   12.89
  14   2  -7   19.63    7.65
  14   2   7   14.24    8.72
  14  -2  -7   16.90    6.60
  14  -2   7   19.69    9.04
  14   2  -7   10.63    6.18
  14  -2  -7   11.87    9.14
 -14  -2  -7   10.60    5.41
  14   2  -8    8.65    3.78
  14   2   8    5.41    5.90
  14  -2  -8    8.79    3.89
  14  -2   8    9.97    9.38
  14   2  -8    9.50    5.64
  14  -2  -8    8.11    5.01
 -14  -2  -8    8.89    5.40
  14   2  -9    7.93    5.13
  14   2   9    7.46    4.92
  14  -2   9   25.51   15.11
  14   2  -9   18.36    8.50
  14  -2  -9   16.64    5.75
 -14  -2  -9   26.06    9.25
  14   2  10   29.03   11.51
  14  -2  10   27.30    8.44
  14   2 -10   34.83   10.14
  14  -2 -10   13.77    7.24
 -14  -2 -10    9.54    4.29
  14   2  11   23.08    8.71
  14  -2  11   22.70    8.22
  14   2 -11   37.42   13.76
  14  -2 -11   12.39    8.32
  14   3   0   33.16    7.32
  14  -3   0   40.65   13.05
  14   3   0   26.00    7.77
  14  -3   0   29.93   10.34
  14   3  -1   13.32    8.39
  14   3   1   11.62    5.66
  14  -3  -1   -1.66    6.90
  14  -3   1   20.33    7.95
  14   3   1   -1.68    2.97
  14   3  -1    5.21    4.69
  14  -3  -1    1.74    3.94
  14  -3   1   12.47    5.63
  14   3  -2    7.16    6.73
  14   3   2   22.92   10.52
  14  -3   2   19.16   10.16
  14  -3  -2   12.52    4.73
  14   3   2   10.82    4.09
  14   3  -2   15.54    6.75
  14  -3  -2   13.04    6.00
  14  -3   2   15.55    6.51
  14   3   3   42.06   15.91
  14  -3   3   20.34    8.34
  14   3  -3   23.69   13.32
  14  -3  -3   27.57   11.35
  14  -3   3   20.78    6.78
  14   3  -4   26.54    6.13
  14   3   4   20.73   10.98
  14  -3  -4   19.43    7.72
  14  -3   4    6.34    6.64
  14   3  -4   11.21    5.64
  14  -3  -4    5.14    6.91
  14  -3   4    6.41    2.37
  14   3  -5   21.39    8.42
  14   3   5   16.28    6.83
  14  -3  -5   25.21    6.98
  14  -3   5   22.68    7.60
  14   3  -5    9.97    7.53
  14  -3  -5   23.30    7.96
  14   3  -6   25.33   11.04
  14   3   6   27.23   14.48
  14  -3  -6   24.81   16.27
  14  -3   6   36.44   12.84
  14   3  -6   33.81   12.36
  14  -3  -6   34.81   11.82
 -14  -3  -6   23.72    7.70
  14   3  -7   37.47   12.91
  14   3   7   50.24   13.94
  14  -3  -7   30.61    9.20
  14  -3   7   24.62    8.66
  14   3  -7   30.11    9.71
  14  -3  -7   22.52    7.93
 -14  -3  -7   31.30   14.06
  14   3  -8    2.71    3.76
  14   3   8   13.59    6.79
  14  -3  -8    8.62    4.29
  14  -3   8    1.93    7.73
  14   3  -8   15.05    5.90
  14  -3  -8   16.21   10.75
 -14  -3  -8    5.45    3.46
  14   3  -9   23.81    9.31
  14   3   9   26.14   15.15
  14  -3  -9   20.79   10.33
  14  -3   9   38.52   13.47
  14   3  -9   14.39   15.17
  14  -3  -9   18.14    9.99
 -14  -3  -9   27.79   15.18
  14   3  10   18.99    8.11
  14  -3  10   17.11    7.37
  14   3 -10   10.76    6.89
  14  -3 -10   19.16    6.90
 -14  -3 -10   -1.45    4.39
  14   3  11   19.14    8.67
  14  -3  11   16.51    6.04
  14   3 -11    6.75    4.52
  14  -3 -11   13.66    3.90
 -14  -3 -11    7.82    3.83
  14   4   0   12.46    4.60
  14  -4   0    2.50    5.25
  14   4   0    6.75    2.91
  14  -4   0    6.38    3.47
  14   4  -1   42.34    9.87
  14   4   1   56.44   12.80
  14  -4  -1   46.59   21.11
  14  -4   1   61.73   16.18
  14   4   1   44.06   16.67
  14   4  -1   41.81   14.08
  14  -4  -1   48.95   13.05
  14  -4   1   32.74   13.55
  14   4  -2    8.82    6.52
  14   4   2   11.36    4.69
  14  -4   2   24.37   10.21
  14  -4  -2   10.26    4.49
  14   4   2   -0.64    2.49
  14   4  -2    2.20    2.83
  14  -4  -2    8.91    6.62
  14  -4   2    4.57    3.25
  14   4  -3   29.05    8.52
  14   4   3   29.95   10.48
  14  -4   3   20.57   10.67
  14   4  -3   23.52    5.00
  14  -4  -3   17.39    6.84
  14  -4   3    9.52    4.17
  14   4  -4   20.12    7.17
  14   4   4   18.89   12.37
  14  -4  -4   17.26    6.75
  14  -4   4   39.78   12.39
  14   4  -4   25.57    9.83
  14  -4  -4    7.54    6.95
  14  -4   4   17.97    6.44
  14   4  -5   18.72    8.10
  14   4   5   34.77   10.97
  14  -4  -5   30.87    7.42
  14  -4   5   24.13   11.63
  14   4  -5   23.79    7.13
  14  -4  -5   56.77   19.22
  14   4  -6    7.77    4.36
  14   4   6   12.43    8.38
  14  -4  -6    9.13    6.81
  14  -4   6   14.68    6.42
  14   4  -6    5.68    2.80
  14  -4  -6   12.56    5.28
  14   4  -7   20.24    7.75
  14   4   7    8.91    6.33
  14  -4  -7   -1.15    5.32
  14  -4   7   21.55    9.99
  14   4  -7   16.50    4.68
  14  -4  -7   10.90    3.80
 -14  -4  -7   14.17    4.93
  14   4  -8   31.85   14.91
  14   4   8   54.09   19.89
  14  -4  -8   23.15    6.58
  14  -4   8   39.72    8.81
  14   4  -8   38.77   14.11
  14  -4  -8   41.62    9.43
 -14  -4  -8   35.77   12.79
  14   4  -9    4.24    2.70
  14   4   9   10.72    5.94
  14  -4  -9    9.28    4.98
  14  -4   9    8.81    6.97
  14   4  -9    5.28    4.43
  14  -4  -9   -1.17    6.85
 -14  -4  -9    6.44    5.07
  14   4  10   16.20    4.73
  14  -4  10   -1.54    7.93
  14   4 -10   -2.20    5.38
  14  -4 -10   12.62    4.76
 -14  -4 -10    5.45    4.64
  14   5   0   16.87   11.55
  14  -5   0   12.11    9.39
  14   5   0    8.46    3.58
  14  -5   0    9.77    5.71
  14   5  -1    3.56    3.46
  14   5   1   11.75    5.66
  14  -5   1   18.14    6.80
  14  -5  -1   14.32    4.54
  14   5   1   15.81    5.36
  14   5  -1    8.43    3.09
  14  -5  -1   19.78    6.98
  14  -5   1    9.84    6.18
  14   5  -2   17.50   12.18
  14   5   2   38.92   16.27
  14  -5  -2   23.24    5.65
  14  -5   2   33.50   11.82
  14   5  -2   17.75    5.79
  14  -5  -2   26.70   11.70
  14  -5   2   24.05    7.22
  14   5   3   25.71    9.69
  14  -5   3   31.10   17.16
  14   5  -3   28.54   12.09
  14  -5  -3   20.10    7.04
  14  -5   3   10.41    3.82
  14   5  -4   31.65   18.54
  14   5   4   44.28    9.96
  14  -5  -4   35.90   15.80
  14  -5   4   23.85   12.14
  14   5  -4   31.92   14.16
  14  -5  -4   17.19    6.80
  14  -5   4   24.48   11.28
  14   5  -5    7.90    3.81
  14   5   5   16.83   11.67
  14  -5  -5   11.59    6.07
  14  -5   5   10.18   10.74
  14   5  -5   15.16    4.63
  14  -5  -5   -0.02    4.98
  14  -5   5   14.19    6.03
  14   5  -6    5.89    4.32
  14   5   6   24.52    7.47
  14  -5   6   15.08    7.45
  14  -5  -6    5.72    3.86
  14   5  -6   12.36    9.27
  14  -5  -6   11.88    3.62
  14   5  -7    7.65    3.39
  14   5   7   11.42    5.51
  14  -5  -7    7.09    5.47
  14  -5   7    5.67    5.19
  14   5  -7    6.51    2.62
  14  -5  -7    5.20    4.04
 -14  -5  -7    4.53    7.11
  14   5  -8   28.15   11.27
  14   5   8   35.58   14.82
  14  -5  -8   20.49   10.05
  14  -5   8   56.00   16.45
  14   5  -8   40.03    7.64
  14  -5  -8   43.98   10.30
 -14  -5  -8   29.27   10.40
  14   5  -9    6.96    3.02
  14   5   9   14.38   10.07
  14  -5  -9    2.27    2.62
  14  -5   9    0.66    4.17
  14   5  -9    9.80    6.82
  14  -5  -9   19.69    8.93
 -14  -5  -9   12.08    5.84
  14   5  10   24.28    8.15
  14  -5  10   27.67    8.41
  14   5 -10    8.56    6.65
  14  -5 -10    5.86    6.25
 -14  -5 -10    5.60    4.77
  14   6   0   12.42    6.53
  14  -6   0    4.65    5.32
  14   6   0    6.29    2.96
  14  -6   0   -1.98    5.30
  14   6  -1   17.82    5.31
  14   6   1   17.33    7.70
  14  -6  -1    6.13    3.48
  14  -6   1    4.93    8.34
  14   6   1    4.29    1.39
  14   6  -1    9.00    2.38
  14  -6  -1   -3.63    5.47
  14  -6   1   12.25    5.05
  14   6  -2   38.36   16.59
  14   6   2   26.48    9.22
  14  -6   2   27.54    8.50
  14  -6  -2   24.60    8.96
  14   6  -2   26.96   14.77
  14  -6  -2   39.24   12.88
  14  -6   2   22.48    7.09
  14   6   3    3.70    9.52
  14  -6   3   12.90    4.48
  14   6  -3   14.15    7.22
  14  -6  -3    8.16    7.83
  14  -6   3    2.58    4.76
  14   6  -4   19.96    7.86
  14   6   4    3.22    6.02
  14  -6   4   15.87    5.77
  14  -6  -4    3.45    6.41
  14   6  -4   17.80    5.80
  14  -6  -4    9.18    4.97
  14  -6   4   13.18    2.77
  14   6  -5   42.13   14.47
  14   6   5   46.70   14.56
  14  -6   5   60.77   12.06
  14  -6  -5   42.77   13.09
  14   6  -5   35.50   13.19
  14  -6  -5   45.01    9.38
  14  -6   5   27.20   17.15
  14   6  -6   10.79    6.57
  14   6   6   10.30    7.04
  14  -6   6   13.71    4.63
  14  -6  -6   10.31    4.52
  14   6  -6    9.01    2.97
  14  -6  -6   19.82    8.29
  14   6  -7   27.93   10.93
  14   6   7   26.97   12.56
  14  -6   7   17.74    6.71
  14  -6  -7   28.45   12.35
  14   6  -7   28.04   11.72
  14  -6  -7   35.35   14.82
 -14  -6  -7   27.89   11.26
  14   6  -8    6.61    5.77
  14   6   8   12.46    8.00
  14  -6  -8    4.63    2.80
  14  -6   8   13.23    4.18
  14   6  -8   17.25    8.70
  14  -6  -8    3.60    5.99
 -14  -6  -8    2.57    2.67
  14   6  -9    2.63    2.61
  14   6   9    1.57    6.80
  14  -6  -9   10.63    7.65
  14  -6   9   11.06    7.63
  14   6  -9   18.07    8.86
  14  -6  -9    8.73    7.15
 -14  -6  -9    6.95    3.84
  14   7   0   28.91   11.77
  14  -7   0   28.73   10.15
  14   7   0   11.78    7.69
  14  -7   0   17.46    6.71
  14   7  -1   10.75    5.67
  14   7   1   16.05    6.15
  14  -7   1   16.32    7.97
  14  -7  -1    9.21    4.57
  14   7   1    7.62    3.77
  14   7  -1   13.30    6.78
  14  -7  -1   10.48    6.59
  14  -7   1   11.35    5.66
  14   7  -2   23.41    8.04
  14   7   2   36.29   15.33
  14  -7   2   10.28    6.29
  14  -7  -2   19.39    6.71
  14   7  -2   19.28   10.59
  14  -7  -2   21.91    5.23
  14  -7   2   19.28    7.88
  14   7   3    1.08    4.79
  14  -7   3    2.75    3.11
  14  -7  -3   20.22    7.70
  14   7  -3    3.60    3.07
  14  -7  -3    5.80    3.85
  14  -7   3    3.30    3.08
  14   7  -4   37.20    8.70
  14   7   4   20.72   11.76
  14  -7   4   33.10   15.40
  14  -7  -4   34.25   10.07
  14   7  -4   31.71   14.07
  14  -7  -4   25.03   13.46
  14  -7   4   24.40    9.38
  14   7  -5    7.87    4.66
  14   7   5   11.30    7.12
  14  -7   5   15.61    6.13
  14  -7  -5    9.75    4.78
  14   7  -5    7.85    4.57
  14  -7   5    7.88    3.27
  14   7  -6   28.90    9.60
  14   7   6   38.24   17.19
  14  -7   6   42.52   22.72
  14  -7  -6   41.18   15.90
  14   7  -6   47.27   17.97
  14  -7  -6   27.46   13.26
  14   7  -7    5.63    5.65
  14   7   7    2.81    4.13
  14  -7   7    9.08    4.32
  14  -7  -7   15.92    7.43
  14   7  -7    4.55    5.37
  14  -7  -7    4.86    3.65
  14   7  -8   28.07   12.44
  14   7   8   27.86   13.08
  14  -7   8   31.85   12.56
  14  -7  -8   28.24   11.83
  14   7  -8   26.32   12.61
  14  -7  -8   29.65   11.56
 -14  -7  -8   31.18   13.22
  14   8   0   20.40    9.22
  14  -8   0   19.15   10.15
  14   8   0   25.51   12.51
  14  -8   0   36.03   12.99
  14   8  -1   14.16    8.64
  14   8   1   16.87    9.32
  14  -8  -1   21.70   10.24
  14  -8   1   15.81    6.15
  14   8  -1   24.10   12.52
  14  -8  -1   24.29    8.06
  14  -8   1   10.08    8.74
  14   8  -2   11.32    9.26
  14   8   2   10.59   10.31
  14  -8   2   11.24    7.49
  14  -8  -2   12.26    6.98
  14   8  -2    7.54    2.89
  14  -8  -2    7.91    3.97
  14  -8   2    3.64    5.11
  14   8   3   18.76    8.78
  14  -8   3    6.05    7.23
  14  -8  -3   13.87    4.72
  14   8  -3   10.20    5.75
  14  -8  -3   -1.06    6.56
  14  -8   3    7.83    3.10
  14   8  -4   17.59    7.46
  14   8   4   31.41   16.30
  14  -8   4   30.01   11.72
  14   8  -4   35.36    9.51
  14  -8  -4   20.63    7.47
  14  -8   4   34.64   15.29
  14   8  -5   14.49    5.35
  14   8   5   15.78    8.00
  14  -8   5   20.54   12.92
  14  -8  -5   16.00    5.58
  14   8  -5   24.68   10.99
  14  -8  -5   15.33    9.51
  14  -8   5    8.98    4.99
  14   8  -6   11.13    6.45
  14   8   6   10.73   10.96
  14  -8   6   16.29   10.22
  14   8  -6    4.37    4.27
  14  -8  -6   -3.85    7.58
  14   8  -7    2.59    3.96
  14   8   7    6.30    4.84
  14  -8   7   12.21    5.39
  14  -8  -7    7.49    3.82
  14   8  -7   13.66    6.28
  14  -8  -7    8.13    5.80
  14   9   0   19.86   12.97
  14  -9   0   12.39    5.74
  14   9   0   16.68    6.44
  14  -9   0   20.30   10.83
  14   9  -1   -3.90    6.40
  14   9   1   -3.76    7.43
  14  -9   1    7.02    5.16
  14  -9  -1   13.00    7.93
  14   9  -1    8.53    4.42
  14  -9  -1    3.59    5.33
  14  -9   1    9.57    4.30
  14   9  -2   12.21    6.42
  14   9   2   15.89    9.05
  14  -9   2   27.90   11.19
  14  -9  -2   16.11    7.76
  14   9  -2   15.49    6.19
  14  -9  -2   16.76    8.24
  14  -9   2   18.77    9.75
  14   9   3   10.94    7.69
  14  -9   3   15.24    7.45
  14  -9  -3   21.68   11.96
  14   9  -3    5.01    3.67
  14  -9  -3   29.12   10.51
  14  -9   3    5.22    5.65
  14   9  -4   16.16    5.24
  14   9   4   19.45   10.81
  14  -9   4   10.34    7.95
  14   9  -4    8.40    3.62
  14  -9  -4   12.74    7.40
  14  -9   4    7.82    3.90
  14   9  -5   21.71    8.09
  14   9   5   19.90    7.60
  14  -9   5   15.87    5.34
  14  -9  -5   14.22    6.31
  14   9  -5   24.92   12.59
  14  -9  -5    5.62    5.68
  14  -9   5   11.22    3.66
  14   9  -6    7.25    5.09
  14   9   6   -1.21    9.07
  14  -9   6   12.55    6.28
  14  -9  -6    3.42    3.91
  14  -9  -6   10.54    3.42
  14  10   0    6.24    6.24
  14 -10   0    8.57    6.65
  14 -10   0    3.64    8.15
  14  10  -1   30.07   13.48
  14  10   1   32.36   12.79
  14 -10   1   23.30   14.17
  14 -10  -1   36.92   14.66
  14  10  -1   19.69    7.49
  14 -10  -1   15.39    8.11
  14 -10   1   12.70    6.70
  14  10  -2   -0.58    6.76
  14  10   2    4.95    6.78
  14 -10   2   12.93    7.30
  14 -10  -2    8.85    9.28
  14  10  -2    7.72    3.72
  14 -10  -2   14.05    5.26
  14 -10   2   14.12    6.96
  14  10   3   19.93    8.22
  14 -10   3   13.36    6.37
  14 -10  -3   21.16    6.66
  14  10  -3    4.34    3.47
  14 -10  -3   28.32    6.99
  14 -10   3   20.02    5.29
  15   0   0    8.35    6.92
  15   0   0    5.64    3.59
  15   0  -1   34.03   14.08
  15   0   1   33.91   14.55
  15   0  -1   47.82   13.59
  15   0  -2   28.05    9.87
  15   0   2   46.78   10.58
  15   0   2   26.80   12.07
  15   0  -2   33.93   10.92
  15   0  -3   23.59    6.07
  15   0   3   37.62   17.61
  15   0  -3   30.90    9.82
  15   0  -4    7.21    5.47
  15   0   4    0.15    3.89
  15   0  -4    7.50    4.38
  15   0  -5   -4.72    6.46
  15   0   5   11.97    7.99
  15   0  -5   12.71    5.19
  15   0  -6   -3.60    6.78
  15   0   6   18.47   11.30
  15   0  -6    7.90    4.94
  15   0  -7   10.18    6.88
  15   0   7   21.30   11.13
  15   0  -7    8.27    3.52
  15   0  -8   12.44    5.59
  15   0   8   30.38   11.68
  15   0  -8    5.98    4.75
  15   0  -9   13.12    5.70
  15   0   9   14.07    7.74
  15   0  -9   16.05    6.73
  15   1   0   16.04    7.78
  15  -1   0   -6.42    7.34
  15   1   0    4.41    3.40
  15  -1   0    6.14    3.43
  15   1  -1   23.30   10.11
  15   1   1   19.15   11.92
  15  -1  -1   33.32   15.37
  15  -1   1   20.04    8.09
  15   1   1   28.89   11.57
  15   1  -1   12.03    8.26
  15  -1   1   19.44    6.91
  15  -1  -1   31.88   12.02
  15   1  -2   54.82   15.40
  15   1   2   59.73   20.95
  15  -1  -2   59.86   25.46
  15  -1   2   51.28   25.93
  15   1  -2   46.00   11.44
  15  -1   2   36.59   17.21
  15  -1  -2   50.48   17.31
  15   1  -3   14.53    6.90
  15   1   3    7.22    8.39
  15  -1   3    2.14    5.34
  15   1  -3   24.30    7.42
  15  -1  -3   11.15    3.77
  15   1  -4    9.54    8.77
  15   1   4   16.14    9.41
  15  -1  -4    6.85    6.05
  15  -1   4   10.00    4.93
  15   1  -4    6.77    4.63
  15  -1  -4   12.96    6.04
  15   1  -5   27.31    6.77
  15   1   5   29.45   12.08
  15  -1  -5   24.33    6.20
  15  -1   5   27.62   10.56
  15   1  -5   27.06    9.84
  15  -1  -5   15.11    5.17
  15   1  -6    7.12    4.66
  15   1   6   12.22    6.95
  15  -1  -6   13.97    6.51
  15  -1   6   17.35    8.26
  15   1  -6   15.89    6.02
  15  -1  -6    8.87    4.22
  15   1  -7   23.13    9.55
  15   1   7   35.65   11.49
  15  -1  -7   17.69   10.53
  15  -1   7   37.64   12.52
  15   1  -7   33.54   10.38
  15  -1  -7   27.61    6.57
  15   1  -8    9.86    3.69
  15   1   8    6.05    9.53
  15  -1  -8    1.16    2.42
  15  -1   8   15.45   11.56
  15   1  -8   12.82    5.45
  15  -1  -8   -0.08    6.53
  15   1  -9    8.41    5.33
  15  -1  -9    4.35    3.13
  15   1   9    9.97    5.92
  15  -1   9   -9.04    9.12
  15   1  -9   18.22    7.31
  15  -1  -9   18.21    7.89
  15   2   0   19.72   13.41
  15  -2   0   14.36    5.46
  15   2   0    4.05    1.68
  15  -2   0   10.99    4.54
  15   2  -1    3.70    9.13
  15   2   1    7.29    5.88
  15  -2   1    1.57    5.72
  15  -2  -1   -2.20    6.57
  15   2   1    3.60    1.92
  15   2  -1    2.29    2.20
  15  -2  -1    4.28    3.28
  15  -2   1    7.34    5.07
  15   2  -2   10.59    6.84
  15   2   2   13.13    9.80
  15  -2  -2   16.63    7.70
  15  -2   2   11.20    9.28
  15   2  -2    4.33    2.38
  15  -2   2    1.10    2.50
  15  -2  -2    1.32    3.47
  15   2   3   15.20   11.23
  15  -2   3   16.35    8.24
  15   2  -3   16.87    5.73
  15  -2  -3   28.28    5.90
  15   2  -4   29.58   10.01
  15   2   4   14.71    8.97
  15  -2  -4   32.97    9.01
  15  -2   4   22.19   19.56
  15   2  -4   20.49   15.71
  15  -2  -4   21.29    5.73
  15   2  -5    9.31    3.99
  15   2   5   19.30    7.79
  15  -2  -5    5.25    4.31
  15  -2   5   -5.20    7.72
  15   2  -5    2.91    2.30
  15  -2  -5    6.39    3.28
  15   2  -6   17.96   10.36
  15   2   6    9.95    8.06
  15  -2  -6   14.10    6.56
  15   2  -6   11.07    4.29
  15  -2  -6   14.24    5.53
 -15  -2  -6    5.75    3.12
  15   2  -7   11.32    4.67
  15   2   7   46.32   12.06
  15  -2  -7   15.96    9.40
  15  -2   7   13.94    6.35
  15   2  -7   21.96   10.05
  15  -2  -7   21.59    7.76
 -15  -2  -7   17.36    5.60
  15   2  -8   22.00    6.62
  15   2   8   39.25   13.61
  15  -2  -8   23.72   10.16
  15  -2   8   30.09   10.68
  15   2  -8   37.73   16.31
  15  -2  -8   32.11   15.62
  15   2  -9    8.85    6.00
  15   2   9   15.52    7.88
  15  -2  -9   14.36    8.23
  15  -2   9    8.92    4.61
  15   2  -9   31.35   11.88
  15  -2  -9   27.86   12.90
  15   3   0   31.42    8.40
  15  -3   0   18.40    7.45
  15   3   0   26.60    6.94
  15  -3   0   20.71   12.32
  15   3  -1   15.40    5.01
  15   3   1   21.98    9.77
  15  -3  -1   18.13    5.94
  15  -3   1   28.16   10.26
  15   3   1   13.42    6.46
  15   3  -1   14.44    6.01
  15  -3  -1   17.37    5.33
  15  -3   1   14.40    5.29
  15   3  -2   19.08   10.89
  15   3   2    5.21    5.77
  15  -3  -2   10.48    6.49
  15  -3   2   -3.49    7.31
  15   3  -2    8.87    4.37
  15  -3  -2    2.13    2.51
  15  -3   2    9.79    5.64
  15   3  -3   17.95   10.83
  15   3   3   -0.76    8.00
  15  -3   3    7.74    6.31
  15   3  -3    5.40    4.50
  15  -3  -3   23.85   10.67
  15  -3   3    0.12    2.02
  15   3  -4   21.15   13.78
  15   3   4   45.47   20.71
  15  -3  -4   43.75   14.89
  15  -3   4   31.32    9.27
  15   3  -4   35.54   18.82
  15  -3  -4   42.99   12.86
  15   3  -5   20.12    9.32
  15   3   5   23.55    7.77
  15  -3  -5   28.85    9.19
  15  -3   5   19.14    9.44
  15   3  -5   26.65   10.17
  15  -3  -5   21.83    7.62
  15   3  -6    4.59    7.65
  15   3   6   -1.78    9.03
  15  -3  -6    2.81    4.38
  15  -3   6    2.52    5.94
  15   3  -6    8.98    4.88
  15  -3  -6    8.29    3.29
 -15  -3  -6    5.57    3.79
  15   3  -7    9.25    4.37
  15   3   7    5.18    5.77
  15  -3  -7    5.37    4.06
  15  -3   7   -4.96    8.50
  15   3  -7    9.06    5.14
  15  -3  -7   14.27    6.19
 -15  -3  -7   17.78    9.39
  15   3  -8   24.11   11.03
  15   3   8   41.17   12.24
  15  -3  -8   13.12    6.05
  15  -3   8   33.32   14.81
  15   3  -8   36.99   11.17
  15  -3  -8   33.41   11.71
 -15  -3  -8   29.96   11.50
  15   3   9   13.42   10.03
  15  -3  -9    9.28    5.54
  15  -3   9   11.52    4.40
  15   3  -9    7.07    7.08
  15  -3  -9   11.00    6.56
 -15  -3  -9    8.59    4.37
  15   4   0   25.89    8.30
  15  -4   0   25.30   14.48
  15   4   0   20.06    8.11
  15  -4   0   24.59    6.79
  15   4  -1   23.41    6.11
  15   4   1   23.30    6.34
  15  -4  -1    5.84    3.79
  15  -4   1    9.91    6.30
  15   4  -1   11.39    4.53
  15  -4  -1   20.18    6.57
  15  -4   1   19.76    9.54
  15   4  -2   18.99    5.89
  15   4   2   18.20   13.38
  15  -4  -2   11.45    6.15
  15  -4   2   18.87    7.38
  15   4  -2   11.71    4.83
  15  -4  -2   19.10    6.95
  15  -4   2    7.57    5.38
  15   4   3   35.86   12.63
  15  -4   3   37.13    8.99
  15   4  -3   24.33    5.82
  15  -4  -3   27.41   17.06
  15  -4   3   13.48   11.70
  15   4  -4   22.52    6.87
  15   4   4   22.21    8.81
  15  -4  -4   15.70   12.54
  15  -4   4    8.13    4.77
  15   4  -4   19.84    5.82
  15  -4  -4   21.14    7.39
  15   4  -5    6.31    4.81
  15   4   5    5.84    7.20
  15  -4  -5    5.72    5.14
  15  -4   5   11.31    5.72
  15   4  -5    8.55    3.29
  15  -4  -5    8.54    6.03
  15   4  -6    9.95    3.48
  15   4   6   -6.45    9.95
  15  -4  -6   10.93    6.46
  15  -4   6   15.57    8.23
  15   4  -6    5.24    6.14
  15  -4  -6   14.70    5.32
 -15  -4  -6    6.07    3.07
  15   4  -7    1.60    6.31
  15   4   7   15.13    6.54
  15  -4  -7    7.55    2.83
  15  -4   7   10.45    5.28
  15   4  -7    3.71    5.65
  15  -4  -7    7.36    4.60
 -15  -4  -7    8.37    3.22
  15   4  -8    4.14    5.20
  15   4   8   -2.02    9.28
  15  -4  -8    4.58    3.73
  15  -4   8    7.56    7.56
  15   4  -8    3.89    4.95
  15  -4  -8    9.58    3.46
 -15  -4  -8    2.21    4.01
  15   5   0   16.68    8.93
  15  -5   0   11.88    3.26
  15   5   0    9.61    4.20
  15  -5   0    9.70    6.32
  15   5  -1    7.69    8.82
  15   5   1    7.52    4.79
  15  -5   1    4.93    6.28
  15  -5  -1   -2.27    6.55
  15   5  -1    2.47    3.81
  15  -5  -1    3.70    4.30
  15  -5   1    9.02    5.58
  15   5  -2   20.34    5.42
  15   5   2   28.24    9.45
  15  -5   2   33.41   10.31
  15  -5  -2   14.64    9.87
  15   5  -2   20.79    5.80
  15  -5  -2   19.02    5.08
  15  -5   2   19.63    6.68
  15   5   3   18.58   10.72
  15  -5   3   34.24   15.63
  15   5  -3    7.73    5.22
  15  -5  -3   33.83    7.43
  15  -5   3    9.63    4.24
  15   5  -4    7.19    4.07
  15   5   4   20.06    9.07
  15  -5  -4   11.98    8.34
  15  -5   4   11.65    7.69
  15   5  -4    6.08    3.36
  15  -5  -4   16.14    5.37
  15   5  -5    8.65    5.85
  15   5   5    7.49    7.17
  15  -5   5    6.52    5.80
  15  -5  -5    7.57    5.27
  15   5  -5    7.01    4.16
  15  -5  -5    6.74    5.65
  15   5  -6   37.72   18.83
  15   5   6   52.40   26.63
  15  -5  -6   40.25   18.56
  15  -5   6   58.35   20.40
  15   5  -6   47.00   19.81
  15  -5  -6   38.55   10.38
  15   5  -7   18.40    5.68
  15   5   7   15.52    7.35
  15  -5  -7   16.75    8.56
  15  -5   7   13.37    7.48
  15  -5  -7   10.23    6.87
 -15  -5  -7   19.50    6.82
  15   6   0   12.43    7.43
  15  -6   0    3.87    5.81
  15   6   0    1.87    1.79
  15  -6   0   -1.36    4.72
  15   6  -1    7.83    6.05
  15   6   1    7.72    6.69
  15  -6  -1    8.69    6.46
  15   6  -1    5.27    2.51
  15  -6  -1    4.86    4.83
  15  -6   1    1.64    3.11
  15   6  -2   12.46    5.78
  15   6   2   13.44    7.85
  15  -6   2   17.60    8.65
  15  -6  -2    7.96    4.55
  15   6  -2   14.15    4.68
  15  -6  -2   13.62    7.53
  15   6   3   25.76   12.43
  15  -6   3   12.69    8.59
  15   6  -3   15.08    6.70
  15  -6  -3   17.03    7.53
  15  -6   3    9.89    3.91
  15   6  -4   -2.89    6.42
  15   6   4   15.56    7.32
  15  -6  -4   12.49    4.31
  15  -6   4   -0.22    8.02
  15   6  -4    3.77    4.15
  15  -6  -4    7.82    4.45
  15   6  -5   17.16    8.76
  15   6   5   21.21   13.82
  15  -6  -5   27.48   17.05
  15  -6   5   40.52   20.54
  15   6  -5   26.06    7.92
  15  -6  -5   20.72    8.85
  15   6  -6   31.69    9.08
  15   6   6   38.86   20.02
  15  -6   6   45.42   16.59
  15  -6  -6   39.68   14.22
  15   6  -6   42.69   20.54
  15  -6  -6   36.63   18.94
  15   7   0   25.78   10.67
  15  -7   0   23.74   15.10
  15  -7   0   17.15   11.08
  15   7  -1   16.56    7.17
  15   7   1   -2.10    8.01
  15  -7  -1    4.65    4.19
  15  -7   1    5.78    5.21
  15   7  -1    4.17    3.46
  15  -7  -1    4.57    5.42
  15  -7   1    8.82    4.88
  15   7  -2   31.00   12.11
  15   7   2   43.25   13.26
  15  -7   2   35.59   11.76
  15  -7  -2   26.78    6.22
  15   7  -2   27.98   11.33
  15  -7  -2   30.64   10.66
  15  -7   2   28.69   11.04
  15   7   3   19.63   10.37
  15  -7  -3   15.67    4.89
  15   7  -3   18.74   11.12
  15  -7  -3   23.15   12.33
  15  -7   3   25.61   13.66
  15   7  -4    7.17    5.55
  15   7   4   11.18    8.07
  15  -7   4   22.76   10.07
  15   7  -4    5.52    5.97
  15  -7  -4   10.10    4.48
  15  -7   4    9.08    2.47
  15   7  -5    2.27    5.52
  15   7   5   12.43    7.81
  15  -7   5   14.47    9.86
  15  -7  -5    8.38    6.90
  15   7  -5    8.60    4.90
  15  -7  -5   12.89    4.21
  15   8   0   22.82   11.94
  15  -8   0   22.35    8.15
  15  -8   0   12.00    7.54
  15   8  -1   12.11   10.37
  15   8   1   24.48    9.22
  15  -8   1   41.99   13.61
  15  -8  -1    6.80    3.81
  15   8  -1   22.46    7.10
  15  -8  -1    7.98    5.80
  15  -8   1   18.02    8.68
  15   8  -2   10.74    6.93
  15   8   2    7.48    5.08
  15  -8   2    2.99    7.19
  15  -8  -2    5.98    5.69
  15   8  -2    3.01    2.42
  15  -8  -2   17.99    8.26
  15  -8   2    4.25    3.17
  15   8   3    7.91    8.23
  15  -8   3    9.63    4.17
  15  -8  -3    4.08    3.66
  15   8  -3    4.70    3.21
  15  -8  -3    2.55    4.60
  15  -8   3    6.05    5.03
  16   0   0   15.46    7.05
  16   0   0   17.55   11.86
  16   0  -1   29.61   10.14
  16   0   1   21.78    7.03
  16   0  -1   22.07    6.50
  16   0  -2   13.04    5.67
  16   0   2    0.37    6.78
  16   0  -2    4.19    7.01
  16   0   3   24.07   10.63
  16   0  -3   16.42    6.55
  16   0  -4   10.58    6.77
  16   0   4    6.65    5.71
  16   0  -4    8.43    5.62
  16   0  -5    3.66    4.45
  16   0   5   15.32    8.41
  16   0  -5   11.16    7.37
  16   0  -6   14.69    8.06
  16   0   6   17.46    6.39
  16   0  -6   29.26   11.71
  16   1   0    5.00    6.16
  16  -1   0   -2.76    7.70
  16   1   0   10.66    3.57
  16  -1   0   12.49    5.33
  16   1  -1   16.36   10.37
  16   1   1   -2.82    8.06
  16  -1  -1   16.14    6.73
  16  -1   1   -1.44    7.34
  16   1  -1    8.96    5.76
  16  -1   1   11.47    3.48
  16  -1  -1    6.96    2.70
  16   1  -2   48.53   11.92
  16  -1  -2   30.40   10.85
  16  -1   2   36.95    9.56
  16   1  -2   23.38    7.95
  16  -1  -2   31.90   15.84
  16   1   3   21.34    7.97
  16  -1   3    7.99    6.08
  16  -1  -3    6.04    4.01
  16   1  -4   11.91    5.45
  16   1   4   16.07    8.98
  16  -1  -4   15.12    6.30
  16  -1   4    7.02    4.84
  16   1  -4   16.61    5.37
  16  -1  -4    5.65    5.23
  16   1  -5   -3.30    6.55
  16   1   5    9.15    8.61
  16  -1  -5    1.90    3.74
  16  -1   5   13.13    5.88
  16   1  -5    5.30    3.91
  16  -1  -5   11.44    7.20
  16   1  -6   14.94    6.87
  16   1   6   26.26   11.39
  16  -1  -6   15.85    7.04
  16  -1   6   10.39    7.80
  16   1  -6    3.40    6.88
  16  -1  -6    8.69    4.87
  16   2   0   17.82    8.70
  16  -2   0   19.28   10.53
  16   2   0   15.84    7.44
  16  -2   0   21.40    6.44
  16   2  -1   14.59    8.66
  16   2   1   57.76   29.07
  16  -2  -1   22.92    6.99
  16  -2   1   12.63    5.50
  16   2  -1   10.58    3.96
  16  -2   1   14.46    5.06
  16  -2  -1    6.26    3.42
  16   2  -2   12.65    4.65
  16   2   2    9.47    6.41
  16  -2  -2    8.10    4.78
  16  -2   2   19.68    7.40
  16   2  -3   12.67    6.41
  16   2   3   15.18    5.75
  16  -2   3   14.90    9.44
  16   2  -3   12.29    5.86
  16  -2  -3    7.59    5.46
  16   2  -4   13.20    3.81
  16   2   4   11.39    6.15
  16  -2  -4    9.28    4.70
  16  -2   4   15.26    8.85
  16   2  -4   10.89    7.34
  16  -2  -4   15.85    8.39
  16   2  -5   10.84    7.37
  16   2   5   23.18    8.46
  16  -2  -5    8.68    6.62
  16  -2   5    7.40    6.20
  16   2  -5    4.48    3.26
  16  -2  -5    6.78    5.35
  16   2  -6   10.46    6.18
  16   2   6   -7.09    9.44
  16  -2  -6   12.75    5.83
  16  -2   6    0.83    5.90
  16   2  -6   10.88    6.82
  16  -2  -6    5.84    3.99
  16   3   0   23.36   11.01
  16  -3   0   17.31    7.46
  16  -3   0   11.91    5.97
  16   3  -1   17.80    8.79
  16   3   1   11.64   13.50
  16  -3  -1   16.58    5.52
  16  -3   1   32.08   10.05
  16   3  -1   13.82   10.06
  16  -3   1   11.90    5.36
  16  -3  -1   11.25    6.02
  16   3  -2   17.83    5.77
  16   3   2    8.70    8.24
  16  -3  -2    8.01    5.18
  16  -3   2    9.36    4.49
  16   3  -2   14.33    6.14
  16  -3  -2    4.85    4.18
  16   3   3   14.04    6.25
  16  -3   3   16.98    7.74
  16   3  -3    7.11    4.01
  16  -3  -3   12.33    4.99
  16   3  -4   16.14    7.55
  16   3   4   17.58    8.98
  16  -3  -4   15.53    6.13
  16  -3   4   19.08    7.95
  16   3  -4   18.92    8.86
  16  -3  -4   32.89   10.51
  16   3  -5   11.08    4.16
  16   3   5   26.78   15.05
  16  -3  -5    8.07    4.35
  16  -3   5   21.03   11.48
  16   3  -5   22.17    9.98
  16  -3  -5   17.00    7.76
  16   4   0   15.58    5.67
  16  -4   0    3.86    6.15
  16  -4   0    6.47    3.68
  16   4  -1   16.17    7.26
  16   4   1   13.27    8.32
  16  -4  -1   11.02    7.59
  16  -4   1    1.63    4.74
  16   4  -1    2.23    1.74
  16  -4  -1    6.17    4.23
  16  -4   1    6.70    3.47
  16   4  -2   21.94    8.52
  16   4   2   24.67    8.33
  16  -4  -2    8.34    7.70
  16  -4   2   16.75    7.85
  16   4  -2   12.12    5.47
  16  -4  -2   18.75    8.70
  16  -4   2    8.97    4.04
  16   4   3   -8.43    8.49
  16  -4   3    4.39    4.80
  16   4  -3    7.89    4.74
  16  -4  -3   -4.54    5.42
  16   4  -4    5.31    4.90
  16   4   4    9.05    6.61
  16  -4  -4   11.70    7.60
  16  -4   4    7.97    5.43
  16   4  -4   13.82    5.32
  16  -4  -4   10.55    4.80
  16   4  -5   12.93    4.89
  16   4   5   15.55    6.39
  16  -4  -5   20.80    8.27
  16  -4   5   10.57    9.23
  16   4  -5    7.64    8.73
  16  -4  -5   13.51   12.69
  16   5   0    5.01    4.68
  16  -5   0    5.45    4.15
  16  -5   0    6.14    4.73
  16   5  -1   12.36    9.14
  16   5   1   12.32    6.82
  16  -5  -1   10.52    6.13
  16  -5   1    2.59    5.08
  16   5  -1    4.98    4.30
  16  -5  -1   10.77    5.63
  16  -5   1    2.67    3.67
  16   5  -2   26.20    8.05
  16   5   2   11.34   11.69
  16  -5  -2   22.88    8.22
  16  -5   2   30.08   16.57
  16   5  -2    9.20    4.47
  16  -5  -2   20.80    9.17
  16  -5   2   16.01    5.69
  16   5   3    7.23    5.52
  16  -5   3   -6.84    7.28
  16   5  -3    1.25    1.65
  16  -5  -3    7.43    4.30
  16  -6   0    9.61    4.99
   0   0   0    0.00    0.00
;
_shelx_hkl_checksum              92483
#END Tags that were not found in dictionaries
loop_
_space_group_symop_operation_xyz
'x, y, z'
'-x+1/2, -y, z+1/2'
'x+1/2, -y+1/2, -z'
'-x, y+1/2, -z+1/2'
loop_
_atom_site_label
_atom_site_type_symbol
_atom_site_fract_x
_atom_site_fract_y
_atom_site_fract_z
_atom_site_U_iso_or_equiv
_atom_site_adp_type
_atom_site_occupancy
_atom_site_site_symmetry_order
_atom_site_calc_flag
_atom_site_refinement_flags_posn
_atom_site_refinement_flags_adp
Cu1 Cu 1.06007(7) 0.03701(6) 0.91414(5) 0.0345(3) Uani 1 1 d . .
Cu2 Cu 0.79018(7) 0.29436(6) 0.83953(5) 0.0340(3) Uani 1 1 d . .
O1 O 1.1140(5) -0.0516(4) 0.8298(3) 0.0402(12) Uani 1 1 d . .
O2 O 1.1202(5) -0.0786(5) 0.6955(4) 0.0484(15) Uani 1 1 d . .
O3 O 0.9795(5) 0.1380(4) 0.9734(3) 0.0411(13) Uani 1 1 d . .
O4 O 0.8741(5) 0.1972(5) 0.7803(3) 0.0446(14) Uani 1 1 d . .
O5 O 0.7134(5) 0.3930(5) 1.0615(3) 0.0490(15) Uani 1 1 d . .
O6 O 0.7094(4) 0.3572(4) 0.9283(3) 0.0389(12) Uani 1 1 d . .
N1 N 0.9989(6) 0.0914(5) 0.8192(4) 0.0398(15) Uani 1 1 d . .
N2 N 0.8694(5) 0.2562(5) 0.9319(4) 0.0369(14) Uani 1 1 d . .
N3 N 1.0700(5) -0.0495(5) 1.0092(4) 0.0374(14) Uani 1 1 d . .
N4 N 1.1029(6) -0.0202(5) 1.0822(4) 0.0405(15) Uani 1 1 d . .
H4A H 1.1225 0.0357 1.0927 0.049 Uiso 1 1 calc R U
N5 N 0.7138(6) 0.3410(5) 0.6772(4) 0.0394(14) Uani 1 1 d . .
H5A H 0.7727 0.3647 0.6654 0.047 Uiso 1 1 calc R U
N6 N 0.6884(5) 0.3074(5) 0.7517(4) 0.0381(15) Uani 1 1 d . .
C1 C 1.0889(6) -0.0343(6) 0.7549(5) 0.0393(16) Uani 1 1 d . .
C2 C 1.0184(8) 0.0488(6) 0.7402(4) 0.045(2) Uani 1 1 d . .
H2A H 0.9533 0.0269 0.7169 0.054 Uiso 1 1 calc R U
C3 C 1.0698(12) 0.1163(8) 0.6792(6) 0.081(4) Uani 1 1 d . .
H3A H 1.0252 0.1683 0.6695 0.122 Uiso 1 1 calc R U
H3B H 1.0827 0.0847 0.6284 0.122 Uiso 1 1 calc R U
H3C H 1.1336 0.1380 0.7017 0.122 Uiso 1 1 calc R U
C4 C 0.9319(6) 0.1563(5) 0.8317(4) 0.0346(15) Uani 1 1 d . .
C5 C 0.9278(6) 0.1839(5) 0.9218(4) 0.0345(15) Uani 1 1 d . .
C6 C 0.8522(6) 0.3053(6) 1.0085(5) 0.0389(17) Uani 1 1 d . .
H6A H 0.8507 0.2615 1.0545 0.047 Uiso 1 1 calc R U
C7 C 0.9371(8) 0.3770(7) 1.0208(6) 0.055(2) Uani 1 1 d . .
H7A H 1.0021 0.3459 1.0256 0.083 Uiso 1 1 calc R U
H7B H 0.9239 0.4119 1.0699 0.083 Uiso 1 1 calc R U
H7C H 0.9388 0.4184 0.9746 0.083 Uiso 1 1 calc R U
C8 C 0.7497(7) 0.3546(6) 1.0007(5) 0.0397(17) Uani 1 1 d . .
C9 C 1.1355(12) -0.0720(10) 1.2244(6) 0.082(5) Uani 1 1 d . .
H9A H 1.1580 -0.0087 1.2293 0.123 Uiso 1 1 calc R U
H9B H 1.1912 -0.1129 1.2381 0.123 Uiso 1 1 calc R U
H9C H 1.0792 -0.0827 1.2612 0.123 Uiso 1 1 calc R U
C10 C 1.1014(7) -0.0904(7) 1.1375(5) 0.046(2) Uani 1 1 d . .
C11 C 1.0632(6) -0.1670(5) 1.0988(5) 0.0368(16) Uani 1 1 d . .
C12 C 1.0447(7) -0.1384(6) 1.0182(5) 0.0386(16) Uani 1 1 d . .
C13 C 1.0026(11) -0.1922(8) 0.9503(6) 0.069(3) Uani 1 1 d . .
H13A H 0.9994 -0.1540 0.9021 0.104 Uiso 1 1 calc R U
H13B H 0.9347 -0.2131 0.9642 0.104 Uiso 1 1 calc R U
H13C H 1.0458 -0.2449 0.9399 0.104 Uiso 1 1 calc R U
C14 C 0.5385(10) 0.2354(10) 0.8173(5) 0.079(4) Uani 1 1 d . .
H14A H 0.5836 0.2359 0.8638 0.118 Uiso 1 1 calc R U
H14B H 0.5182 0.1727 0.8055 0.118 Uiso 1 1 calc R U
H14C H 0.4786 0.2720 0.8292 0.118 Uiso 1 1 calc R U
C15 C 0.5926(7) 0.2752(6) 0.7450(5) 0.0416(18) Uani 1 1 d . .
C16 C 0.5564(6) 0.2894(5) 0.6632(4) 0.0364(14) Uani 1 1 d . .
C17 C 0.4503(7) 0.2644(6) 0.6319(5) 0.0426(18) Uani 1 1 d . .
H17A H 0.4017 0.2732 0.6763 0.051 Uiso 1 1 calc R U
H17B H 0.4322 0.3078 0.5888 0.051 Uiso 1 1 calc R U
C18 C 0.6362(7) 0.3328(6) 0.6240(5) 0.0387(17) Uani 1 1 d . .
C19 C 0.6487(10) 0.3699(9) 0.5375(6) 0.070(3) Uani 1 1 d . .
H19A H 0.7162 0.3958 0.5313 0.105 Uiso 1 1 calc R U
H19B H 0.5982 0.4172 0.5276 0.105 Uiso 1 1 calc R U
H19C H 0.6396 0.3202 0.4989 0.105 Uiso 1 1 calc R U
C20 C 0.7781(9) 0.0016(9) 1.2271(8) 0.126(7) Uani 1 1 d G .
H20A H 0.8125 -0.0529 1.2407 0.151 Uiso 1 1 calc R U
C21 C 0.7457(13) 0.0619(13) 1.2884(5) 0.153(11) Uani 1 1 d G .
H21A H 0.7582 0.0477 1.3431 0.183 Uiso 1 1 calc R U
C22 C 0.6943(13) 0.1433(12) 1.2680(9) 0.166(11) Uiso 1 1 d G .
H22A H 0.6726 0.1836 1.3090 0.200 Uiso 1 1 calc R U
C23 C 0.6755(11) 0.1646(8) 1.1862(11) 0.153(10) Uani 1 1 d G .
H23A H 0.6412 0.2191 1.1725 0.183 Uiso 1 1 calc R U
C24 C 0.7080(10) 0.1043(9) 1.1248(6) 0.110(5) Uiso 1 1 d G .
H24A H 0.6954 0.1185 1.0701 0.132 Uiso 1 1 calc R U
C25 C 0.7593(9) 0.0228(8) 1.1453(7) 0.089(4) Uani 1 1 d G .
C26 C 0.7910(14) -0.0458(13) 1.0784(10) 0.103(5) Uani 1 1 d . .
H26A H 0.8526 -0.0795 1.0961 0.123 Uiso 1 1 calc R U
C27 C 0.7056(16) -0.1148(15) 1.0613(13) 0.140(8) Uani 1 1 d . .
H27A H 0.7272 -0.1573 1.0194 0.210 Uiso 1 1 calc R U
H27B H 0.6454 -0.0821 1.0433 0.210 Uiso 1 1 calc R U
H27D H 0.6901 -0.1486 1.1105 0.210 Uiso 1 1 calc R U
O7 O 0.8123(10) 0.0017(11) 1.0033(7) 0.130(5) Uani 1 1 d . .
H7D H 0.8599 0.0381 1.0103 0.195 Uiso 1 1 calc R U
loop_
_atom_site_aniso_label
_atom_site_aniso_U_11
_atom_site_aniso_U_22
_atom_site_aniso_U_33
_atom_site_aniso_U_23
_atom_site_aniso_U_13
_atom_site_aniso_U_12
Cu1 0.0417(5) 0.0314(5) 0.0303(4) 0.0011(3) -0.0001(4) 0.0088(4)
Cu2 0.0400(5) 0.0299(5) 0.0323(5) -0.0010(3) -0.0048(4) 0.0060(4)
O1 0.052(3) 0.031(3) 0.038(3) -0.001(2) -0.001(2) 0.013(2)
O2 0.060(4) 0.046(4) 0.039(3) -0.013(3) 0.000(3) 0.016(3)
O3 0.053(3) 0.040(3) 0.030(3) 0.003(2) 0.001(2) 0.015(3)
O4 0.058(4) 0.046(3) 0.030(3) -0.006(2) -0.011(2) 0.022(3)
O5 0.056(4) 0.056(4) 0.035(3) -0.007(2) 0.004(3) 0.016(3)
O6 0.039(3) 0.041(3) 0.036(3) 0.000(2) -0.004(2) 0.011(2)
N1 0.049(4) 0.034(3) 0.036(3) -0.003(2) -0.001(3) 0.014(3)
N2 0.041(3) 0.041(4) 0.029(3) 0.000(3) -0.001(2) 0.012(3)
N3 0.044(4) 0.034(3) 0.035(3) 0.005(3) -0.004(3) -0.002(3)
N4 0.050(4) 0.032(3) 0.039(3) -0.002(3) 0.000(3) -0.010(3)
N5 0.043(3) 0.042(4) 0.034(3) 0.007(3) -0.007(3) -0.002(3)
N6 0.036(3) 0.042(4) 0.035(3) 0.006(3) -0.006(3) -0.010(3)
C1 0.043(4) 0.036(4) 0.039(4) -0.005(3) -0.001(3) 0.006(3)
C2 0.071(6) 0.039(4) 0.026(3) -0.002(3) -0.004(3) 0.024(4)
C3 0.131(12) 0.058(7) 0.054(6) 0.020(5) 0.032(7) 0.031(8)
C4 0.041(4) 0.028(3) 0.034(4) -0.005(3) -0.003(3) 0.007(3)
C5 0.038(4) 0.035(4) 0.030(3) 0.000(3) -0.003(3) 0.009(3)
C6 0.046(4) 0.040(4) 0.031(3) 0.001(3) -0.001(3) 0.015(3)
C7 0.058(6) 0.060(6) 0.048(5) -0.010(4) -0.013(4) 0.005(5)
C8 0.046(4) 0.033(4) 0.041(4) 0.004(3) -0.003(3) 0.000(3)
C9 0.107(10) 0.088(10) 0.051(6) 0.016(6) -0.019(6) -0.058(8)
C10 0.050(5) 0.049(5) 0.038(4) 0.013(3) 0.000(4) -0.011(4)
C11 0.038(4) 0.035(4) 0.038(4) 0.010(3) 0.004(3) -0.002(3)
C12 0.045(4) 0.031(4) 0.040(4) 0.000(3) 0.002(3) -0.001(3)
C13 0.104(9) 0.053(7) 0.051(5) 0.008(5) -0.008(6) -0.022(6)
C14 0.087(8) 0.113(11) 0.037(5) 0.011(5) 0.001(5) -0.058(8)
C15 0.043(4) 0.044(5) 0.037(4) 0.000(3) 0.003(3) -0.005(3)
C16 0.042(4) 0.031(3) 0.036(3) -0.004(3) -0.002(3) 0.001(3)
C17 0.037(4) 0.038(4) 0.053(4) -0.011(3) -0.008(4) 0.002(3)
C18 0.047(4) 0.029(4) 0.040(4) -0.001(3) -0.005(4) -0.005(3)
C19 0.090(8) 0.077(8) 0.044(5) 0.011(5) -0.015(5) -0.035(7)
C20 0.126(15) 0.085(12) 0.167(18) -0.004(13) -0.034(15) -0.018(12)
C21 0.15(2) 0.20(3) 0.104(13) -0.023(15) -0.022(14) -0.08(2)
C23 0.144(19) 0.069(11) 0.24(3) -0.007(16) 0.01(2) 0.011(12)
C25 0.074(8) 0.092(12) 0.102(9) 0.018(9) 0.006(7) -0.002(8)
C26 0.102(11) 0.093(12) 0.113(12) 0.001(10) 0.002(10) 0.032(10)
C27 0.114(15) 0.096(14) 0.21(2) -0.032(15) 0.020(16) 0.005(13)
O7 0.128(11) 0.157(13) 0.105(8) 0.007(8) 0.027(8) -0.029(10)
loop_
_atom_type_symbol
_atom_type_description
_atom_type_scat_dispersion_real
_atom_type_scat_dispersion_imag
_atom_type_scat_source
C C 0.0033 0.0016 'International Tables Vol C Tables 4.2.6.8 and 6.1.1.4'
H H 0.0000 0.0000 'International Tables Vol C Tables 4.2.6.8 and 6.1.1.4'
N N 0.0061 0.0033 'International Tables Vol C Tables 4.2.6.8 and 6.1.1.4'
O O 0.0106 0.0060 'International Tables Vol C Tables 4.2.6.8 and 6.1.1.4'
Cu Cu 0.3201 1.2651 'International Tables Vol C Tables 4.2.6.8 and 6.1.1.4'
loop_
_geom_angle_atom_site_label_1
_geom_angle_atom_site_label_2
_geom_angle_atom_site_label_3
_geom_angle
_geom_angle_site_symmetry_1
_geom_angle_site_symmetry_3
N1 Cu1 N3 156.1(3) . .
N1 Cu1 O1 81.4(2) . .
N3 Cu1 O1 96.5(2) . .
N1 Cu1 O3 82.9(2) . .
N3 Cu1 O3 96.4(3) . .
O1 Cu1 O3 163.9(2) . .
N1 Cu1 O5 109.1(3) . 3_557
N3 Cu1 O5 94.8(3) . 3_557
O1 Cu1 O5 95.4(2) . 3_557
O3 Cu1 O5 93.0(3) . 3_557
N2 Cu2 N6 166.1(3) . .
N2 Cu2 O6 81.0(2) . .
N6 Cu2 O6 97.5(3) . .
N2 Cu2 O4 83.5(2) . .
N6 Cu2 O4 94.7(3) . .
O6 Cu2 O4 160.2(2) . .
N2 Cu2 O2 98.9(3) . 4_756
N6 Cu2 O2 95.0(3) . 4_756
O6 Cu2 O2 95.1(3) . 4_756
O4 Cu2 O2 99.3(3) . 4_756
C1 O1 Cu1 116.0(5) . .
C1 O2 Cu2 142.9(6) . 4_746
C5 O3 Cu1 109.4(5) . .
C4 O4 Cu2 108.9(5) . .
C8 O5 Cu1 132.7(6) . 3_457
C8 O6 Cu2 115.7(5) . .
C4 N1 C2 124.2(7) . .
C4 N1 Cu1 116.7(5) . .
C2 N1 Cu1 118.4(5) . .
C5 N2 C6 126.1(6) . .
C5 N2 Cu2 116.5(5) . .
C6 N2 Cu2 117.1(5) . .
C12 N3 N4 106.6(6) . .
C12 N3 Cu1 132.2(6) . .
N4 N3 Cu1 121.1(5) . .
N3 N4 C10 110.7(7) . .
C18 N5 N6 111.6(7) . .
C15 N6 N5 106.2(6) . .
C15 N6 Cu2 131.2(6) . .
N5 N6 Cu2 121.8(5) . .
O2 C1 O1 124.1(8) . .
O2 C1 C2 118.9(7) . .
O1 C1 C2 116.9(7) . .
N1 C2 C1 107.3(6) . .
N1 C2 C3 112.5(8) . .
C1 C2 C3 109.5(8) . .
O4 C4 N1 129.0(7) . .
O4 C4 C5 119.7(6) . .
N1 C4 C5 111.3(6) . .
O3 C5 N2 130.2(7) . .
O3 C5 C4 119.2(6) . .
N2 C5 C4 110.6(6) . .
N2 C6 C8 106.9(6) . .
N2 C6 C7 109.3(7) . .
C8 C6 C7 109.3(7) . .
O5 C8 O6 124.6(8) . .
O5 C8 C6 118.7(7) . .
O6 C8 C6 116.5(7) . .
N4 C10 C11 107.5(7) . .
N4 C10 C9 119.4(9) . .
C11 C10 C9 133.1(9) . .
C10 C11 C12 105.0(7) . .
C10 C11 C17 128.8(7) . 2_655
C12 C11 C17 126.0(8) . 2_655
N3 C12 C11 110.1(7) . .
N3 C12 C13 121.4(7) . .
C11 C12 C13 128.5(8) . .
N6 C15 C16 109.6(7) . .
N6 C15 C14 120.8(8) . .
C16 C15 C14 129.6(8) . .
C18 C16 C15 104.5(7) . .
C18 C16 C17 129.9(7) . .
C15 C16 C17 125.5(7) . .
C11 C17 C16 116.6(7) 2_654 .
N5 C18 C16 108.1(7) . .
N5 C18 C19 119.4(8) . .
C16 C18 C19 132.5(8) . .
C21 C20 C25 120.0 . .
C22 C21 C20 120.0 . .
C21 C22 C23 120.0 . .
C24 C23 C22 120.0 . .
C25 C24 C23 120.0 . .
C24 C25 C20 120.0 . .
C24 C25 C26 120.3(11) . .
C20 C25 C26 119.7(11) . .
O7 C26 C27 107.3(17) . .
O7 C26 C25 110.8(14) . .
C27 C26 C25 110.9(15) . .
loop_
_geom_bond_atom_site_label_1
_geom_bond_atom_site_label_2
_geom_bond_distance
_geom_bond_site_symmetry_2
Cu1 N1 1.908(6) .
Cu1 N3 1.992(6) .
Cu1 O1 2.003(5) .
Cu1 O3 2.036(6) .
Cu1 O5 2.271(7) 3_557
Cu2 N2 1.906(6) .
Cu2 N6 1.959(6) .
Cu2 O6 2.005(5) .
Cu2 O4 2.020(6) .
Cu2 O2 2.243(6) 4_756
O1 C1 1.289(9) .
O2 C1 1.229(10) .
O2 Cu2 2.243(6) 4_746
O3 C5 1.264(9) .
O4 C4 1.271(9) .
O5 C8 1.229(10) .
O5 Cu1 2.271(7) 3_457
O6 C8 1.291(9) .
N1 C4 1.294(10) .
N1 C2 1.450(10) .
N2 C5 1.299(9) .
N2 C6 1.452(9) .
N3 C12 1.330(10) .
N3 N4 1.334(9) .
N4 C10 1.355(10) .
N5 C18 1.338(11) .
N5 N6 1.349(9) .
N6 C15 1.334(11) .
C1 C2 1.527(11) .
C2 C3 1.543(14) .
C4 C5 1.522(9) .
C6 C8 1.516(11) .
C6 C7 1.526(14) .
C9 C10 1.508(13) .
C10 C11 1.365(12) .
C11 C12 1.399(11) .
C11 C17 1.512(10) 2_655
C12 C13 1.457(13) .
C14 C15 1.487(12) .
C15 C16 1.430(11) .
C16 C18 1.370(11) .
C16 C17 1.515(11) .
C17 C11 1.512(10) 2_654
C18 C19 1.516(12) .
C20 C21 1.3900 .
C20 C25 1.3900 .
C21 C22 1.3900 .
C22 C23 1.3900 .
C23 C24 1.3900 .
C24 C25 1.3900 .
C25 C26 1.528(18) .
C26 O7 1.43(2) .
C26 C27 1.52(3) .
loop_
_geom_hbond_atom_site_label_D
_geom_hbond_atom_site_label_H
_geom_hbond_atom_site_label_A
_geom_hbond_distance_DH
_geom_hbond_distance_HA
_geom_hbond_distance_DA
_geom_hbond_angle_DHA
O7 H7D O3 0.82 2.20 2.970(15) 156.0
loop_
_geom_torsion_atom_site_label_1
_geom_torsion_atom_site_label_2
_geom_torsion_atom_site_label_3
_geom_torsion_atom_site_label_4
_geom_torsion
_geom_torsion_site_symmetry_1
_geom_torsion_site_symmetry_4
C12 N3 N4 C10 1.6(10) . .
Cu1 N3 N4 C10 178.8(6) . .
C18 N5 N6 C15 1.3(10) . .
C18 N5 N6 Cu2 172.0(6) . .
Cu2 O2 C1 O1 7.6(17) 4_746 .
Cu2 O2 C1 C2 -174.4(7) 4_746 .
Cu1 O1 C1 O2 175.8(7) . .
Cu1 O1 C1 C2 -2.3(10) . .
C4 N1 C2 C1 -170.8(8) . .
Cu1 N1 C2 C1 -0.5(10) . .
C4 N1 C2 C3 68.7(13) . .
Cu1 N1 C2 C3 -120.9(8) . .
O2 C1 C2 N1 -176.4(8) . .
O1 C1 C2 N1 1.8(12) . .
O2 C1 C2 C3 -54.0(12) . .
O1 C1 C2 C3 124.2(9) . .
Cu2 O4 C4 N1 -178.5(8) . .
Cu2 O4 C4 C5 0.8(9) . .
C2 N1 C4 O4 -2.5(15) . .
Cu1 N1 C4 O4 -173.0(7) . .
C2 N1 C4 C5 178.2(8) . .
Cu1 N1 C4 C5 7.7(9) . .
Cu1 O3 C5 N2 -176.8(8) . .
Cu1 O3 C5 C4 1.6(9) . .
C6 N2 C5 O3 2.4(15) . .
Cu2 N2 C5 O3 -171.8(7) . .
C6 N2 C5 C4 -176.1(8) . .
Cu2 N2 C5 C4 9.7(9) . .
O4 C4 C5 O3 174.5(8) . .
N1 C4 C5 O3 -6.2(11) . .
O4 C4 C5 N2 -6.8(11) . .
N1 C4 C5 N2 172.5(7) . .
C5 N2 C6 C8 -156.2(8) . .
Cu2 N2 C6 C8 18.0(9) . .
C5 N2 C6 C7 85.5(10) . .
Cu2 N2 C6 C7 -100.3(7) . .
Cu1 O5 C8 O6 10.5(14) 3_457 .
Cu1 O5 C8 C6 -173.4(6) 3_457 .
Cu2 O6 C8 O5 176.5(7) . .
Cu2 O6 C8 C6 0.3(9) . .
N2 C6 C8 O5 172.4(8) . .
C7 C6 C8 O5 -69.4(10) . .
N2 C6 C8 O6 -11.2(10) . .
C7 C6 C8 O6 107.0(8) . .
N3 N4 C10 C11 -1.7(11) . .
N3 N4 C10 C9 -179.8(10) . .
N4 C10 C11 C12 1.2(10) . .
C9 C10 C11 C12 178.9(13) . .
N4 C10 C11 C17 177.2(8) . 2_655
C9 C10 C11 C17 -5.0(19) . 2_655
N4 N3 C12 C11 -0.8(10) . .
Cu1 N3 C12 C11 -177.6(6) . .
N4 N3 C12 C13 178.2(9) . .
Cu1 N3 C12 C13 1.4(14) . .
C10 C11 C12 N3 -0.2(10) . .
C17 C11 C12 N3 -176.5(8) 2_655 .
C10 C11 C12 C13 -179.2(10) . .
C17 C11 C12 C13 4.6(16) 2_655 .
N5 N6 C15 C16 -0.2(10) . .
Cu2 N6 C15 C16 -169.7(6) . .
N5 N6 C15 C14 -178.1(10) . .
Cu2 N6 C15 C14 12.4(15) . .
N6 C15 C16 C18 -0.9(10) . .
C14 C15 C16 C18 176.7(11) . .
N6 C15 C16 C17 -178.4(7) . .
C14 C15 C16 C17 -0.8(16) . .
C18 C16 C17 C11 94.8(11) . 2_654
C15 C16 C17 C11 -88.3(10) . 2_654
N6 N5 C18 C16 -1.9(10) . .
N6 N5 C18 C19 177.8(9) . .
C15 C16 C18 N5 1.7(9) . .
C17 C16 C18 N5 179.1(8) . .
C15 C16 C18 C19 -178.0(11) . .
C17 C16 C18 C19 -0.6(16) . .
C25 C20 C21 C22 0.0 . .
C20 C21 C22 C23 0.0 . .
C21 C22 C23 C24 0.0 . .
C22 C23 C24 C25 0.0 . .
C23 C24 C25 C20 0.0 . .
C23 C24 C25 C26 177.3(13) . .
C21 C20 C25 C24 0.0 . .
C21 C20 C25 C26 -177.3(13) . .
C24 C25 C26 O7 30.7(18) . .
C20 C25 C26 O7 -152.0(11) . .
C24 C25 C26 C27 -88.3(16) . .
C20 C25 C26 C27 89.0(16) . .
