#------------------------------------------------------------------------------
#$Date: 2016-03-23 22:33:44 +0200 (Wed, 23 Mar 2016) $
#$Revision: 179485 $
#$URL: svn://www.crystallography.net/cod/cif/4/33/82/4338281.cif $
#------------------------------------------------------------------------------
#
# This file is available in the Crystallography Open Database (COD),
# http://www.crystallography.net/
#
# All data on this site have been placed in the public domain by the
# contributors.
#
data_4338281
loop_
_publ_author_name
'Lin, Lang'
'Yu, Rongmin'
'Wu, Xiao-Yuan'
'Yang, Wen-Bin'
'Zhang, Jian'
'Guo, Xiang-Guang'
'Lin, Zu-Jin'
'Lu, Can-Zhong'
_publ_section_title
;
 Enantioselective inclusion of alcohols by solvent-controlled assembled
 flexible metal-organic frameworks.
;
_journal_issue                   10
_journal_name_full               'Inorganic chemistry'
_journal_page_first              4794
_journal_page_last               4796
_journal_paper_doi               10.1021/ic500436g
_journal_volume                  53
_journal_year                    2014
_chemical_absolute_configuration ad
_chemical_formula_moiety         'C19 H23 Cu2 N6 O6, C9 H12 O'
_chemical_formula_sum            'C28 H35 Cu2 N6 O7'
_chemical_formula_weight         694.70
_chemical_name_systematic
;
 ?
;
_space_group_crystal_system      orthorhombic
_space_group_IT_number           19
_space_group_name_Hall           'P 2ac 2ab'
_space_group_name_H-M_alt        'P 21 21 21'
_symmetry_space_group_name_Hall  'P 2ac 2ab'
_symmetry_space_group_name_H-M   'P 21 21 21'
_atom_sites_solution_hydrogens   geom
_audit_creation_method           SHELXL-2013
_cell_angle_alpha                90
_cell_angle_beta                 90
_cell_angle_gamma                90
_cell_formula_units_Z            4
_cell_length_a                   13.504(4)
_cell_length_b                   14.375(4)
_cell_length_c                   16.193(5)
_cell_measurement_reflns_used    9814
_cell_measurement_temperature    173(2)
_cell_measurement_theta_max      27.4662
_cell_measurement_theta_min      2.4210
_cell_volume                     3143.4(16)
_computing_cell_refinement       'CrystalClear (Rigaku Inc., 2007)'
_computing_data_collection       'CrystalClear (Rigaku Inc., 2007)'
_computing_data_reduction        'CrystalClear (Rigaku Inc., 2007)'
_computing_molecular_graphics    DIAMOND
_computing_publication_material  'SHELXL-2013 (Sheldrick, 2013)'
_computing_structure_refinement  'SHELXL-2013 (Sheldrick, 2013)'
_computing_structure_solution    'SHELXL-2013 (Sheldrick, 2013)'
_diffrn_ambient_temperature      173(2)
_diffrn_detector_area_resol_mean 28.5714
_diffrn_measured_fraction_theta_full 0.998
_diffrn_measured_fraction_theta_max 0.999
_diffrn_measurement_method       CCD_Profile_fitting
_diffrn_radiation_type           MoK\a
_diffrn_radiation_wavelength     0.71073
_diffrn_reflns_av_R_equivalents  0.0753
_diffrn_reflns_av_unetI/netI     0.0768
_diffrn_reflns_Laue_measured_fraction_full 0.998
_diffrn_reflns_Laue_measured_fraction_max 0.999
_diffrn_reflns_limit_h_max       17
_diffrn_reflns_limit_h_min       -17
_diffrn_reflns_limit_k_max       18
_diffrn_reflns_limit_k_min       -18
_diffrn_reflns_limit_l_max       20
_diffrn_reflns_limit_l_min       -21
_diffrn_reflns_number            27179
_diffrn_reflns_point_group_measured_fraction_full 0.999
_diffrn_reflns_point_group_measured_fraction_max 0.999
_diffrn_reflns_theta_full        25.242
_diffrn_reflns_theta_max         27.461
_diffrn_reflns_theta_min         2.069
_exptl_absorpt_coefficient_mu    1.406
_exptl_absorpt_correction_T_max  0.932
_exptl_absorpt_correction_T_min  0.904
_exptl_absorpt_correction_type   multi-scan
_exptl_crystal_colour            green
_exptl_crystal_density_diffrn    1.468
_exptl_crystal_description       block
_exptl_crystal_F_000             1436
_exptl_crystal_size_max          0.100
_exptl_crystal_size_mid          0.060
_exptl_crystal_size_min          0.050
_refine_diff_density_max         0.528
_refine_diff_density_min         -0.495
_refine_diff_density_rms         0.113
_refine_ls_abs_structure_details
;
 Refined as an inversion twin.
;
_refine_ls_abs_structure_Flack   0.10(4)
_refine_ls_extinction_method     none
_refine_ls_goodness_of_fit_ref   1.056
_refine_ls_hydrogen_treatment    constr
_refine_ls_matrix_type           full
_refine_ls_number_parameters     377
_refine_ls_number_reflns         7162
_refine_ls_number_restraints     19
_refine_ls_restrained_S_all      1.055
_refine_ls_R_factor_all          0.0842
_refine_ls_R_factor_gt           0.0754
_refine_ls_shift/su_max          0.001
_refine_ls_shift/su_mean         0.000
_refine_ls_structure_factor_coef Fsqd
_refine_ls_weighting_details
;
 w=1/[\s^2^(Fo^2^)+(0.1376P)^2^+2.1514P]
 where P=(Fo^2^+2Fc^2^)/3
;
_refine_ls_weighting_scheme      calc
_refine_ls_wR_factor_gt          0.2174
_refine_ls_wR_factor_ref         0.2261
_reflns_Friedel_coverage         0.794
_reflns_Friedel_fraction_full    0.999
_reflns_Friedel_fraction_max     0.999
_reflns_number_gt                6564
_reflns_number_total             7162
_reflns_threshold_expression     'I > 2\s(I)'
_cod_data_source_file            ic500436g_si_001.cif
_cod_data_source_block           D-3-1-PPP
_cod_depositor_comments
'Adding full bibliography for 4338272--4338281.cif.'
_cod_original_cell_volume        3143.4(15)
_cod_database_code               4338281
#BEGIN Tags that were not found in dictionaries:
_shelx_space_group_comment
;
The symmetry employed for this shelxl refinement is uniquely defined
by the following loop, which should always be used as a source of
symmetry information in preference to the above space-group names.
They are only intended as comments.
;
_shelx_estimated_absorpt_t_min   0.872
_shelx_estimated_absorpt_t_max   0.933
_shelxl_version_number           2013-2
_shelx_res_file
;
TITL a in P2(1)2(1)2(1)
CELL 0.71073 13.5041 14.3750 16.1927 90.000 90.000 90.000
ZERR 4.0000 0.0036 0.0038 0.0045 0.000 0.000 0.000
LATT -1
SYMM 0.5-X, -Y, 0.5+Z
SYMM 0.5+X, 0.5-Y, -Z
SYMM -X, 0.5+Y, 0.5-Z
SFAC C H N O CU
UNIT 112 140 24 28 8
MERG 2
FMAP 2
GRID
PLAN 5
TEMP -100
BOND
L.S. 30
twin
size 0.1 0.05 0.06
simu 0.01 0.02 3.8 c21 c20 c22
delu 0.01 c26 o7
acta
WGHT    0.137600    2.151400
BASF   0.09898
FVAR       0.24301
CU1   5    1.069701    0.048701    0.085167    11.00000    0.03660    0.03262 =
         0.03051    0.00010    0.00033    0.00905
CU2   5    0.799163    0.293241    0.163929    11.00000    0.03585    0.03185 =
         0.02996    0.00018    0.00355    0.00637
O1    4    0.889268    0.201623    0.223635    11.00000    0.05553    0.05262 =
         0.02696    0.00613    0.00588    0.02371
O2    4    0.992374    0.149994    0.028419    11.00000    0.04845    0.03932 =
         0.03499   -0.00086    0.00654    0.01681
O3    4    1.121608   -0.042426    0.168578    11.00000    0.04529    0.03373 =
         0.03508   -0.00302   -0.00128    0.01656
O4    4    0.872155    0.427171    0.196892    11.00000    0.06410    0.04541 =
         0.04001   -0.01126   -0.00086   -0.01558
O5    4    0.715189    0.350600    0.075233    11.00000    0.03359    0.04538 =
         0.03844    0.00905    0.00016    0.00858
O6    4    1.217514    0.110400    0.058597    11.00000    0.04142    0.05970 =
         0.03901    0.00437    0.01398   -0.01591
O7    4    0.652471   -0.143113   -0.090888    11.00000    0.28059    0.10463 =
         0.26497    0.00661   -0.06238   -0.07412
AFIX  83
H7D   2    0.654420   -0.150346   -0.142338    11.00000   -1.50000
AFIX   0
N1    3    1.016034    0.104435    0.182796    11.00000    0.04966    0.03566 =
         0.03069    0.00640    0.00226    0.01373
N2    3    0.877769    0.260157    0.070399    11.00000    0.03886    0.04197 =
         0.01971    0.00012   -0.00020    0.01683
N3    3    1.066827   -0.037028   -0.010680    11.00000    0.03811    0.03924 =
         0.03857   -0.00218    0.00371   -0.00331
N4    3    1.101162   -0.009791   -0.085182    11.00000    0.05680    0.04754 =
         0.03174   -0.01194   -0.00132   -0.01447
AFIX  43
H4A   2    1.126883    0.045318   -0.095175    11.00000   -1.20000
AFIX   0
N5    3    0.701514    0.296696    0.252599    11.00000    0.03813    0.03556 =
         0.03721   -0.00756    0.00895   -0.00328
N6    3    0.718713    0.336112    0.325811    11.00000    0.04544    0.04684 =
         0.03273   -0.00913    0.00202   -0.01170
AFIX  43
H6B   2    0.774142    0.364752    0.338859    11.00000   -1.20000
AFIX   0
C1    1    1.098520    0.128631    0.316460    11.00000    0.16155    0.07552 =
         0.05528   -0.02037   -0.05458    0.03922
AFIX  33
H1A   2    1.059671    0.184790    0.327756    11.00000   -1.50000
H1B   2    1.160175    0.145839    0.288430    11.00000   -1.50000
H1C   2    1.114056    0.097224    0.368590    11.00000   -1.50000
AFIX   0
C2    1    1.039436    0.063973    0.261914    11.00000    0.06289    0.03529 =
         0.03220    0.00780    0.00728    0.02598
AFIX  13
H2A   2    0.976504    0.046912    0.290723    11.00000   -1.20000
AFIX   0
C3    1    1.099049   -0.025337    0.243987    11.00000    0.04621    0.02065 =
         0.04327    0.00248    0.00448    0.00440
C4    1    0.948101    0.164634    0.170461    11.00000    0.04200    0.03095 =
         0.03157    0.00360    0.00113    0.00777
C5    1    0.941001    0.193068    0.081180    11.00000    0.03444    0.03509 =
         0.02751    0.00599    0.00744    0.00103
C6    1    0.855025    0.306233   -0.007561    11.00000    0.04626    0.04790 =
         0.02811   -0.00207    0.00106    0.01632
AFIX  13
H6A   2    0.853436    0.259909   -0.053614    11.00000   -1.20000
AFIX   0
C7    1    0.932503    0.380848   -0.024705    11.00000    0.04982    0.09082 =
         0.05081    0.02164    0.01459    0.00555
AFIX  33
H7A   2    0.997747    0.351692   -0.030380    11.00000   -1.50000
H7B   2    0.933838    0.425287    0.021178    11.00000   -1.50000
H7C   2    0.915748    0.413551   -0.075937    11.00000   -1.50000
AFIX   0
C8    1    0.754349    0.352453    0.002003    11.00000    0.03522    0.04227 =
         0.03283   -0.00733   -0.00090    0.00240
C9    1    0.995795   -0.178774    0.051006    11.00000    0.08608    0.05006 =
         0.04597    0.00296    0.00739   -0.01963
AFIX  33
H9A   2    0.995697   -0.140104    0.100849    11.00000   -1.50000
H9B   2    1.036469   -0.234218    0.060467    11.00000   -1.50000
H9C   2    0.927839   -0.197652    0.037960    11.00000   -1.50000
AFIX   0
C10   1    1.037511   -0.124453   -0.019473    11.00000    0.04445    0.03784 =
         0.04114    0.00448   -0.01400   -0.00384
C11   1    1.051436   -0.154316   -0.101864    11.00000    0.03011    0.04111 =
         0.03836   -0.00500   -0.01070   -0.00536
C12   1    1.091266   -0.077132   -0.142253    11.00000    0.03422    0.05125 =
         0.03367   -0.00388   -0.00162   -0.00406
C13   1    1.124072   -0.057118   -0.228555    11.00000    0.10577    0.07413 =
         0.03478   -0.01437    0.01145   -0.04013
AFIX  33
H13A  2    1.147757    0.007198   -0.232105    11.00000   -1.50000
H13B  2    1.068237   -0.065715   -0.266454    11.00000   -1.50000
H13C  2    1.177741   -0.099710   -0.243717    11.00000   -1.50000
AFIX   0
C14   1    0.648917    0.365673    0.465270    11.00000    0.09246    0.07197 =
         0.05880   -0.02427    0.02714   -0.03398
AFIX  33
H14A  2    0.711731    0.399184    0.471072    11.00000   -1.50000
H14B  2    0.646659    0.314420    0.505132    11.00000   -1.50000
H14C  2    0.593761    0.408379    0.475741    11.00000   -1.50000
AFIX   0
C15   1    0.640496    0.326735    0.377712    11.00000    0.05436    0.04386 =
         0.03521   -0.00459    0.01004   -0.00929
C16   1    0.570312    0.276729    0.336347    11.00000    0.04019    0.03586 =
         0.03634    0.00646    0.00579   -0.00061
C17   1    0.610985    0.259835    0.257403    11.00000    0.04467    0.04192 =
         0.03954   -0.00312    0.00197   -0.00554
C18   1    0.567876    0.210759    0.185648    11.00000    0.07186    0.09426 =
         0.04121   -0.00844   -0.00631   -0.03956
AFIX  33
H18A  2    0.614971    0.212021    0.139616    11.00000   -1.50000
H18B  2    0.506324    0.241650    0.169042    11.00000   -1.50000
H18C  2    0.553764    0.146081    0.200733    11.00000   -1.50000
AFIX   0
C19   1    0.466736    0.251131    0.364866    11.00000    0.04106    0.03046 =
         0.06662    0.02265    0.01900    0.00397
AFIX  43
H19A  2    0.414334    0.295094    0.361868    11.00000   -1.20000
AFIX  66
C20   1    0.820685    0.015877   -0.161746    11.00000    0.17827    0.14576 =
         0.28876    0.10043    0.11405    0.05675
AFIX  43
H20A  2    0.873141   -0.027278   -0.153971    11.00000   -1.20000
AFIX  65
C21   1    0.832056    0.089604   -0.216472    11.00000    0.18243    0.14704 =
         0.29365    0.10156    0.11524    0.05944
AFIX  43
H21A  2    0.892285    0.096837   -0.246101    11.00000   -1.20000
AFIX  65
C22   1    0.755304    0.152747   -0.227848    11.00000    0.17862    0.14825 =
         0.29235    0.10030    0.11561    0.05428
AFIX  43
H22A  2    0.763077    0.203135   -0.265251    11.00000   -1.20000
AFIX  65
C23   1    0.667180    0.142164   -0.184498    11.00000    0.14459    0.08624 =
         0.24868    0.03965    0.04515    0.01634
AFIX  43
H23A  2    0.614724    0.185320   -0.192273    11.00000   -1.20000
AFIX  65
C24   1    0.655807    0.068438   -0.129771    11.00000    0.07830    0.12026 =
         0.28241    0.02504    0.02431    0.00270
AFIX  43
H24A  2    0.595578    0.061206   -0.100143    11.00000   -1.20000
AFIX  65
C25   1    0.732558    0.005294   -0.118395    11.00000    0.12232    0.09450 =
         0.15174    0.03467    0.04923    0.00557
AFIX   0
C26   1    0.723232   -0.083061   -0.067851    11.00000    0.15679    0.09262 =
         0.15104   -0.01740    0.00087   -0.02991
AFIX  13
H26A  2    0.787240   -0.116915   -0.075674    11.00000   -1.20000
AFIX   0
C27   1    0.714909   -0.067169    0.020903    11.00000    0.16557    0.20009 =
         0.12519   -0.03192    0.01539   -0.08166
AFIX  23
H27A  2    0.643767   -0.059540    0.034021    11.00000   -1.20000
H27B  2    0.737667   -0.124300    0.049284    11.00000   -1.20000
AFIX   0
C28   1    0.762951    0.004136    0.053772    11.00000    0.22998    0.19181 =
         0.25653   -0.01334   -0.09170   -0.05893
AFIX  33
H28A  2    0.750535    0.006024    0.113377    11.00000   -1.50000
H28B  2    0.739735    0.062103    0.028478    11.00000   -1.50000
H28C  2    0.834124   -0.002968    0.043777    11.00000   -1.50000

AFIX   0
HKLF 4

REM  a in P2(1)2(1)2(1)
REM R1 =  0.0754 for    6564 Fo > 4sig(Fo)  and  0.0842 for all    7162 data
REM    377 parameters refined using     19 restraints

END

WGHT      0.0671      2.5566

REM Highest difference peak  0.528,  deepest hole -0.495,  1-sigma level  0.113
Q1    1   0.7995  0.0276 -0.1338  11.00000  0.05    0.53
Q2    1   0.7400  0.0819 -0.0251  11.00000  0.05    0.48
Q3    1   0.6671  0.0153  0.0587  11.00000  0.05    0.46
Q4    1   0.7964  0.0426 -0.0429  11.00000  0.05    0.45
Q5    1   0.7603  0.0358  0.0623  11.00000  0.05    0.45
;
_shelx_res_checksum              40971
_shelx_hkl_file
;
   0   0  -2   -2.75    0.98
   0   0   2    1.42    0.79
   0   0  -2    0.16    0.27
   0   0   2    2.40    0.64
   0   0  -3   -2.61    2.21
   0   0   3   -2.33    1.92
   0   0  -3    1.17    0.98
   0   0   3    0.97    0.90
   0   0  -4   23.99    4.80
   0   0   4   16.13    3.36
   0   0  -4   17.32    4.05
   0   0   4   15.57    3.60
   0   0  -5   -2.94    4.03
   0   0   5    7.40    3.56
   0   0  -5    0.78    1.13
   0   0   5    1.45    0.93
   0   0  -6   14.11    3.95
   0   0  -6   16.25    3.52
   0   0   6   14.69    2.86
   0   0  -7    3.59    3.01
   0   0  -7    2.35    2.21
   0   0   7    1.39    1.90
   0   0  -8  379.85   19.09
   0   0  -8  413.77   19.17
   0   0   8  396.92   18.67
   0   0  -9    3.69    2.34
   0   0  -9    1.95    1.64
   0   0 -10   15.97    5.04
   0   0 -10   15.37    3.73
   0   0 -11    6.48    2.83
   0   0 -11    4.71    1.81
   0   0 -12 1374.22   85.18
   0   0 -12 1528.62  260.64
   0   0 -13   11.46    5.48
   0   0 -13    2.31    1.55
   0   0 -14    3.68    3.79
   0   0 -14    3.97    3.30
   0   0 -15    9.45    4.08
   0   0 -15    3.14    2.11
   0   0 -16   38.20    9.68
   0   0 -16   29.18    8.22
   0   0 -17    4.90    4.63
   0   0 -17    3.61    2.07
   0   0 -18    8.12    6.73
   0   0 -19    7.10    6.18
   0   0 -20   14.05    8.25
   0   0 -21   -1.60    5.45
   0   1  -2    2.25    1.03
   0  -1   2    1.07    0.81
   0  -1  -2    2.63    1.31
   0   1   2    1.34    0.79
   0  -1   2    0.82    0.43
   0  -1  -2    1.03    0.55
   0   1   2    2.27    1.26
   0   1  -3  199.77    6.89
   0  -1   3  204.51    6.11
   0  -1  -3  201.18    6.04
   0   1   3  191.62    5.60
   0   1  -3  203.52    5.21
   0  -1   3  209.66    5.35
   0  -1  -3  208.29    5.97
   0   1   3  201.30    5.38
   0   1  -4 1068.24   24.37
   0  -1   4 1073.28   24.30
   0  -1  -4 1068.97   24.25
   0   1   4 1013.86   22.87
   0   1  -4 1098.57   23.56
   0  -1   4 1090.71   23.31
   0  -1  -4 1111.31   24.35
   0   1   4 1082.29   23.43
   0   1  -5  289.51    9.02
   0  -1   5  305.31    9.24
   0  -1  -5  295.97    9.38
   0   1   5  280.71    8.30
   0   1  -5  316.76    8.15
   0  -1   5  308.18    8.08
   0  -1  -5  301.82    8.45
   0   1   5  313.37    8.28
   0   1  -6  105.03   12.62
   0  -1  -6  111.85   10.00
   0   1  -6  119.00   11.32
   0  -1   6  112.77    9.38
   0  -1  -6  113.76    9.56
   0   1   6  102.36   14.25
   0   1  -7   94.90   19.44
   0  -1  -7  104.21   14.83
   0   1  -7  102.79   13.24
   0  -1   7   86.99    7.68
   0  -1  -7   92.20   11.60
   0   1   7   75.25   14.48
   0   1  -8    8.27    2.78
   0  -1  -8    4.45    2.71
   0   1  -8    5.33    1.73
   0  -1  -8    6.37    2.76
   0  -1   8    1.50    1.58
   0   1   8    1.60    1.70
   0   1  -9  260.69   14.70
   0  -1  -9  254.75   34.08
   0   1  -9  316.36   24.01
   0  -1  -9  275.15   14.62
   0   1 -10  173.90   28.06
   0  -1 -10  144.24   21.93
   0   1 -10  161.73   10.80
   0  -1 -10  161.19    8.66
   0   1 -11  197.71   27.23
   0  -1 -11  189.93   27.89
   0   1 -11  199.27   13.82
   0  -1 -11  187.92   13.62
   0   1 -12    9.41    5.05
   0  -1 -12   -2.37    5.78
   0   1 -12   15.22    3.77
   0  -1 -12   11.45    3.32
   0   1 -13  195.41   31.96
   0  -1 -13  171.11   20.59
   0   1 -13  193.48   16.31
   0  -1 -13  180.31   10.91
   0   1 -14   24.12    5.63
   0  -1 -14   27.47    5.52
   0   1 -14   29.67    6.50
   0  -1 -14   23.24    5.19
   0   1 -15   11.32    6.04
   0  -1 -15   14.09    4.18
   0   1 -15    8.89    2.26
   0  -1 -15    8.94    4.02
   0   1 -16    6.10    3.76
   0  -1 -16    7.69    3.74
   0  -1 -16    2.99    1.70
   0   1 -17    8.42    9.82
   0  -1 -17    2.37    2.35
   0  -1 -17    2.82    1.73
   0   1 -18    9.16    4.07
   0  -1 -18    6.65    5.55
   0   1 -19   17.49    7.60
   0  -1 -19    8.78    5.49
   0   1 -20   30.19    9.98
   0  -1 -20   11.09    5.41
   0   2   0    2.79    0.84
   0  -2   0    6.10    1.52
   0  -2   0   10.26    2.33
   0   2   0    4.16    0.91
   0  -2   0    1.63    0.88
   0   2   0    8.37    2.09
   0   2   1   16.62    3.22
   0  -2  -1   13.35    2.32
   0   2  -1   14.09    1.77
   0  -2   1   15.60    2.79
   0  -2  -1   15.78    2.76
   0   2   1   13.61    2.24
   0  -2   1   14.50    3.09
   0   2   1   11.08    2.96
   0  -2   1   15.52    2.64
   0   2  -1   10.82    1.90
   0   2  -2  518.73   12.06
   0  -2   2  516.14   11.89
   0  -2  -2  543.88   12.66
   0   2   2  543.35   12.44
   0  -2  -2  518.69   12.23
   0   2   2  516.43   12.06
   0   2  -3  603.23   14.65
   0  -2  -3  616.28   15.14
   0   2   3  545.62   13.21
   0  -2  -3  604.01   15.37
   0   2   3  550.84   13.20
   0   2  -4    5.58    3.12
   0  -2   4    5.20    1.86
   0  -2  -4    7.08    2.19
   0   2   4    3.43    2.20
   0  -2   4    5.88    1.34
   0  -2  -4    3.02    1.80
   0   2   4    2.49    1.58
   0   2  -5  667.34   17.56
   0  -2  -5  658.07   16.77
   0  -2   5  647.89   14.87
   0  -2  -5  673.82   16.46
   0   2   5  623.93   14.78
   0   2  -6 1000.86   45.00
   0  -2  -6  966.31   44.93
   0  -2   6 1026.06   45.22
   0  -2  -6 1039.37   46.75
   0   2   6  923.09   41.34
   0   2  -7  101.46   11.17
   0  -2  -7  114.09   18.66
   0  -2   7  102.58   11.91
   0  -2  -7  103.84   16.04
   0   2   7   96.19   12.60
   0   2  -8    3.53    4.47
   0  -2  -8    1.11    2.69
   0  -2  -8    4.97    2.33
   0   2  -9   75.80    9.50
   0  -2  -9   87.55   15.36
   0  -2  -9   69.78   11.16
   0  -2 -10  270.45   19.28
   0  -2 -10  296.86   18.74
   0   2 -11   68.54   11.61
   0  -2 -11   94.34   17.41
   0  -2 -11   95.99    8.86
   0   2 -12    3.93    4.19
   0  -2 -12    5.04    5.24
   0  -2 -12    5.04    2.02
   0   2 -13   12.54    4.23
   0  -2 -13    4.87    4.12
   0  -2 -13   13.91    5.34
   0   2 -14   14.47    3.62
   0  -2 -14    9.60    5.23
   0  -2 -14   15.78    5.24
   0   2 -15   63.41   14.33
   0  -2 -15   41.88    9.01
   0  -2 -15   38.45    8.86
   0   2 -16   12.91    4.55
   0  -2 -16   10.11    5.61
   0  -2 -16    8.30    3.66
   0   2 -17   26.85    5.46
   0  -2 -17   20.32    8.55
   0  -2 -17   15.67    6.20
   0   2 -18   97.27   27.23
   0  -2 -18  114.76   15.48
   0   2 -19   12.79    8.43
   0  -2 -19    7.44    4.82
   0   2 -20   19.50    8.00
   0  -2 -20   13.19    6.89
   0   3   0    1.90    1.16
   0  -3   0    1.34    1.44
   0  -3   0   -2.31    3.10
   0   3   0    1.57    3.89
   0   3   0    0.41    1.17
   0   3   1    0.90    1.34
   0  -3  -1    2.57    1.86
   0   3  -1    2.64    2.64
   0  -3   1   -0.21    1.35
   0  -3  -1    3.99    3.00
   0   3   1    2.29    4.88
   0  -3   1   -1.24    3.29
   0  -3  -1    1.61    1.59
   0   3   1    0.92    1.05
   0  -3   1    3.81    2.33
   0   3  -1    4.50    1.79
   0  -3  -2   65.85    9.01
   0   3  -2   73.15    7.71
   0  -3   2   60.40    5.93
   0  -3  -2   84.69   16.12
   0  -3  -2   84.00   16.08
   0   3   2   72.07    7.60
   0  -3   2   79.86   14.07
   0   3  -3   26.51    5.43
   0  -3   3   25.40    5.60
   0  -3  -3   36.31    7.02
   0   3   3   20.11    3.86
   0  -3  -3   32.93    7.12
   0   3   3   23.67    4.44
   0  -3   3   28.55    5.78
   0   3  -4    1.30    3.33
   0  -3   4    1.78    1.87
   0  -3  -4    4.71    2.12
   0   3   4    3.23    3.04
   0  -3  -4   -0.75    1.98
   0   3   4   -2.27    2.47
   0   3  -5  445.82   13.05
   0  -3  -5  451.62   13.02
   0  -3   5  411.27   10.39
   0  -3  -5  448.72   13.12
   0   3   5  403.32   10.76
   0   3  -6  191.02   13.91
   0  -3  -6  197.18   17.82
   0  -3   6  169.15   15.21
   0  -3  -6  203.75   14.13
   0   3  -7  359.52   18.16
   0  -3  -7  369.15   22.21
   0  -3  -7  370.30   18.75
   0   3  -8   39.58    6.80
   0  -3  -8   32.96    7.91
   0  -3  -8   39.69    7.54
   0   3  -9   47.81   11.10
   0  -3  -9   69.28   16.71
   0  -3  -9   56.38   10.29
   0   3 -10  383.13   28.46
   0  -3 -10  377.07   26.60
   0  -3 -10  429.00   26.50
   0   3 -11   36.40    7.50
   0  -3 -11   31.41    7.57
   0  -3 -11   39.28    8.19
   0   3 -12    9.59    3.95
   0  -3 -12    7.66    4.45
   0  -3 -12    0.99    2.93
   0   3 -13   27.44    7.19
   0  -3 -13   19.00    7.29
   0  -3 -13   24.67    5.85
   0   3 -14   80.50   16.48
   0  -3 -14   96.19   18.04
   0  -3 -14   89.43   13.49
   0   3 -15   44.18    9.89
   0  -3 -15   56.81    9.08
   0  -3 -15   26.41    8.53
   0   3 -16    7.77    3.74
   0  -3 -16    2.70    5.36
   0  -3 -16    2.46    1.59
   0   3 -17   42.18   12.80
   0  -3 -17   39.04    8.16
   0  -3 -17   37.61   11.08
   0   3 -18   20.96    5.42
   0  -3 -18   14.00    4.89
   0   3 -19   11.37    4.19
   0  -3 -19   14.40    9.76
   0   3 -20    9.70    4.35
   0  -3 -20    9.80    5.52
   0   4   0    7.96    2.85
   0  -4   0    3.10    2.33
   0  -4   0    4.09    2.47
   0   4   0    2.27    2.71
   0  -4   0    5.28    1.38
   0   4   0    3.45    1.71
   0   4   1  939.19   21.07
   0  -4  -1  892.39   19.97
   0   4  -1  898.13   20.23
   0  -4   1  864.92   19.47
   0  -4  -1  924.31   28.79
   0   4   1  927.69   22.21
   0  -4   1  915.99   22.16
   0  -4  -1  948.99   20.79
   0   4   1  912.40   19.96
   0  -4   1  949.58   21.20
   0   4  -1  907.68   20.26
   0  -4  -2  429.01   12.71
   0   4  -2  440.41   11.19
   0  -4   2  415.76   10.64
   0  -4  -2  455.35   13.21
   0   4   2  457.11   12.91
   0  -4   2  433.94   12.50
   0   4   2  452.12   10.77
   0  -4   2  460.20   11.75
   0  -4  -3  659.77   15.79
   0   4  -3  647.34   15.79
   0  -4  -3  686.14   17.14
   0  -4  -3  669.20   17.20
   0   4   3  638.84   16.10
   0   4   3  648.62   14.98
   0  -4   3  635.22   15.62
   0   4  -4  228.62   14.11
   0  -4  -4  227.28   12.82
   0  -4  -4  234.17    8.39
   0  -4   4  203.17    7.44
   0   4  -5    5.25    2.62
   0  -4  -5   -0.39    3.41
   0  -4  -5    2.46    3.27
   0   4  -6  130.18   20.32
   0  -4  -6  114.09   19.50
   0  -4  -6  105.38   17.06
   0   4  -7    9.14    4.32
   0  -4  -7   16.49    5.52
   0  -4  -7   18.67    4.82
   0   4  -8   22.84    6.50
   0  -4  -8   27.35    5.36
   0  -4  -8   25.98    6.02
   0   4  -9   27.17    6.64
   0  -4  -9   37.52    7.18
   0  -4  -9   32.02    7.71
   0   4 -10   64.91   15.31
   0  -4 -10   61.15   11.73
   0  -4 -10   57.36    8.29
   0   4 -11  496.47   33.13
   0  -4 -11  490.37   39.01
   0  -4 -11  547.23   35.28
   0   4 -12  206.93   25.23
   0  -4 -12  194.34   26.33
   0  -4 -12  198.52   18.17
   0   4 -13   93.69   13.85
   0  -4 -13  100.82   13.12
   0  -4 -13  116.74    9.61
   0   4 -14    9.58    5.18
   0  -4 -14    1.98    7.80
   0  -4 -14    5.99    2.66
   0   4 -15   50.72   18.93
   0  -4 -15   53.93    9.29
   0  -4 -15   30.50    8.88
   0   4 -16   15.60    4.78
   0  -4 -16   15.12    7.56
   0  -4 -16    5.94    2.64
   0   4 -17    8.29    5.99
   0  -4 -17   12.00    5.43
   0  -4 -17    4.26    2.97
   0   4 -18    4.82    6.58
   0  -4 -18    7.09    6.05
   0   4 -19    6.17    3.27
   0  -4 -19    6.04    4.15
   0   4 -20    2.08    1.94
   0  -4 -20   10.47    7.22
   0   5   0    0.87    1.45
   0  -5   0    1.93    1.37
   0  -5   0    8.93    3.66
   0  -5   0    2.36    1.11
   0   5   0    1.76    1.03
   0   5   1  109.30   10.65
   0  -5  -1  117.40   10.01
   0   5  -1  126.08   12.83
   0  -5   1  117.04   16.11
   0  -5  -1  157.10   28.48
   0  -5   1  146.24   22.33
   0  -5  -1  136.46   15.79
   0   5   1  111.78   11.17
   0  -5   1  114.26   10.23
   0   5  -1  121.55   12.58
   0   5   2   17.39    3.68
   0  -5  -2   13.83    4.16
   0   5  -2   19.70    4.46
   0  -5   2   12.06    3.84
   0  -5  -2   17.87    4.55
   0  -5   2   16.92    3.88
   0   5   2   14.72    3.42
   0  -5   2   11.94    4.09
   0   5  -2   11.21    3.85
   0   5  -3   94.60   16.10
   0  -5  -3   94.04   11.40
   0  -5  -3   92.68   16.62
   0  -5   3   95.85   15.49
   0   5   3   82.21    8.74
   0  -5   3   77.67    9.03
   0   5  -4    5.05    1.93
   0  -5  -4    5.90    3.37
   0  -5  -4    4.34    4.13
   0   5   4    4.12    1.86
   0  -5   4    4.77    2.31
   0   5  -5  904.60   41.03
   0  -5  -5  929.27   42.32
   0  -5  -5  922.21   42.05
   0  -5   5  886.56   40.43
   0   5  -6   46.49    8.71
   0  -5  -6   38.31    8.30
   0  -5  -6   36.10    7.43
   0  -5   6   42.26    8.77
   0   5  -7  372.51   35.20
   0  -5  -7  298.18   16.58
   0  -5  -7  333.18   17.84
   0  -5   7  317.65   17.34
   0   5  -8  288.43   20.79
   0  -5  -8  275.87   15.80
   0  -5  -8  298.16   18.80
   0   5  -9    8.12    3.44
   0  -5  -9    6.37    3.70
   0  -5  -9   13.74    4.48
   0   5 -10  202.48   29.13
   0  -5 -10  174.85   32.79
   0  -5 -10  194.88   18.19
   0   5 -11  163.95   14.37
   0  -5 -11  207.41   26.73
   0  -5 -11  199.99    9.43
   0   5 -12    7.51    4.36
   0  -5 -12    6.93    4.74
   0  -5 -12    3.53    3.37
   0   5 -13    5.83    3.57
   0  -5 -13    1.90    3.99
   0  -5 -13   -2.24    2.74
   0   5 -14   26.27    7.12
   0  -5 -14   30.48    8.94
   0  -5 -14   27.45    8.79
   0   5 -15    4.25    2.92
   0  -5 -15    2.43    3.70
   0   5 -16   10.75    4.98
   0  -5 -16   12.30    4.47
   0  -5 -16   10.79    3.47
   0   5 -17   53.92   15.88
   0  -5 -17   42.89   16.13
   0  -5 -17   36.26   10.92
   0   5 -18   10.60    3.98
   0  -5 -18    8.55    3.12
   0  -5 -18    5.33    2.24
   0   5 -19    3.13    4.20
   0  -5  19    4.97    3.57
   0   5 -20   13.11    5.37
   0  -5 -20   10.42    5.05
   0  -5  20   10.92    5.33
   0   6   0   58.12   10.08
   0  -6   0   69.61   11.57
   0  -6   0   57.40   10.52
   0   6   0   43.93    9.66
   0   6   1  283.07   23.58
   0   6  -1  294.23   28.64
   0  -6  -1  305.39   15.94
   0  -6   1  293.67   25.73
   0  -6  -1  310.96   16.56
   0  -6   1  278.26   18.53
   0   6   1  265.63   17.75
   0   6  -1  283.78   18.87
   0   6   2  123.63   10.71
   0   6  -2  136.52   12.88
   0  -6  -2  125.22   12.72
   0  -6   2  126.31   12.58
   0  -6  -2  119.59   11.43
   0   6   2  115.74    9.83
   0  -6   2  119.29   10.81
   0   6  -3  140.83   13.96
   0  -6  -3  141.05   10.80
   0  -6  -3  146.91   23.69
   0  -6   3  138.42   17.21
   0   6   3  117.20   10.56
   0  -6   3  155.67   18.25
   0   6  -4    4.16    2.03
   0  -6  -4    3.52    3.50
   0  -6  -4   -2.27    4.76
   0  -6   4   -2.46    3.86
   0   6   4    1.55    1.19
   0  -6   4    4.97    3.32
   0   6  -5  714.96   35.21
   0  -6  -5  757.47   36.77
   0  -6  -5  741.92   36.97
   0  -6   5  676.01   35.35
   0  -6   5  696.75   35.50
   0   6  -6   25.72    5.17
   0  -6  -6   23.35    6.08
   0  -6  -6   31.25    7.87
   0  -6   6   26.95    6.40
   0   6  -7  800.73   38.84
   0  -6  -7  835.57   40.87
   0  -6  -7  792.67   41.84
   0  -6   7  864.29   42.24
   0   6  -8    5.40    4.00
   0  -6  -8   13.95    7.82
   0  -6  -8    6.71    3.79
   0  -6   8    8.63    5.06
   0   6  -9  398.28   26.96
   0  -6  -9  340.34   25.00
   0  -6  -9  373.30   27.24
   0  -6   9  403.90   40.55
   0   6 -10   12.91    4.78
   0  -6 -10   20.47    6.66
   0  -6 -10    6.68    6.00
   0  -6  10   17.22    6.17
   0   6 -11   67.69   14.32
   0  -6 -11   64.46   12.34
   0  -6 -11   64.43    7.58
   0  -6  11   76.76   19.26
   0   6 -12   13.89    4.20
   0  -6 -12   11.66    7.67
   0  -6 -12    6.38    3.56
   0   6 -13   34.43    9.60
   0  -6 -13   32.66    5.85
   0   6 -14   13.34    4.94
   0  -6 -14   17.93    4.13
   0  -6 -14   19.07    3.54
   0   6 -15  107.57   28.89
   0  -6 -15  114.37   28.59
   0  -6 -15   99.13   15.28
   0  -6  15  104.72   21.99
   0   6 -16    2.63    3.06
   0  -6 -16    5.47    3.51
   0  -6 -16    3.30    2.81
   0  -6  16    2.28    2.95
   0   6 -17   31.95   11.50
   0  -6 -17   36.00   15.56
   0  -6 -17   31.37   12.39
   0  -6  17   42.75   11.85
   0   6 -18   10.04    5.78
   0  -6 -18    8.53    3.54
   0  -6 -18    7.72    3.75
   0  -6  18   15.97    5.93
   0   6 -19   29.03   11.23
   0  -6 -19   25.81    8.76
   0  -6  19   28.65    9.44
   0   7   0    1.79    1.19
   0  -7   0    3.25    4.27
   0  -7   0    0.56    1.83
   0   7   1  107.83   14.29
   0   7  -1   98.25   17.50
   0  -7  -1  100.49   13.50
   0  -7   1  117.83   18.72
   0  -7  -1  104.80   11.32
   0  -7   1   99.18   11.27
   0   7   1   74.99    7.49
   0   7   2    2.52    1.45
   0   7  -2    2.96    2.09
   0  -7  -2    5.92    5.58
   0  -7   2    3.65    2.77
   0  -7  -2    0.83    1.36
   0   7   2    0.95    1.56
   0  -7   2    1.70    2.12
   0   7   3   36.04    9.35
   0   7  -3   28.68    6.28
   0  -7  -3   34.57    9.14
   0  -7   3   34.27    7.22
   0  -7   3   30.88    7.07
   0   7  -4  519.19   27.86
   0  -7  -4  551.29   27.39
   0  -7  -4  515.11   32.04
   0  -7   4  548.16   27.92
   0  -7   4  534.91   29.08
   0   7  -5  110.08   16.17
   0  -7  -5  110.09   22.15
   0  -7  -5  118.72   18.40
   0  -7   5   87.74   14.35
   0  -7   5  111.13   17.01
   0   7  -6   10.65    3.67
   0  -7  -6   12.75    7.51
   0  -7  -6   10.01    4.16
   0  -7   6   10.41    4.46
   0  -7   6    9.45    3.13
   0   7  -7    8.55    3.67
   0  -7  -7   14.14    6.26
   0  -7  -7    8.60    6.12
   0  -7   7    8.61    3.79
   0  -7   7   19.59    4.75
   0   7  -8  670.92   42.65
   0  -7  -8  706.47   45.49
   0  -7  -8  763.34   58.96
   0  -7   8  791.74   50.76
   0   7  -9    9.83    5.04
   0  -7  -9    8.72    7.51
   0  -7  -9    1.64    4.68
   0  -7   9   10.54    5.36
   0   7 -10    4.33    2.82
   0  -7 -10    4.68    5.06
   0  -7 -10   12.79    6.62
   0  -7  10    5.75    4.99
   0   7 -11   75.72   10.70
   0  -7 -11   48.23    9.11
   0  -7 -11   74.70   19.14
   0  -7  11   75.55   11.76
   0   7 -12    7.64    2.36
   0  -7 -12   17.91    6.33
   0  -7 -12   18.10    5.37
   0  -7  12   13.39    5.74
   0   7 -13   71.67   15.62
   0  -7 -13   69.49   13.10
   0  -7 -13   66.88   15.61
   0  -7  13   74.87   17.12
   0   7 -14   12.40    5.11
   0  -7 -14    9.33    6.14
   0  -7 -14    7.88    5.14
   0  -7  14   -9.45    5.91
   0   7 -15    7.87    3.89
   0  -7 -15    9.54    3.71
   0  -7 -15   11.30    3.35
   0  -7  15   12.45    4.62
   0   7 -16   48.73    9.88
   0  -7 -16   65.13   12.40
   0  -7 -16   37.03    9.00
   0  -7  16   56.29   14.14
   0   7 -17   33.41    9.55
   0  -7 -17   50.35   12.86
   0  -7 -17   27.56    8.79
   0  -7  17   41.29   16.92
   0   7 -18    3.91    3.00
   0  -7 -18    8.02    4.44
   0  -7  18    6.57    6.12
   0   7 -19    2.15    2.53
   0  -7 -19    7.24    4.30
   0  -7  19    6.22    5.62
   0   8   0  370.45   21.72
   0  -8   0  396.62   22.00
   0  -8   0  394.02   22.46
   0   8   1  134.74   10.86
   0   8  -1  124.94   17.00
   0  -8  -1  128.86   19.63
   0  -8   1  136.94   28.73
   0  -8  -1  121.05   10.54
   0  -8   1  128.30   12.05
   0   8   2  114.25   10.72
   0   8  -2  126.62   12.97
   0  -8  -2  123.21   21.15
   0  -8   2  112.55   22.50
   0  -8  -2  122.46   10.60
   0  -8   2  103.99   10.30
   0   8   3  119.61   12.98
   0   8  -3  125.26   11.17
   0  -8  -3  118.30   23.45
   0  -8   3  113.91   19.88
   0  -8   3  138.61   15.12
   0   8  -4   62.24    9.41
   0  -8  -4   72.03   10.13
   0  -8  -4   63.02   16.41
   0  -8   4   64.48   11.90
   0  -8   4   63.37   13.27
   0   8  -5   15.74    4.67
   0  -8  -5   11.49    5.46
   0  -8  -5    6.08    2.91
   0  -8   5   10.02    3.84
   0  -8   5    7.51    2.70
   0   8  -6    1.71    2.68
   0  -8  -6    1.69    2.42
   0  -8  -6    5.86    3.33
   0  -8   6    4.08    5.06
   0  -8   6    4.92    2.51
   0   8  -7    4.01    2.57
   0  -8  -7    0.91    5.41
   0  -8  -7    6.03    5.45
   0  -8   7   -0.45    4.96
   0  -8   7   12.85    6.30
   0   8  -8   12.00    4.46
   0  -8  -8    8.17    4.55
   0  -8  -8   12.29    4.00
   0  -8   8   11.45    3.44
   0  -8   8    4.02    2.95
   0   8  -9    8.06    4.96
   0  -8  -9   14.20    6.56
   0  -8  -9   11.70    4.46
   0  -8   9   14.64    6.01
   0  -8   9   30.13   10.16
   0   8 -10    9.67    3.68
   0  -8 -10   -1.00    5.62
   0  -8 -10    4.28    3.31
   0  -8  10    9.92    7.02
   0  -8  10    7.22    4.87
   0   8 -11   44.25   13.06
   0  -8 -11   31.34   11.35
   0  -8 -11   30.91    9.02
   0  -8  11   46.14    5.75
   0   8 -12  115.09   18.79
   0  -8 -12  152.08   13.76
   0  -8  12  165.65   39.69
   0   8 -13   99.24   14.77
   0  -8 -13  101.37   15.39
   0  -8 -13   92.16   24.97
   0  -8  13  117.37   22.03
   0   8 -14    5.16    3.65
   0  -8 -14   10.65    3.88
   0  -8 -14    5.14    4.11
   0  -8  14    5.67    8.81
   0   8 -15   36.15   10.97
   0  -8 -15   39.47   12.35
   0  -8 -15   33.07   11.07
   0  -8  15   47.64    9.84
   0   8 -16   24.62   20.92
   0  -8 -16   34.10    8.74
   0  -8 -16   27.05    7.93
   0  -8  16   24.52    8.74
   0  -8 -17    8.23    4.40
   0  -8 -17    6.76    3.33
   0  -8  17   34.61   10.11
   0   8 -18   12.22    4.91
   0  -8 -18   -0.06    5.60
   0  -8  18    8.28    4.58
   0   9   0    0.24    2.31
   0  -9   0    9.26    7.34
   0  -9   0    2.07    2.21
   0   9   1   15.09    3.64
   0   9  -1    6.46    3.13
   0  -9  -1   22.93    6.18
   0  -9   1   21.11    4.92
   0  -9  -1   21.47    4.37
   0  -9   1   13.73    3.04
   0   9   2  438.01   37.21
   0   9  -2  414.74   26.04
   0  -9  -2  372.65   28.67
   0  -9   2  387.27   25.63
   0  -9  -2  453.46   27.83
   0  -9   2  432.74   41.31
   0   9   3  334.76   21.63
   0   9  -3  314.04   21.81
   0  -9  -3  355.11   38.18
   0  -9   3  309.42   21.72
   0  -9   3  307.30   23.20
   0   9  -4   25.23   10.32
   0  -9  -4   32.60    8.56
   0  -9  -4   19.77    5.22
   0  -9   4   19.49    7.07
   0  -9   4   20.54    4.16
   0   9  -5  254.27   17.66
   0  -9  -5  280.20   25.71
   0  -9  -5  300.72   38.22
   0  -9   5  226.70   18.05
   0  -9   5  274.43   21.90
   0   9  -6   41.49   10.58
   0  -9  -6   54.35   11.20
   0  -9  -6   45.14    8.21
   0  -9   6   37.31    9.78
   0  -9   6   51.36    8.85
   0   9  -7   75.81   10.54
   0  -9  -7   69.57   14.22
   0  -9  -7   82.09   15.67
   0  -9   7   78.36   17.52
   0  -9   7   81.20   14.06
   0   9  -8    3.02    2.94
   0  -9  -8    8.58    4.84
   0  -9  -8   10.57    4.69
   0  -9   8    3.06    3.03
   0  -9   8    8.65    4.62
   0   9  -9   21.38    7.52
   0  -9  -9   26.12    8.46
   0  -9  -9   23.46   12.31
   0  -9   9   13.34    6.40
   0  -9   9   18.28    6.82
   0   9 -10  208.68   33.15
   0  -9 -10  184.81   30.59
   0  -9 -10  206.77   22.05
   0  -9  10  165.94   25.87
   0  -9  10  227.50   24.92
   0   9 -11   15.41    5.41
   0  -9 -11   17.18    5.59
   0  -9 -11   10.53    4.45
   0  -9  11    3.66    3.20
   0  -9  11    9.30    5.04
   0   9 -12   12.53    4.77
   0  -9 -12    5.25    3.67
   0  -9 -12   14.33    6.39
   0  -9  12   14.10    6.74
   0  -9  12    8.17    5.63
   0   9 -13    4.77    4.56
   0  -9 -13    7.05    2.79
   0  -9 -13    3.76    2.90
   0  -9  13    3.38    3.21
   0  -9  13    4.20    4.01
   0   9 -14   99.55   21.81
   0  -9 -14  101.84   25.95
   0  -9 -14   76.75   16.91
   0  -9  14   90.98   13.89
   0  -9  14  114.84   32.30
   0   9 -15   35.72    9.41
   0  -9 -15   27.96   10.60
   0  -9 -15   27.77    7.32
   0  -9  15    8.93    2.88
   0  -9  15   37.93   18.99
   0   9 -16    4.99    4.63
   0  -9 -16   -0.19    5.37
   0  -9 -16   12.39    4.04
   0  -9  16   12.35    5.52
   0   9 -17   18.72    4.50
   0  -9 -17    9.91    5.08
   0  -9 -17    3.17    2.50
   0  -9  17    9.89    5.52
   0   9 -18    2.60    3.94
   0  -9 -18   10.17    6.29
   0  -9 -18    0.97    2.29
   0  10   0   81.49   11.26
   0 -10   0  126.02   27.17
   0 -10   0   91.19    9.24
   0  10   1   42.22    5.19
   0  10  -1   41.48    9.63
   0 -10  -1   48.20   15.58
   0 -10   1   39.40   10.05
   0 -10  -1   45.15    5.35
   0 -10   1   34.11    7.46
   0  10   2  238.82   18.91
   0  10  -2  236.95   19.61
   0 -10  -2  249.56   43.28
   0 -10   2  220.77   37.09
   0 -10  -2  229.01   22.02
   0 -10   2  205.45   26.93
   0  10   3   22.83    6.85
   0  10  -3   20.58    6.73
   0 -10  -3   19.23   10.61
   0 -10   3   23.70    6.06
   0 -10   3   19.41    4.20
   0  10  -4    5.93    3.18
   0 -10  -4    2.42    2.86
   0 -10  -4    9.42    6.66
   0 -10   4    5.40    5.36
   0 -10   4    3.93    3.11
   0  10  -5   36.25    6.56
   0 -10  -5   37.24    8.22
   0 -10  -5   39.99    9.54
   0 -10   5   46.64   10.20
   0 -10   5   34.99    7.60
   0  10  -6  312.06   19.32
   0 -10  -6  282.02   11.04
   0 -10  -6  290.36   30.24
   0 -10   6  309.68   13.34
   0 -10   6  287.29   17.43
   0  10  -7    2.82    2.82
   0 -10  -7    7.32    4.50
   0 -10  -7    6.60    3.68
   0 -10   7    8.78    5.91
   0 -10   7    8.98    5.06
   0  10  -8    2.67    2.66
   0 -10  -8    4.91    3.69
   0 -10  -8    7.39    4.70
   0 -10   8    8.82    4.40
   0 -10   8    5.05    3.48
   0  10  -9   24.41    7.98
   0 -10  -9   11.09    5.73
   0 -10  -9   23.62    6.68
   0 -10   9   19.20    4.97
   0 -10   9   17.49    7.14
   0  10 -10   98.11   14.48
   0 -10 -10   96.50   15.88
   0 -10 -10  105.57   23.12
   0 -10  10   92.71   17.46
   0 -10  10   98.09   14.68
   0  10 -11   62.03   14.53
   0 -10 -11   99.27   17.45
   0 -10 -11   93.99   20.15
   0 -10  11   91.78   19.52
   0 -10  11  109.99   17.64
   0  10 -12   10.63    5.14
   0 -10 -12   24.29    7.22
   0 -10 -12    7.15    2.97
   0 -10  12    8.38    4.07
   0 -10  12    4.57    1.87
   0  10 -13    9.36    3.45
   0 -10 -13   10.28    4.76
   0 -10 -13    4.77    2.82
   0 -10  13   18.01    4.17
   0 -10  13    7.94    5.61
   0  10 -14    4.38    3.13
   0 -10 -14   10.89    4.71
   0 -10 -14    7.50    2.61
   0 -10  14    4.21    3.88
   0 -10  14    6.39    3.79
   0  10 -15    5.46    3.43
   0 -10 -15   10.66    4.40
   0 -10 -15   10.28    3.94
   0 -10  15    8.62    6.50
   0  10 -16    6.01    2.43
   0 -10 -16   -5.20    5.07
   0 -10 -16    5.46    3.09
   0 -10  16   10.81    5.19
   0  10 -17   12.12    5.44
   0 -10 -17   20.50    9.72
   0 -10 -17    6.36    4.41
   0 -10  17   14.93    6.50
   0  11   0   -1.26    2.81
   0 -11   0    9.25    7.28
   0 -11   0    3.87    3.15
   0  11   1   10.35    4.06
   0  11  -1    9.95    5.25
   0 -11  -1   34.57    7.85
   0 -11   1   16.34    6.89
   0 -11  -1   25.66    7.91
   0 -11   1   10.68    3.31
   0  11   2   49.37   10.67
   0  11  -2   43.55   11.20
   0 -11  -2   47.97   12.56
   0 -11   2   55.71   11.40
   0 -11  -2   45.93    9.34
   0 -11   2   57.72   12.70
   0  11   3  252.54   22.63
   0  11  -3  282.90   14.14
   0 -11  -3  281.86   26.84
   0 -11   3  218.81   38.78
   0 -11   3  255.41   16.33
   0  11  -4   38.53    7.87
   0 -11  -4   29.97    7.97
   0 -11  -4   36.51    6.97
   0 -11   4   50.45    9.88
   0 -11   4   40.74    9.19
   0  11  -5   15.84    6.28
   0 -11  -5   19.92    7.19
   0 -11  -5   22.88    6.07
   0 -11   5   14.82    6.09
   0 -11   5   14.56    5.90
   0  11  -6    8.46    2.90
   0 -11  -6    8.59    3.24
   0 -11  -6    5.27    4.32
   0 -11   6   19.47    8.28
   0 -11   6    8.99    3.65
   0  11  -7   46.17    7.25
   0 -11  -7   41.73    9.29
   0 -11  -7   53.11    8.91
   0 -11   7   39.82    7.66
   0 -11   7   44.42    7.43
   0  11  -8   41.36    9.76
   0 -11  -8   49.23   14.83
   0 -11  -8   57.39   13.72
   0 -11   8   56.01   14.00
   0 -11   8   50.18   13.36
   0  11  -9   35.14    8.92
   0 -11  -9   28.45    7.88
   0 -11  -9   45.30    8.98
   0 -11   9   34.23    8.59
   0 -11   9   45.18   11.52
   0  11 -10   18.25    5.72
   0 -11 -10   18.59    7.17
   0 -11 -10   16.54    4.49
   0 -11  10   19.37    8.64
   0 -11  10   26.65    5.19
   0  11 -11    3.21    2.12
   0 -11 -11   11.53    4.97
   0 -11 -11   30.05   12.06
   0 -11  11    6.90    4.66
   0 -11  11   14.27    4.45
   0  11 -12    3.89    2.50
   0 -11 -12    9.20    6.05
   0 -11 -12   11.12    5.32
   0 -11  12   10.93    6.21
   0 -11  12    7.68    4.51
   0  11 -13   16.24    6.80
   0 -11 -13    6.95    4.43
   0 -11 -13    3.00    3.81
   0 -11  13    6.89    3.11
   0 -11  13   13.93    5.47
   0  11 -14   20.29    7.58
   0 -11 -14   30.09   10.14
   0 -11 -14   24.67    4.91
   0 -11  14   16.66    4.45
   0 -11  14   46.74   20.22
   0  11 -15    7.09    4.69
   0 -11 -15   15.71    6.07
   0 -11 -15   24.82    6.55
   0 -11  15   17.73    7.49
   0 -11  15   54.36   12.63
   0  11 -16    6.92    3.70
   0 -11 -16    9.55    5.63
   0 -11 -16   10.15    4.44
   0 -11  16    9.04    4.16
   0 -11  16    5.42    4.75
   0  12   0  332.78   19.12
   0 -12   0  279.24   24.64
   0 -12   0  316.38   24.07
   0  12   1    5.25    2.84
   0  12  -1    4.73    3.78
   0 -12  -1    9.87    6.49
   0 -12   1    2.20    4.73
   0 -12  -1    4.29    2.53
   0  12   2    2.45    2.05
   0  12  -2    4.57    2.84
   0 -12  -2   10.31    5.77
   0 -12   2    0.68    4.20
   0 -12  -2    2.48    2.07
   0 -12   2    1.01    1.61
   0  12   3    3.63    2.51
   0  12  -3    7.97    3.62
   0 -12  -3   13.05    5.08
   0 -12   3    8.65    8.53
   0 -12   3    2.59    3.12
   0  12  -4    4.00    4.24
   0 -12  -4    3.74    2.67
   0 -12  -4   10.14    4.58
   0 -12   4    8.55    4.79
   0 -12   4    5.64    3.38
   0  12  -5    4.62    3.42
   0 -12  -5    5.00    2.50
   0 -12  -5    6.92    8.80
   0 -12   5   12.10    4.41
   0 -12   5    8.76    4.64
   0  12  -6    6.11    3.33
   0 -12  -6   10.87    4.29
   0 -12  -6   13.93    5.27
   0 -12   6    8.32    6.28
   0 -12   6   13.79    2.73
   0  12  -7   35.28    8.21
   0 -12  -7   44.37    9.53
   0 -12  -7   23.25    4.65
   0 -12   7   32.35    8.68
   0 -12   7   39.21   12.31
   0  12  -8   12.59    6.19
   0 -12  -8   18.58    6.57
   0 -12  -8   15.59    4.46
   0 -12   8   12.81    5.23
   0 -12   8   23.38    6.54
   0  12  -9    2.93    2.47
   0 -12  -9    5.32    3.92
   0 -12  -9   10.23    4.41
   0 -12   9    2.97    4.14
   0 -12   9    2.70    4.20
   0  12 -10    3.17    2.09
   0 -12 -10    8.61    3.18
   0 -12 -10   10.24    5.01
   0 -12  10   10.05    4.18
   0 -12  10    0.96    4.03
   0  12 -11    4.34    2.09
   0 -12 -11    5.84    4.54
   0 -12 -11   21.15    8.76
   0 -12  11    6.20    4.86
   0 -12  11    7.38    4.46
   0  12 -12  129.79   33.32
   0 -12 -12  104.06   32.87
   0 -12 -12  172.74   20.38
   0 -12  12  141.38   36.63
   0 -12  12  156.57   34.96
   0  12 -13    9.38    3.23
   0 -12 -13    9.34    4.43
   0 -12 -13    4.72    3.89
   0 -12  13   11.76    7.68
   0 -12  13    1.68    3.91
   0  12 -14    6.03    3.18
   0 -12 -14    3.63    3.98
   0 -12 -14    2.34    3.48
   0 -12  14   17.07    6.81
   0  12 -15    1.59    1.84
   0 -12 -15    1.95    5.69
   0 -12 -15    5.51    4.48
   0 -12  15    2.32    2.67
   0 -12  15    5.84    4.25
   0  12 -16   19.92    8.95
   0 -12 -16   34.04    8.02
   0 -12 -16   36.44    8.93
   0 -12  16    9.27    4.91
   0 -12  16   24.56   11.51
   0  13   0   -0.56    2.64
   0 -13   0   14.33    7.49
   0 -13   0    6.13    2.35
   0  13   1  116.61   22.86
   0  13  -1  121.90   13.04
   0 -13  -1  100.27   20.60
   0 -13   1   99.26   14.85
   0 -13  -1  108.88   15.32
   0 -13   1   96.76   17.34
   0  13   2   87.34   19.62
   0  13  -2   63.66   15.07
   0 -13  -2   83.91   19.32
   0 -13   2   86.28   15.78
   0 -13   2   72.55   14.00
   0  13   3   51.16   14.14
   0  13  -3   51.38   12.82
   0 -13  -3   51.45   10.57
   0 -13   3   39.51    6.46
   0 -13   3   58.93   14.40
   0  13  -4  114.86   12.35
   0 -13  -4   78.05   12.65
   0 -13  -4   85.67   18.54
   0 -13   4   84.08   29.04
   0 -13   4   97.35   17.32
   0  13  -5   15.67    3.92
   0 -13  -5   12.04    4.77
   0 -13  -5   18.29    5.41
   0 -13   5   16.19    5.94
   0 -13   5   17.93    4.77
   0  13  -6    2.19    2.64
   0 -13  -6    1.25    2.93
   0 -13  -6    6.34    3.27
   0 -13   6    8.25    4.24
   0 -13   6    3.89    1.91
   0  13  -7    4.69    2.71
   0 -13  -7    7.74    3.15
   0 -13  -7   11.01    5.91
   0 -13   7    3.68    4.35
   0 -13   7    4.91    2.30
   0  13  -8  118.65   21.32
   0 -13  -8  147.06   37.80
   0 -13  -8  142.02   30.11
   0 -13   8  132.78   30.52
   0 -13   8  134.03   21.68
   0  13  -9    6.67    4.02
   0 -13  -9   18.66    6.71
   0 -13  -9   13.00    7.07
   0 -13   9   14.43    6.23
   0 -13   9    7.03    3.71
   0  13 -10   14.23    5.28
   0 -13 -10    8.17    3.37
   0 -13 -10   13.87    6.97
   0 -13  10    9.62    5.15
   0 -13  10   13.22    6.43
   0  13 -11    9.14    4.24
   0 -13 -11   25.59    6.65
   0 -13 -11   13.19    4.66
   0 -13  11   14.46    6.43
   0 -13  11   23.19   10.78
   0  13 -12   -1.05    3.26
   0 -13 -12    7.26    4.77
   0 -13 -12    6.25    4.18
   0 -13  12    5.30    4.22
   0 -13  12    3.58    2.63
   0  13 -13   29.28    7.70
   0 -13 -13   34.00   10.94
   0 -13 -13   33.46   16.56
   0 -13  13   34.91   10.30
   0 -13  13   34.16   12.66
   0  13 -14    4.86    4.04
   0 -13 -14    8.32    3.25
   0 -13 -14    6.16    3.59
   0 -13  14    1.32    2.68
   0 -13  14   -1.07    4.36
   0  13 -15    6.59    4.34
   0 -13 -15   10.91    5.09
   0 -13 -15    4.96    2.38
   0 -13  15    6.78    3.93
   0 -13  15    6.89    5.34
   0  14   0    7.66    3.78
   0 -14   0   23.19    8.22
   0 -14   0   10.00    4.66
   0  14   1    4.95    2.12
   0  14  -1    5.08    3.01
   0 -14  -1   12.70    5.33
   0 -14   1   21.10    7.92
   0 -14  -1   14.67    4.09
   0 -14   1   10.52    3.05
   0  14   2   16.42    5.15
   0  14  -2   14.70    3.74
   0 -14  -2   28.67    7.03
   0 -14   2   36.00    9.65
   0 -14   2   20.03    5.83
   0  14  -3   24.60    6.41
   0 -14  -3   13.77    4.19
   0 -14  -3   21.20    8.66
   0 -14   3   29.65   11.68
   0 -14   3   27.07    7.09
   0  14  -4    0.00    2.12
   0 -14  -4    1.17    1.61
   0 -14  -4    9.21    7.35
   0 -14   4   -0.94    6.06
   0 -14   4    6.72    3.61
   0  14  -5   79.03   22.40
   0 -14  -5   60.08   11.61
   0 -14  -5   71.62   15.09
   0 -14   5   84.35   18.52
   0 -14   5   73.48   17.41
   0  14  -6   42.07   10.07
   0 -14  -6   35.08   12.18
   0 -14  -6   40.19   10.06
   0 -14   6   49.08   15.22
   0 -14   6   32.12   10.64
   0  14  -7   33.44   12.07
   0 -14  -7   45.56   14.82
   0 -14  -7   22.99    9.97
   0 -14   7   55.27   15.28
   0 -14   7   56.30   14.88
   0  14  -8    7.37    4.59
   0 -14  -8   10.96    4.34
   0 -14  -8    2.25    4.36
   0 -14   8    3.80    4.91
   0 -14   8    3.11    3.83
   0  14  -9   27.86   12.96
   0 -14  -9   21.83    7.90
   0 -14  -9   34.06   14.69
   0 -14   9   30.46   10.03
   0 -14   9   27.98    6.37
   0  14 -10   24.65   10.42
   0 -14 -10    9.58    4.59
   0 -14 -10    9.79    4.90
   0 -14  10    9.32    5.53
   0 -14  10    6.86    5.32
   0  14 -11    2.84    2.21
   0 -14 -11    7.15    5.69
   0 -14 -11    4.12    3.42
   0 -14  11    8.90    3.75
   0 -14  11    7.13    3.01
   0  14 -12    6.45    3.22
   0 -14 -12   11.66    6.56
   0 -14 -12   10.87    5.31
   0 -14  12    6.86    6.43
   0 -14  12   11.11    3.95
   0  14 -13   -1.54    3.64
   0 -14 -13    6.72    3.63
   0 -14 -13    5.65    6.70
   0 -14  13   13.98   11.03
   0 -14  13    7.64    3.59
   0  15   0    4.17    3.04
   0 -15   0    8.40    4.05
   0 -15   0    3.05    1.84
   0  15   1    5.89    3.63
   0  15  -1    1.88    4.39
   0 -15  -1   14.06    7.38
   0 -15   1    5.90    4.80
   0 -15  -1    7.65    2.87
   0 -15   1   11.25    3.35
   0  15   2   83.32   17.43
   0  15  -2   85.53   21.53
   0 -15  -2   90.32   27.25
   0 -15   2   93.39   20.17
   0 -15   2   83.88   14.13
   0  15  -3    3.95    3.42
   0 -15  -3    5.47    3.41
   0 -15  -3    7.84    5.48
   0 -15   3   19.65    6.26
   0 -15   3   16.98    7.79
   0  15  -4   47.58   13.71
   0 -15  -4   41.78   10.87
   0 -15  -4   33.29   10.67
   0 -15   4   56.53   18.22
   0 -15   4   39.07   15.83
   0  15  -5   77.01   19.15
   0 -15  -5   90.93   26.44
   0 -15  -5   99.78   24.84
   0 -15   5  118.03   26.35
   0 -15   5   83.99   16.32
   0  15  -6    5.65    3.45
   0 -15  -6    2.14    2.05
   0 -15  -6    6.76    3.81
   0 -15   6   12.09    4.48
   0 -15   6   -0.02    2.76
   0 -15  -7   52.36   16.93
   0 -15  -7   65.74   17.20
   0 -15   7   45.55   16.74
   0 -15   7   55.30   17.15
   0  15  -8   18.65    8.25
   0 -15  -8   24.29    8.56
   0 -15  -8   40.61    8.56
   0 -15   8   19.25    7.39
   0 -15   8   16.83    4.76
   0  15  -9    3.37    2.78
   0 -15  -9    8.12    4.63
   0 -15  -9    7.59    3.14
   0 -15   9   10.92    4.92
   0 -15   9    8.04    2.88
   0  15 -10   22.95    5.85
   0 -15 -10   28.88    9.34
   0 -15 -10   19.17    6.76
   0 -15  10   31.45    8.73
   0 -15  10   16.44   10.77
   0  15 -11   16.96    8.02
   0 -15 -11   14.91    6.53
   0 -15 -11   12.19    7.60
   0 -15  11    3.99    4.67
   0 -15  11   15.19    7.27
   0  15 -12    2.95    2.29
   0 -15 -12    7.66    2.89
   0 -15 -12    4.53    4.38
   0 -15  12    2.76    2.47
   0 -15  12    6.01    3.39
   0  16   0   -0.51    1.81
   0 -16   0    1.92    6.17
   0 -16   0    2.75    1.69
   0  16   1   28.26    7.06
   0  16  -1   32.39   11.08
   0 -16  -1   35.32    9.48
   0 -16   1   31.28   11.92
   0 -16   1   35.42   10.70
   0  16   2    1.34    1.71
   0  16  -2    2.22    2.24
   0 -16  -2   11.36    5.39
   0 -16   2    7.15    4.20
   0 -16   2    4.15    3.17
   0  16  -3   15.00    4.40
   0 -16  -3    2.80    2.37
   0 -16  -3   20.38    7.99
   0 -16   3    7.09    3.41
   0 -16   3   13.26    4.17
   0  16  -4    3.02    4.35
   0 -16  -4    6.74    3.49
   0 -16  -4    8.15    3.84
   0 -16   4    5.84    4.20
   0 -16   4    7.72    3.23
   0  16  -5    7.31    4.55
   0 -16  -5    6.78    3.53
   0 -16  -5   11.41    5.10
   0 -16   5    3.44    4.39
   0 -16   5    6.26    2.73
   0  16  -6   25.47    9.12
   0 -16  -6    7.47    4.90
   0 -16  -6   22.95    6.73
   0 -16   6   27.35   10.09
   0 -16   6   19.39    4.92
   0  16  -7    4.14    3.55
   0 -16  -7    5.16    3.46
   0 -16  -7   12.35   10.25
   0 -16   7    8.51    4.35
   0 -16   7    5.05    2.15
   0  16  -8    1.87    1.86
   0 -16  -8    1.89    2.76
   0 -16  -8    4.28    5.81
   0 -16   8   11.21    7.21
   0 -16   8    9.21    4.19
   0  16  -9   18.31    5.84
   0 -16  -9    6.46    3.18
   0 -16  -9   10.05    4.40
   0 -16   9   22.00    8.69
   0 -16   9   10.28    8.15
   0  16 -10    9.79    5.15
   0 -16 -10    7.88    5.66
   0 -16 -10   10.64    5.21
   0 -16  10   12.90    7.40
   0 -16  10    4.75    2.70
   0  17   0    2.39    2.20
   0 -17   0   11.84    5.22
   0  17   1   15.26    6.80
   0  17  -1    9.69    3.35
   0 -17  -1   21.11    9.86
   0 -17   1   11.33    5.88
   0  17  -2   39.33   14.74
   0 -17  -2   33.58   11.52
   0 -17  -2   36.17   14.45
   0 -17   2   26.37   10.38
   0  17  -3    7.71    2.74
   0 -17  -3    1.77    1.91
   0 -17  -3    7.06    6.93
   0 -17   3   -6.14    5.90
   0 -17   3    1.79    2.06
   0  17  -4    4.32    3.85
   0 -17  -4    5.60    2.43
   0 -17  -4   10.29    5.31
   0 -17   4   14.02    5.09
   0 -17   4    2.61    2.10
   0  17  -5   16.06    5.52
   0 -17  -5   17.99    5.89
   0 -17  -5    9.60    4.85
   0 -17   5   15.11    7.38
   0 -17   5   16.29    5.80
   0  17  -6    5.34    3.34
   0 -17  -6    6.40    4.06
   0 -17  -6   -2.16    5.07
   0 -17   6   -3.34    6.08
   0 -17   6    2.39    2.55
   0 -17  -7    6.14    4.32
   0 -17  -7   13.32    4.18
   0 -17   7   28.30    9.02
   0 -17   7    3.63    3.12
   0  17  -8    3.86    4.30
   0 -17  -8   -0.38    3.63
   0 -17  -8   17.07    6.64
   0 -17   8    9.65    4.45
   0 -17   8    2.29    2.43
   0  18   0    1.85    1.90
   0 -18   0   13.72    8.27
   0  18   1    5.27    2.84
   0  18  -1    2.65    2.95
   0 -18  -1    5.14    6.32
   0 -18   1    4.77    7.14
   0  18  -2    6.14    4.61
   0 -18  -2    4.60    3.08
   0 -18  -2    5.24    6.19
   0 -18   2   10.87    6.20
   0  18  -3   11.23    6.45
   0 -18  -3    5.51    3.21
   0 -18  -3   12.23    5.79
   0 -18   3    3.61    5.10
   0  18  -4    4.71    5.51
   0 -18  -4    9.80    6.34
   0 -18  -4   14.80    7.81
   0 -18   4   20.35    8.31
   0  18  -5   15.24    6.00
   0 -18  -5   20.81   10.14
   0 -18  -5   23.73    8.50
   0 -18   5   32.04    9.63
  -1   0  -2    7.06    1.67
   1   0   2    4.04    0.87
   1   0  -2    2.06    1.19
  -1   0   2    5.54    1.46
  -1   0  -2    2.49    1.00
   1   0   2    3.64    1.45
  -1   0  -3  156.87   13.81
   1   0   3  152.57   12.51
   1   0  -3  151.48   12.47
  -1   0   3  170.89   12.88
  -1   0  -3  162.15   13.44
   1   0  -3  162.40   13.07
   1   0   3  163.78   13.51
  -1   0   3  160.63   12.94
  -1   0  -4  356.31   10.57
   1   0   4  330.18    9.79
   1   0  -4  340.20   10.21
  -1   0   4  335.40    9.51
  -1   0  -4  346.55    9.64
   1   0  -4  345.74    8.27
   1   0   4  329.09    9.37
  -1   0   4  335.20    7.84
  -1   0  -5  107.94   15.68
   1   0   5   91.47   18.53
   1   0  -5   99.74   11.74
  -1   0   5   92.93   15.22
   1   0  -5   88.25    7.29
  -1   0  -5  105.18    9.79
   1   0   5  100.33    8.53
  -1   0   5  102.35    8.37
  -1   0  -6   25.68    5.22
   1   0  -6   30.82    9.59
   1   0  -6   30.69    6.55
  -1   0  -6   28.99    6.98
   1   0   6   20.13    5.52
  -1   0   6   28.54    4.92
  -1   0  -7   32.90    7.93
   1   0  -7   26.15    5.39
   1   0  -7   26.65    6.38
  -1   0  -7   29.17    4.83
  -1   0   7   23.12    5.68
  -1   0  -8   93.68   12.77
   1   0  -8   89.87   14.85
   1   0  -8   94.23   12.06
  -1   0  -8  105.56   11.95
  -1   0   8   73.51    7.58
  -1   0  -9  639.49   31.73
   1   0  -9  617.27   30.95
   1   0  -9  716.47   33.68
  -1   0  -9  674.73   32.36
  -1   0   9  655.31   30.80
  -1   0 -10   47.21   11.51
   1   0 -10   44.06    9.00
   1   0 -10   40.31    8.71
  -1   0 -10   40.49    7.94
  -1   0  10   22.47    6.62
  -1   0 -11  214.10   38.36
   1   0 -11  203.26   22.63
   1   0 -11  189.76   14.34
  -1   0 -11  182.75   19.37
  -1   0 -12   20.57    6.99
   1   0 -12   28.63   10.43
   1   0 -12   16.25    3.80
  -1   0 -12   22.40    5.86
  -1   0 -13   58.97   10.60
   1   0 -13   62.85   11.83
   1   0 -13   64.87   13.63
  -1   0 -13   71.00   16.33
  -1   0 -14   32.80    8.88
   1   0 -14   38.39    7.55
   1   0 -14   37.61    7.06
  -1   0 -14   42.09    6.22
  -1   0 -15   22.64    6.18
   1   0 -15   22.60    6.66
   1   0 -15   16.74    4.37
  -1   0 -15   21.66    5.82
  -1   0 -16    6.25    3.85
   1   0 -16    7.86    3.12
   1   0 -16    4.14    2.16
  -1   0 -16   10.64    3.85
  -1   0 -17    5.49    3.31
   1   0 -17    9.36    6.10
  -1   0 -17    1.40    1.60
  -1   0 -18    3.14    4.21
   1   0 -18    4.33    2.86
  -1   0 -18    3.69    1.41
  -1   0 -19   12.63    5.98
   1   0 -19    7.64    4.61
  -1   0 -20   32.08    9.48
   1   0 -20   23.96    6.97
  -1   1   0    0.29    0.44
   1  -1   0   -0.72    0.49
   1   1   0   -0.63    0.47
  -1  -1   0    0.64    0.46
   1  -1   2 1365.90   28.82
   1   1  -2 1354.75   28.33
  -1  -1   2 1437.71   30.01
   1   1   2 1385.43   28.89
  -1   1  -2 1397.13   29.30
   1  -1   2 1364.20   28.59
  -1  -1  -2 1440.00   30.31
   1  -1  -2 1373.55   28.48
  -1   1   2 1422.91   29.51
  -1  -1   2 1275.21   27.02
   1   1  -2 1318.77   27.87
  -1   1  -3    7.01    3.28
   1  -1   3    5.93    3.14
   1   1  -3    5.50    3.39
  -1  -1  -3    8.70    2.29
  -1  -1   3    6.25    1.33
   1   1   3    7.15    1.59
   1  -1  -3   10.38    3.15
  -1   1   3    2.63    1.69
  -1  -1   3    4.92    1.35
  -1   1  -3    4.90    1.96
   1  -1   3    4.15    1.48
  -1  -1  -3    7.22    3.20
   1   1   3    7.05    1.53
   1  -1  -3    6.98    2.07
  -1   1   3    4.46    2.08
  -1   1  -4   11.59    4.59
   1  -1   4    4.43    2.86
   1   1  -4   15.30    4.41
  -1  -1  -4    4.95    4.60
  -1  -1   4   14.21    3.47
   1   1   4   16.12    4.42
   1  -1  -4   18.03    3.51
  -1   1   4    9.66    2.16
  -1   1  -4   12.56    2.61
  -1  -1   4   14.10    3.54
   1  -1   4    8.44    1.59
  -1  -1  -4    7.55    2.77
   1   1   4   12.87    3.54
   1  -1  -4   17.24    3.70
  -1   1   4    7.92    1.90
   1   1  -5  490.74   15.48
  -1  -1  -5  501.49   13.23
  -1  -1   5  501.45   13.24
   1   1   5  493.70   12.82
   1  -1  -5  509.26   13.90
  -1   1  -5  508.12   12.54
  -1  -1   5  510.23   11.53
   1  -1   5  513.21   12.40
  -1  -1  -5  525.40   13.11
   1  -1  -5  512.10   11.77
   1   1   5  501.88   12.41
  -1   1   5  505.42   11.66
  -1   1  -6    5.54    1.82
   1   1  -6    6.24    3.25
  -1  -1  -6    0.62    2.29
   1  -1  -6    3.95    2.39
   1   1  -6    2.88    1.19
  -1   1  -6    7.19    2.25
   1  -1   6    1.44    1.48
  -1  -1   6    1.72    1.47
  -1  -1  -6    1.37    1.07
   1  -1  -6    4.46    2.00
   1   1   6    1.77    0.95
  -1   1   6    2.01    1.31
  -1   1  -7  232.05   16.58
   1   1  -7  276.79   19.07
  -1  -1  -7  262.21   18.26
   1  -1  -7  286.02   20.34
   1   1  -7  312.43   14.45
  -1   1  -7  301.19   14.53
  -1  -1  -7  281.85   18.90
   1  -1  -7  291.86   24.62
  -1  -1   7  294.02   24.85
  -1   1   7  278.91   18.83
  -1   1  -8   44.06    7.65
   1   1  -8   48.06    6.03
  -1  -1  -8   67.57   14.30
   1  -1  -8   54.70   10.29
   1   1  -8   57.58    6.16
  -1   1  -8   46.26   11.24
  -1  -1  -8   49.70   10.53
   1  -1  -8   54.87    8.15
  -1  -1   8   50.76    6.83
  -1   1   8   47.97    8.20
  -1   1  -9    2.93    2.60
   1   1  -9   -0.08    3.79
  -1  -1  -9    4.30    3.72
   1  -1  -9    3.14    3.51
   1   1  -9    3.13    0.92
  -1   1  -9    0.05    1.35
  -1  -1  -9    2.20    1.90
   1  -1  -9    3.45    1.90
  -1  -1   9    2.20    1.25
  -1   1   9    2.91    1.86
  -1   1 -10    5.73    3.91
   1   1 -10   10.58    4.44
  -1  -1 -10   16.98    6.50
   1  -1 -10   15.06    4.08
   1   1 -10   16.09    3.10
  -1   1 -10   13.13    3.24
   1  -1 -10   12.55    3.29
  -1  -1 -10   16.33    3.54
  -1  -1  10   12.40    3.32
  -1   1 -11  404.97   27.41
   1   1 -11  436.53   28.75
  -1  -1 -11  454.09   30.30
   1  -1 -11  465.38   31.04
   1   1 -11  505.15   31.93
  -1   1 -11  496.04   32.26
   1  -1 -11  492.14   30.61
  -1  -1 -11  469.70   29.86
  -1   1 -12  170.47   37.04
   1   1 -12  154.42   19.64
  -1  -1 -12  191.74   31.22
   1  -1 -12  177.41   20.58
   1   1 -12  183.37    6.50
  -1   1 -12  161.78   16.91
   1  -1 -12  178.25   14.32
  -1  -1 -12  187.70   26.43
  -1   1 -13  199.73   34.24
   1   1 -13  224.96   32.32
  -1  -1 -13  191.29   28.00
   1  -1 -13  190.80   38.60
   1   1 -13  200.81   13.75
  -1   1 -13  224.08   16.78
   1  -1 -13  189.09   21.10
  -1  -1 -13  184.73   19.35
  -1   1 -14   90.22   19.17
   1   1 -14   72.45   17.58
  -1  -1 -14   71.51   19.94
   1  -1 -14   73.53    8.47
  -1   1 -14   85.14   15.57
   1  -1 -14   73.51   14.72
  -1  -1 -14   75.77   13.48
  -1   1 -15   10.89    5.66
   1   1 -15    8.14    4.81
  -1  -1 -15   20.22    8.15
   1  -1 -15    8.79    5.31
  -1   1 -15    7.63    2.48
   1  -1 -15    9.31    3.06
  -1  -1 -15    4.75    3.14
  -1   1 -16    3.71    3.22
   1   1 -16   13.05    5.72
  -1  -1 -16   10.40    6.15
   1  -1 -16   11.27    4.28
  -1   1 -16    3.82    2.28
   1  -1 -16    2.58    1.57
  -1  -1 -16    6.01    3.36
  -1   1 -17   53.11   11.73
   1   1 -17   78.33   14.46
  -1  -1 -17   49.73   10.28
   1  -1 -17   53.58   11.39
  -1   1 -17   46.23   11.85
  -1  -1 -17   44.69   15.01
  -1   1 -18   11.55    5.72
   1   1 -18    5.38    3.29
  -1  -1 -18   10.62    6.85
   1  -1 -18    8.75    6.21
  -1  -1 -18    1.80    1.66
  -1   1 -19   41.35   13.91
   1   1 -19   36.99   11.69
  -1  -1 -19   26.57    8.22
   1  -1 -19   43.38   11.59
  -1   1 -20    4.48    3.43
   1   1 -20   38.15   15.39
  -1  -1 -20   -0.34    5.67
   1  -1 -20    3.72    5.06
   1   2   0  208.48    4.83
  -1   2   0  212.27    5.63
   1  -2   0  210.52    5.51
  -1  -2   0  213.13    4.84
  -1  -2   0  210.60    5.67
   1   2   0  201.95    5.45
  -1  -2   0  219.82    5.75
   1   2   0  207.90    5.40
   1  -2   0  209.41    4.65
  -1  -2  -1  778.31   16.41
  -1   2   1  760.93   16.80
   1  -2  -1  741.73   16.32
  -1   2  -1  728.37   16.10
   1  -2   1  715.96   15.78
   1   2  -1  720.01   15.26
  -1  -2   1  717.85   15.24
  -1  -2  -1  774.43   16.41
  -1  -2  -1  728.74   16.23
   1   2   1  683.89   15.24
   1   2  -1  738.26   16.22
   1  -2  -1  719.45   16.12
  -1   2   1  720.33   15.90
  -1  -2  -1  703.62   15.48
  -1   2   1  760.50   15.61
   1   2   1  693.86   15.22
  -1  -2   1  726.26   16.10
   1   2  -1  765.38   16.81
  -1   2  -2 1063.54   23.34
   1  -2   2  989.37   21.65
   1   2  -2 1041.99   22.28
  -1  -2   2 1090.88   23.26
   1   2   2 1102.58   23.46
  -1  -2  -2 1016.77   22.37
   1   2   2 1068.89   23.27
  -1   2   2 1039.04   22.65
  -1  -2   2 1103.99   24.13
   1   2  -2 1012.40   22.23
   1  -2   3  440.02   11.57
   1   2  -3  464.85   11.74
  -1  -2  -3  443.85   16.39
   1   2   3  503.29   14.56
  -1   2   3  447.80   11.86
  -1  -2  -3  465.85   12.16
   1   2   3  507.05   12.58
  -1  -2   3  505.92   12.65
  -1   2  -4  149.83   13.60
   1  -2   4  137.60   12.43
   1   2  -4  148.62   12.62
  -1  -2   4  139.36   16.12
  -1  -2  -4  142.74   12.40
   1   2   4  136.31   17.19
   1  -2  -4  155.94   14.40
  -1   2   4  125.34   18.79
   1  -2   4  133.14   11.03
  -1  -2  -4  133.14   11.96
   1   2   4  127.60   16.02
   1  -2  -4  136.99   11.40
  -1   2   4  145.36   12.04
  -1   2  -5  164.41   14.58
   1   2  -5  185.40    7.44
  -1  -2  -5  170.50    8.94
   1  -2  -5  152.67   13.22
   1   2   5  149.51   12.67
  -1   2  -5  151.24   12.57
  -1  -2   5  147.69   12.28
   1  -2   5  182.98    8.20
   1  -2  -5  162.18   13.86
   1   2   5  142.35   18.61
  -1   2   5  180.83   13.63
  -1   2  -6  318.34   16.77
   1   2  -6  313.88   15.72
  -1  -2  -6  307.29   15.41
   1  -2  -6  330.79   16.56
  -1   2  -6  314.60   14.97
  -1  -2   6  319.76   14.63
   1  -2   6  277.87   24.28
  -1  -2  -6  321.70   15.51
   1  -2  -6  333.59   16.57
  -1   2   6  281.12   18.48
  -1   2  -7  209.02   22.25
   1   2  -7  184.76   14.92
  -1  -2  -7  168.79   12.60
   1  -2  -7  213.12   24.98
  -1   2  -7  203.66   14.11
  -1  -2   7  217.50   14.41
  -1  -2  -7  169.56   12.69
   1  -2  -7  214.38   14.68
  -1   2   7  160.26   11.72
  -1   2  -8  134.71   11.71
   1   2  -8  132.77   16.95
  -1  -2  -8  134.86   20.65
   1  -2  -8  162.11   22.40
  -1   2  -8  140.83   15.50
  -1  -2   8  141.82   12.79
  -1  -2  -8  128.12    8.79
   1  -2  -8  149.27   10.54
  -1   2   8  121.64   11.11
  -1   2  -9  127.07   18.85
   1   2  -9  124.19   26.39
  -1  -2  -9  132.20   19.39
   1  -2  -9  144.91   25.83
  -1   2  -9  156.49   16.94
  -1  -2   9  111.74   10.84
  -1  -2  -9  135.51   21.75
   1  -2  -9  144.89    9.60
  -1   2 -10  243.91   17.30
   1   2 -10  273.60   19.02
  -1  -2 -10  313.41   37.08
   1  -2 -10  254.33   23.37
  -1   2 -10  315.33   21.06
  -1  -2 -10  327.47   32.41
   1  -2 -10  286.97   18.98
  -1   2 -11   93.91   19.49
   1   2 -11   88.92   13.08
  -1  -2 -11   92.94   18.57
   1  -2 -11   92.74   17.97
  -1   2 -11   93.62    8.08
  -1  -2 -11   77.35   16.27
   1  -2 -11   81.36    8.13
  -1   2 -12   57.65   11.30
   1   2 -12   48.93   13.27
  -1  -2 -12   60.32   17.47
   1  -2 -12   47.27    9.93
  -1   2 -12   54.52   14.39
  -1  -2 -12   52.38    9.84
   1  -2 -12   44.03   10.70
  -1   2 -13  103.48   15.06
   1   2 -13   97.67   16.44
  -1  -2 -13  106.27   17.58
   1  -2 -13  100.96   14.54
  -1   2 -13   90.04    9.45
   1  -2 -13   97.55   11.57
  -1  -2 -13  100.98   17.07
  -1   2 -14  101.77   18.82
   1   2 -14   95.91   16.72
  -1  -2 -14   80.94   14.57
   1  -2 -14   95.34   18.27
   1  -2 -14   93.68    6.31
  -1  -2 -14  109.39   17.01
  -1   2 -15   19.26    7.09
   1   2 -15    2.69    3.39
  -1  -2 -15   12.58    6.71
   1  -2 -15    7.93    4.81
   1  -2 -15    3.24    1.90
  -1  -2 -15    5.85    2.49
  -1   2 -16   22.45   10.13
   1   2 -16    8.25    4.62
  -1  -2 -16   11.76    4.71
   1  -2 -16    6.23    5.74
   1  -2 -16    4.66    2.66
  -1  -2 -16    6.26    2.96
  -1   2 -17   14.61    4.45
   1   2 -17   20.30    7.59
  -1  -2 -17    9.53    5.45
   1  -2 -17   12.83    4.66
  -1  -2 -17   14.15    3.24
  -1   2 -18   16.59    6.16
   1   2 -18   22.10    7.68
  -1  -2 -18   21.55    5.51
   1  -2 -18   21.50    7.90
  -1  -2 -18   19.75    5.83
  -1   2 -19   19.08    5.94
   1   2 -19   32.90    9.36
  -1  -2 -19   30.52    9.06
   1  -2 -19   28.04    6.57
  -1   2 -20   21.49    8.52
   1   2 -20   28.36    8.56
  -1  -2 -20   27.26    6.98
   1  -2 -20   11.33    4.89
   1   3   0 1051.87   22.50
  -1   3   0 1047.78   23.80
  -1  -3   0 1047.39   22.14
  -1  -3   0 1079.01   24.44
   1   3   0 1041.88   23.57
   1  -3   0 1049.03   23.55
  -1  -3   0 1040.14   22.72
   1   3   0 1062.33   23.10
   1  -3   0 1079.84   22.55
  -1   3   0 1050.87   22.01
   1   3   1 1840.50   38.71
  -1   3   1 1779.87   37.86
  -1  -3  -1 1753.17   36.41
  -1   3  -1 1735.99   37.02
   1   3  -1 1801.10   37.50
  -1  -3   1 1653.07   34.41
  -1  -3  -1 1704.77   36.84
  -1  -3   1 1784.30   38.49
   1   3  -1 1757.26   37.71
   1  -3  -1 1812.36   39.33
   1  -3  -1 1693.53   34.71
  -1  -3  -1 1786.94   38.04
   1   3   1 1669.73   35.29
  -1   3   1 1804.87   37.03
  -1  -3   1 1721.05   36.94
   1   3  -1 1762.36   37.36
   1  -3   1 1714.16   35.81
  -1  -3  -2  179.01   10.35
   1  -3  -2  199.14    6.20
  -1   3  -2  230.13   11.96
  -1  -3   2  206.29    6.09
  -1  -3  -2  183.46    8.89
   1   3   2  202.05    7.49
  -1   3   2  154.97   13.17
   1   3  -2  161.12   14.27
  -1  -3   2  223.58   12.89
   1   3  -2  168.91   15.65
   1  -3  -3  178.10   14.57
  -1   3  -3  152.02   13.08
   1  -3   3  183.60    6.43
   1   3  -3  199.13   10.06
  -1  -3   3  173.61    5.93
   1   3   3  176.55    5.57
  -1  -3  -3  206.57   15.81
   1   3   3  162.40   18.06
   1  -3  -3  180.54    6.84
  -1   3   3  184.13   12.59
  -1  -3   3  172.70    8.39
   1   3  -3  168.94    5.89
  -1   3  -4  352.60   10.48
   1   3  -4  365.70   10.49
  -1  -3   4  321.97    9.11
  -1  -3  -4  338.01    9.96
   1  -3  -4  358.05   10.89
   1   3   4  305.70    8.77
   1  -3   4  293.55   19.39
  -1  -3  -4  347.93   12.36
   1  -3  -4  334.54    9.51
  -1   3   4  331.02    9.43
  -1  -3   4  342.93   10.39
  -1   3  -5   25.46    5.99
   1   3  -5   19.28    4.22
  -1  -3  -5   15.91    3.82
   1  -3  -5   36.64    7.35
   1  -3   5   12.23    2.89
  -1  -3  -5   16.57    4.24
   1  -3  -5   25.24    5.20
  -1   3   5   17.84    3.78
  -1  -3   5   37.85    8.50
  -1   3  -6  556.63   26.36
   1   3  -6  563.50   26.39
  -1  -3  -6  573.66   26.81
   1  -3  -6  559.29   26.48
  -1  -3   6  531.40   24.18
  -1  -3  -6  603.60   27.91
   1  -3  -6  566.13   26.31
  -1   3   6  531.92   24.94
  -1   3  -7    5.98    4.08
   1   3  -7    2.81    4.54
  -1  -3  -7    7.09    4.42
   1  -3  -7    9.44    3.61
  -1  -3   7    0.55    1.26
  -1  -3  -7    2.38    3.05
   1  -3  -7    4.96    2.14
  -1   3   7    1.46    1.45
  -1   3  -8   81.19   11.54
   1   3  -8   78.18   16.65
  -1  -3  -8   85.88   14.72
   1  -3  -8   81.97   15.92
  -1  -3   8   71.70    6.55
  -1  -3  -8   85.25   13.52
   1  -3  -8   76.57   11.77
  -1   3  -9   13.42    3.22
   1   3  -9    7.21    4.23
  -1  -3  -9    9.63    4.07
   1  -3  -9    5.55    3.95
  -1  -3  -9   11.82    3.75
   1  -3  -9   12.05    3.09
  -1   3 -10  146.76   29.38
   1   3 -10  102.68   22.01
  -1  -3 -10  152.85   21.67
   1  -3 -10  112.35   17.57
  -1  -3 -10  137.71   12.57
   1  -3 -10  122.17   13.26
  -1   3 -11  326.65   45.93
   1   3 -11  304.94   22.80
  -1  -3 -11  302.18   27.97
   1  -3 -11  308.96   22.74
  -1  -3 -11  293.45   22.05
   1  -3 -11  331.16   21.34
  -1   3 -12  115.03   17.46
   1   3 -12  130.05   16.69
  -1  -3 -12  113.30   18.38
   1  -3 -12  113.80   16.58
  -1  -3 -12  110.18   22.88
   1  -3 -12  123.53   10.16
  -1   3 -13  116.41   21.62
   1   3 -13   91.07   15.36
  -1  -3 -13  109.03   15.33
   1  -3 -13  116.22   26.10
  -1  -3 -13  107.95   13.69
   1  -3 -13   90.41   12.06
  -1   3 -14   12.55    6.19
   1   3 -14    8.25    6.02
  -1  -3 -14   12.39    7.99
   1  -3 -14   11.48    5.43
  -1  -3 -14    3.35    2.78
   1  -3 -14    2.33    1.87
  -1   3 -15   33.36    9.46
   1   3 -15   17.56    5.85
  -1  -3 -15   20.73    5.29
   1  -3 -15   12.79    5.98
   1  -3 -15   18.81    4.33
  -1  -3 -15   18.28    4.90
  -1   3 -16   56.33   13.13
   1   3 -16   41.37   13.67
  -1  -3 -16   48.15    9.77
   1  -3 -16   64.43   12.71
   1  -3 -16   44.63   12.70
  -1  -3 -16   45.55   10.62
  -1   3 -17    6.49    5.27
   1   3 -17   22.46    5.62
  -1  -3 -17   13.74    4.63
   1  -3 -17   13.17    6.78
   1  -3 -17   11.82    3.95
  -1  -3 -17   14.39    4.01
  -1   3 -18   19.73    6.03
   1   3 -18   35.35    7.78
  -1  -3 -18   42.60    8.64
   1  -3 -18   38.17   13.28
  -1  -3 -18   27.55    8.50
  -1   3 -19   13.49    6.07
   1   3 -19    6.36    3.75
  -1  -3 -19    3.05    3.37
   1  -3 -19   -2.01    5.44
  -1   3 -20   19.16    7.90
   1   3 -20   19.93   10.13
  -1  -3 -20   19.60    7.55
   1  -3 -20   13.05    7.93
   1   4   0    9.27    2.25
  -1   4   0   14.84    3.28
   1  -4   0   14.26    3.30
  -1  -4   0   13.59    2.71
  -1  -4   0   10.05    3.45
   1   4   0    9.56    3.28
   1  -4   0   11.35    4.92
  -1  -4   0   14.48    3.48
   1  -4   0   11.66    2.84
   1   4   0   11.21    2.75
  -1   4   0   10.60    2.68
   1   4   1   78.98    9.98
  -1   4   1   77.21    7.23
  -1  -4  -1   70.88    6.84
   1  -4  -1   58.74    9.26
  -1   4  -1   80.10   14.95
   1   4  -1   89.76   10.26
   1  -4   1   73.29   13.25
  -1  -4   1   61.76    9.37
  -1  -4  -1   83.16   16.61
   1   4   1   65.18   12.19
  -1  -4   1   93.42   19.00
   1  -4  -1   76.73   16.03
   1   4  -1   72.69   10.75
  -1   4   1   77.74   12.23
   1  -4  -1   66.19    6.26
  -1  -4  -1   84.12   14.14
   1   4   1   67.76    6.97
  -1  -4   1   65.64    7.93
  -1   4   1   76.28    7.13
   1   4  -1   78.46    8.39
   1  -4   1   78.44    8.39
  -1   4   2  460.34   12.23
  -1  -4  -2  449.56   10.93
   1  -4  -2  415.34   11.57
  -1   4  -2  437.76   11.42
   1   4  -2  440.92   11.07
   1  -4   2  411.12   10.92
  -1  -4   2  412.13   11.85
  -1  -4  -2  445.03   12.33
   1   4   2  417.25   11.89
   1  -4  -2  426.58   14.18
  -1  -4   2  446.77   12.86
  -1   4   2  420.70   12.00
   1   4  -2  421.55   11.46
   1   4   2  438.67   11.03
  -1   4   2  446.57   10.16
  -1  -4   2  469.77   12.49
   1   4  -2  420.81   11.81
   1  -4   2  417.03   10.89
  -1  -4  -3  177.18   10.49
  -1   4  -3  157.00   13.65
   1   4  -3  173.97    5.87
  -1  -4   3  140.40   11.71
   1  -4  -3  158.15   15.79
  -1  -4  -3  186.91    7.68
   1  -4  -3  179.45   19.02
  -1   4   3  168.58   11.49
  -1  -4   3  146.34   12.81
   1   4   3  155.57   15.60
  -1  -4   3  164.33   14.35
  -1   4  -4  179.62   19.16
   1   4  -4  139.68   13.41
  -1  -4   4  156.73   15.59
  -1  -4  -4  134.83   13.30
   1  -4  -4  178.19    7.28
   1   4   4  128.72   21.19
  -1  -4  -4  150.78   15.15
   1  -4  -4  194.62   23.14
  -1   4   4  133.21   13.18
  -1  -4   4  166.06    6.71
  -1   4  -5  218.03   24.15
   1   4  -5  160.68   11.72
  -1  -4  -5  180.30   13.12
   1  -4  -5  210.86   15.74
  -1  -4  -5  166.75   12.65
   1  -4  -5  201.94   14.17
  -1  -4   5  179.93   12.93
  -1   4  -6  275.93   19.43
   1   4  -6  265.02   18.27
  -1  -4  -6  251.94   17.68
   1  -4  -6  297.05   26.53
  -1  -4  -6  275.06   19.09
   1  -4  -6  292.27   27.64
  -1  -4   6  300.37   21.47
  -1   4  -7  500.54   25.33
   1   4  -7  502.10   25.15
  -1  -4  -7  530.48   26.56
   1  -4  -7  557.70   30.65
  -1  -4  -7  561.43   31.89
   1  -4  -7  532.14   26.19
  -1  -4   7  526.70   26.59
  -1   4  -8  199.26   13.44
   1   4  -8  233.06   24.19
  -1  -4  -8  194.37   13.67
   1  -4  -8  234.61   18.98
  -1  -4  -8  221.48   15.82
   1  -4  -8  195.09   19.59
  -1   4  -9  130.75   19.80
   1   4  -9  119.77   20.80
  -1  -4  -9  152.06   29.70
   1  -4  -9  114.23   26.76
  -1  -4  -9  138.16   11.07
   1  -4  -9  115.64   10.52
  -1   4 -10   47.20   10.78
   1   4 -10   48.53   10.22
  -1  -4 -10   38.10   10.13
   1  -4 -10   50.03    9.75
  -1  -4 -10   46.66    9.73
   1  -4 -10   49.74    8.59
  -1   4 -11    5.89    4.32
   1   4 -11   13.74    5.61
  -1  -4 -11    7.70    6.21
   1  -4 -11   10.79    3.91
  -1  -4 -11    6.32    2.74
   1  -4 -11    6.41    3.16
  -1   4 -12  113.08   25.29
   1   4 -12  127.96   18.87
  -1  -4 -12   93.60   13.10
   1  -4 -12  108.15   15.53
  -1  -4 -12  104.89   18.12
   1  -4 -12  122.10   12.93
  -1   4 -13   56.31   10.62
   1   4 -13   57.22   10.70
  -1  -4 -13   69.26   13.94
   1  -4 -13   63.63   14.98
  -1  -4 -13   46.42   12.24
   1  -4 -13   39.49    8.56
  -1   4 -14    8.56    3.29
   1   4 -14    5.22    3.13
  -1  -4 -14    3.40    2.46
   1  -4 -14   17.54    7.71
  -1  -4 -14    4.09    2.52
   1  -4 -14    4.66    1.47
  -1   4 -15   43.09    9.04
   1   4 -15   41.28   12.99
  -1  -4 -15   45.08    8.21
   1  -4 -15   47.10   11.04
  -1  -4 -15   40.98   12.06
   1  -4 -15   39.24    8.92
  -1   4 -16   16.40    5.79
   1   4 -16   40.33   10.37
  -1  -4 -16   22.25    8.53
   1  -4 -16   16.81    5.98
  -1  -4 -16   23.41    4.92
  -1   4 -17   12.28    4.17
   1   4 -17   23.72    5.70
  -1  -4 -17   12.76    6.24
   1  -4 -17    9.71    4.37
   1  -4 -17   10.87    3.56
  -1  -4 -17   11.82    4.05
  -1   4 -18   12.31    7.38
   1   4 -18    7.48    3.00
  -1  -4 -18    9.71    4.95
   1  -4 -18    9.69    4.17
  -1  -4 -18    8.24    4.44
  -1   4 -19   24.40    7.26
   1   4 -19   11.23    6.20
  -1  -4 -19   27.55    7.43
   1  -4 -19   20.69    6.02
  -1  -4  19   19.13    5.51
  -1   4 -20    6.56    6.74
   1   4 -20    9.67    4.33
  -1  -4 -20    9.43    3.89
   1  -4 -20   11.31    4.69
  -1  -4  20   10.66    4.94
   1   5   0  297.90    8.06
  -1   5   0  309.08    9.30
  -1  -5   0  302.18    8.02
  -1  -5   0  320.14   10.27
   1  -5   0  295.55   10.07
  -1  -5   0  294.76    8.61
   1  -5   0  307.00    9.25
   1   5   0  291.59    8.18
  -1   5   0  303.26    7.76
   1   5   1   16.69    4.05
  -1   5   1   15.42    3.20
  -1  -5  -1   12.66    2.01
  -1   5  -1   17.27    4.17
   1   5  -1   14.33    3.29
  -1  -5   1   16.95    2.81
  -1  -5  -1   10.49    3.68
  -1  -5   1   15.09    4.05
   1  -5  -1   16.69    4.85
   1  -5   1   21.32    5.50
  -1  -5  -1   14.31    3.84
   1  -5  -1   15.24    3.66
   1   5   1   10.06    2.23
  -1  -5   1   15.47    4.52
  -1   5   1   15.01    2.66
   1  -5   1   16.64    3.66
   1   5  -1   11.87    3.12
  -1   5  -1   10.89    2.89
  -1   5   2  547.47   16.26
  -1  -5  -2  487.09   11.87
  -1   5  -2  526.14   13.80
   1   5  -2  526.15   12.91
  -1  -5   2  479.80   11.93
  -1  -5  -2  497.25   14.32
   1  -5  -2  533.10   15.47
  -1  -5   2  529.15   14.59
  -1  -5  -2  529.63   13.27
   1   5   2  463.25   22.54
  -1   5   2  505.53   11.60
  -1  -5   2  539.13   14.08
   1  -5   2  532.92   14.68
  -1   5   3  565.31   27.93
  -1  -5  -3  498.34   23.37
  -1   5  -3  497.62   23.21
   1   5  -3  525.52   24.00
  -1  -5   3  488.37   22.38
  -1  -5  -3  523.36   25.21
   1  -5  -3  531.83   25.30
  -1  -5   3  534.46   25.56
  -1   5   3  500.64   22.54
   1   5   3  481.42   30.07
  -1  -5   3  519.78   27.23
   1  -5   3  492.50   22.71
  -1   5  -4  300.86   18.51
   1   5  -4  288.65   24.78
  -1  -5  -4  297.09   25.63
   1  -5  -4  270.78   18.73
  -1  -5  -4  304.22   15.91
   1  -5  -4  270.99   19.02
  -1  -5   4  272.35   18.81
  -1  -5   4  279.91   19.21
   1  -5   4  309.28   17.08
  -1   5  -5   75.46   12.81
   1   5  -5   75.07   12.82
  -1  -5  -5   62.35   12.41
   1  -5  -5   71.61   15.43
  -1  -5  -5   72.60   14.96
   1  -5  -5   58.74   10.08
  -1  -5   5   64.25   11.62
  -1  -5   5   70.60   12.47
  -1   5  -6  167.56   12.41
   1   5  -6  206.29   25.87
  -1  -5  -6  207.04   17.54
   1  -5  -6  225.68   16.52
  -1  -5  -6  194.77   15.25
   1  -5  -6  194.60   15.47
  -1  -5   6  183.78   15.30
  -1   5  -7  252.38   25.59
   1   5  -7  239.90   17.95
  -1  -5  -7  211.49   20.01
   1  -5  -7  273.05   21.41
  -1  -5  -7  249.65   28.09
   1  -5  -7  264.16   14.65
  -1  -5   7  277.23   26.31
  -1   5  -8  292.41   23.31
   1   5  -8  262.36   22.82
  -1  -5  -8  216.97   16.13
   1  -5  -8  301.71   21.01
  -1  -5  -8  244.06   17.60
   1  -5  -8  278.17   18.24
  -1  -5   8  302.95   27.95
  -1   5  -9   52.09   13.21
   1   5  -9   69.69   14.52
  -1  -5  -9   66.72   11.68
   1  -5  -9   58.09   16.38
  -1  -5  -9   68.56   12.12
   1  -5  -9   53.04   10.02
  -1  -5   9   53.14   11.68
  -1   5 -10  210.47   28.41
   1   5 -10  177.73   32.08
  -1  -5 -10  176.50   27.87
   1  -5 -10  170.64   32.38
  -1  -5 -10  192.46   25.29
   1  -5 -10  194.37   20.50
  -1  -5  10  188.17   29.40
  -1   5 -11    8.99    5.04
   1   5 -11    9.38    4.13
  -1  -5 -11    9.39    5.49
   1  -5 -11    6.07    3.97
  -1  -5 -11    7.07    3.64
   1  -5 -11    6.98    3.70
  -1  -5  11   16.27    6.11
  -1   5 -12  246.43   39.42
   1   5 -12  301.21   24.31
  -1  -5 -12  248.47   17.40
   1  -5 -12  271.61   48.45
  -1  -5 -12  308.81   17.87
   1  -5 -12  270.16   15.59
  -1  -5  12  292.79   18.70
  -1   5 -13    8.90    5.19
   1   5 -13   10.59    4.14
  -1  -5 -13    9.11    2.74
   1  -5 -13   10.60    4.11
  -1  -5 -13    4.22    2.79
   1  -5 -13    4.00    2.64
  -1  -5  13    9.73    5.52
  -1   5 -14   50.84    9.25
   1   5 -14   45.02   11.17
  -1  -5 -14   43.85    9.86
   1  -5 -14   42.14    9.06
  -1  -5 -14   40.33    9.96
   1  -5 -14   40.29    7.50
  -1  -5  14   57.73   11.25
  -1   5 -15   29.23    7.68
   1   5 -15   26.87    7.35
  -1  -5 -15   21.59    6.89
   1  -5 -15   17.68    6.18
  -1  -5 -15   27.15    9.01
   1  -5 -15   19.14    4.25
  -1  -5  15   11.97    4.21
  -1   5 -16   69.14   15.82
   1   5 -16   69.21   17.90
  -1  -5 -16   66.45   15.00
   1  -5 -16   83.72   13.89
  -1  -5 -16   67.01   18.85
   1  -5 -16   59.18   18.84
  -1  -5  16   79.56   16.15
  -1   5 -17   13.13    4.38
   1   5 -17    7.88    3.93
  -1  -5 -17    5.58    5.28
   1  -5 -17    5.22    5.91
   1  -5 -17    6.19    3.72
  -1  -5 -17    3.97    3.03
  -1  -5  17   10.46    4.56
  -1   5 -18   20.87    8.64
   1   5 -18    8.30    3.53
  -1  -5 -18   19.43    6.84
   1  -5 -18   10.76    5.06
  -1  -5 -18   11.38    4.99
  -1  -5  18   24.37    9.55
  -1   5 -19    2.66    2.75
   1   5 -19   10.99    7.60
  -1  -5 -19   14.09    4.69
   1  -5 -19    4.87    3.84
  -1  -5  19   12.97    7.48
  -1   5 -20   10.93    6.05
   1   5 -20    2.16    3.75
  -1  -5 -20    3.59    2.43
   1  -5 -20    6.05    2.98
  -1  -5  20    7.66    2.91
   1   6   0    1.05    1.49
  -1   6   0    7.48    3.72
  -1  -6   0    0.69    1.37
  -1  -6   0    6.72    3.18
   1  -6   0    6.34    3.26
  -1  -6   0    2.32    1.38
   1  -6   0    2.40    2.16
  -1   6   0    1.01    1.45
   1   6   1   33.99    7.40
  -1   6   1   47.44    8.86
  -1   6  -1   43.75   10.78
   1   6  -1   56.66   11.28
  -1  -6  -1   40.61    6.54
  -1  -6   1   38.23    6.37
  -1  -6  -1   57.03   11.17
  -1  -6   1   48.68   11.39
   1  -6  -1   39.20   10.06
   1  -6   1   53.30    9.30
  -1  -6  -1   57.43   11.64
   1  -6  -1   42.49    8.18
  -1  -6   1   43.28    7.18
   1  -6   1   54.63    6.43
  -1   6   1   49.84    5.54
  -1   6  -1   28.16    6.86
   1   6   2   73.67    8.11
  -1   6   2   68.94    7.79
  -1  -6  -2   47.27    8.40
  -1   6  -2   74.45   14.34
   1   6  -2   60.99    9.51
  -1  -6   2   49.44    9.29
  -1  -6  -2   62.63   10.38
   1  -6  -2   66.70   14.25
  -1  -6   2   72.13   13.64
   1  -6   2   58.11   13.22
  -1  -6  -2   66.16    8.45
  -1   6   2   51.15    6.17
  -1  -6   2   68.51   15.69
   1  -6   2   58.31    7.58
  -1   6   3  331.70   16.51
  -1   6  -3  291.69   25.29
   1   6  -3  309.09   15.00
  -1  -6  -3  326.86   15.99
  -1  -6  -3  322.80   17.09
   1  -6  -3  288.96   31.01
  -1  -6   3  284.67   20.20
   1  -6   3  285.27   20.95
  -1   6   3  283.61   24.44
  -1  -6   3  290.09   26.85
   1  -6   3  319.92   15.66
  -1   6  -4  221.56   20.29
   1   6  -4  207.39   14.46
  -1  -6  -4  211.81   15.11
   1  -6  -4  202.51   17.47
  -1  -6  -4  227.00   28.01
   1  -6  -4  273.04   29.26
  -1  -6   4  214.21   16.91
  -1   6   4  188.10   12.63
  -1  -6   4  227.84   18.28
   1  -6   4  219.90   21.29
  -1   6  -5   19.57    5.11
   1   6  -5   21.35    5.85
  -1  -6  -5   16.11    3.98
   1  -6  -5   27.93    9.20
  -1  -6  -5   10.56    6.11
   1  -6  -5   20.46    5.23
  -1  -6   5   25.08    5.65
  -1  -6   5   23.38    4.64
   1  -6   5   15.30    3.04
  -1   6  -6  849.31   40.98
   1   6  -6  832.86   40.17
  -1  -6  -6  887.37   42.64
   1  -6  -6  945.96   45.82
  -1  -6  -6  880.48   42.96
   1  -6  -6  905.05   43.61
  -1  -6   6  849.79   40.89
  -1  -6   6  885.54   43.52
   1  -6   6  881.87   45.66
  -1   6  -7   90.40   20.23
   1   6  -7   92.45   19.05
  -1  -6  -7   89.35   19.45
   1  -6  -7  105.65   16.58
  -1  -6  -7   89.13   16.52
   1  -6  -7   98.63    9.51
  -1  -6   7   92.73   15.80
  -1  -6   7  105.69   19.90
  -1   6  -8   26.17    6.61
   1   6  -8   33.56    7.23
  -1  -6  -8   26.59    8.00
   1  -6  -8   29.76    7.44
  -1  -6  -8   17.83    5.63
   1  -6  -8   27.55    7.36
  -1  -6   8   23.69    7.70
  -1   6  -9  318.15   22.71
   1   6  -9  256.98   18.26
  -1  -6  -9  291.26   35.57
   1  -6  -9  302.19   36.19
  -1  -6  -9  258.32   19.00
   1  -6  -9  301.87   31.23
  -1  -6   9  336.13   23.64
  -1   6 -10   96.93   17.30
   1   6 -10   88.00   16.03
  -1  -6 -10   76.62   16.46
   1  -6 -10   84.36   14.60
  -1  -6 -10   77.15   14.67
   1  -6 -10  102.84   18.78
  -1  -6  10  100.59   31.77
  -1   6 -11   71.96   17.80
   1   6 -11   74.24   19.94
  -1  -6 -11   81.26   20.82
   1  -6 -11   87.81   14.34
  -1  -6 -11   82.25   14.10
   1  -6 -11   80.61   12.87
  -1  -6  11  119.51   17.81
  -1   6 -12   38.95   10.44
   1   6 -12   19.00    4.44
  -1  -6 -12   27.48    6.13
   1  -6 -12   33.44   11.70
  -1  -6 -12   25.75    7.64
   1  -6 -12   25.75    9.99
  -1  -6  12   11.99    4.33
  -1   6 -13   11.82    4.45
   1   6 -13   14.07    4.24
  -1  -6 -13   17.47    5.79
   1  -6 -13   21.47    5.21
  -1  -6 -13   16.42    4.23
   1  -6 -13   19.89    5.72
  -1  -6  13   16.38    5.26
  -1   6 -14   35.81   11.51
   1   6 -14   32.26    8.14
  -1  -6 -14   22.46    6.89
   1  -6 -14   35.39   10.77
  -1  -6 -14   23.12    6.84
   1  -6 -14   32.24    5.49
  -1  -6  14   38.05   10.59
  -1   6 -15   44.84    6.80
   1   6 -15   42.75    9.12
  -1  -6 -15   48.39   12.35
   1  -6 -15   28.32    7.41
  -1  -6 -15   30.91   10.60
   1  -6 -15   39.37   11.34
  -1  -6  15   38.37    6.91
  -1   6 -16   23.52    5.62
   1   6 -16   26.02    7.56
  -1  -6 -16   16.46    7.94
   1  -6 -16   39.42    8.60
  -1  -6 -16   30.44    6.01
   1  -6 -16   13.81    4.93
  -1  -6  16   36.27   13.57
  -1   6 -17    6.95    2.63
   1   6 -17    5.54    2.60
  -1  -6 -17    5.83    3.26
   1  -6 -17    5.89    4.14
  -1  -6 -17   12.56    4.44
   1  -6 -17    9.98    3.77
  -1  -6  17   12.74    5.08
  -1   6 -18   10.50    6.21
   1   6 -18   30.74    6.44
  -1  -6 -18   21.33    5.72
   1  -6 -18   39.45   10.66
  -1  -6 -18   27.15    8.38
  -1  -6  18   45.22   17.20
  -1   6 -19   15.41    8.50
   1   6 -19    7.47    3.49
  -1  -6 -19    3.09    2.59
   1  -6 -19    9.89    4.93
  -1  -6  19    6.05    5.41
   1   7   0  363.73   17.70
  -1   7   0  376.80   18.29
  -1  -7   0  363.89   18.72
   1  -7   0  363.34   18.65
  -1  -7   0  392.94   18.82
   1  -7   0  388.19   18.49
  -1   7   0  354.34   16.59
   1   7   1  126.20   12.29
  -1   7   1  138.03   11.16
   1   7  -1  134.07   11.28
  -1   7  -1  113.05    9.24
  -1  -7  -1  148.47   17.38
  -1  -7   1  141.89   25.34
   1  -7  -1  143.64   22.95
   1  -7   1  154.65   20.01
  -1  -7  -1  138.91   17.96
   1  -7  -1  140.63   11.71
  -1  -7   1  133.97   12.01
   1  -7   1  133.85   11.92
  -1   7   1  133.75   10.34
  -1   7  -1  109.20    9.88
   1   7   2  373.80   18.85
  -1   7   2  422.69   24.73
  -1   7  -2  387.11   29.32
   1   7  -2  377.08   18.15
  -1  -7  -2  372.02   25.44
   1  -7  -2  334.92   18.20
  -1  -7   2  365.74   19.21
   1  -7   2  354.91   21.89
   1  -7  -2  359.31   16.68
  -1  -7  -2  408.68   33.11
  -1  -7   2  346.22   23.29
  -1   7   2  369.86   17.87
   1  -7   2  410.52   19.43
  -1   7   3   46.60    8.63
  -1   7  -3   47.96    7.65
   1   7  -3   38.60   10.93
  -1  -7  -3   39.53    7.82
  -1  -7  -3   41.83   11.19
   1  -7  -3   55.06   11.18
  -1  -7   3   42.21   11.15
   1  -7   3   39.56   10.50
  -1   7   3   29.31    5.82
  -1  -7   3   45.45    8.06
   1  -7   3   38.21    9.80
  -1   7  -4  302.32   25.55
   1   7  -4  263.55   14.16
  -1  -7  -4  280.36   15.07
   1  -7  -4  276.89   16.94
  -1  -7  -4  256.93   16.73
   1  -7  -4  315.40   36.80
  -1  -7   4  268.07   15.72
   1  -7   4  261.85   15.30
  -1   7   4  256.47   12.79
  -1  -7   4  313.94   26.71
   1  -7   4  255.87   16.89
  -1   7  -5  204.62   25.25
   1   7  -5  210.60   28.10
  -1  -7  -5  188.72   12.78
   1  -7  -5  198.71   28.90
  -1  -7  -5  203.30   20.50
   1  -7  -5  191.60   22.28
  -1  -7   5  189.78   26.25
  -1  -7   5  187.44   16.80
   1  -7   5  190.06   16.54
  -1   7  -6  154.29   22.37
   1   7  -6  131.87   11.87
  -1  -7  -6  140.66   25.14
   1  -7  -6  159.12   30.86
  -1  -7  -6  155.09   24.20
   1  -7  -6  142.03   17.90
  -1  -7   6  135.47   17.29
  -1  -7   6  154.64    8.99
   1  -7   6  134.35   19.08
  -1   7  -7  138.82   17.64
   1   7  -7  132.95   24.86
  -1  -7  -7  156.87   21.22
   1  -7  -7  151.86   23.84
  -1  -7  -7  154.41   25.05
   1  -7  -7  173.37   20.01
  -1  -7   7  147.52   26.24
  -1  -7   7  141.82   20.43
   1  -7   7  136.51   23.40
  -1   7  -8  136.25   21.09
   1   7  -8  171.34   25.17
  -1  -7  -8  152.91   27.21
   1  -7  -8  141.09   28.62
  -1  -7  -8  143.22   12.72
   1  -7  -8  157.94   18.36
  -1  -7   8  124.90   24.21
  -1  -7   8  173.26   24.01
   1  -7   8  180.76   18.99
  -1   7  -9   45.52    9.26
   1   7  -9   35.99    9.99
   1  -7  -9   43.89   10.45
  -1  -7  -9   52.01    6.80
   1  -7  -9   46.87   12.88
  -1  -7   9   38.91    8.57
  -1  -7   9   53.85   10.59
   1  -7   9   63.32   11.76
  -1   7 -10   99.19   21.08
   1   7 -10  109.27   14.02
   1  -7 -10  106.12   13.91
  -1  -7 -10   93.07   13.01
   1  -7 -10   89.06   15.33
  -1  -7  10  100.86   31.77
   1  -7  10  117.18   24.64
  -1   7 -11   15.19    6.72
   1   7 -11   10.77    4.27
   1  -7 -11    9.15    6.42
  -1  -7 -11   19.56    7.61
   1  -7 -11   12.74    5.24
  -1  -7  11   14.09    6.21
   1  -7  11   16.97    5.72
  -1   7 -12  105.55   16.03
   1   7 -12   85.68   18.61
   1  -7 -12   97.80   21.90
  -1  -7 -12   84.47   21.57
   1  -7 -12  112.00   15.25
  -1  -7  12   78.75    9.64
  -1  -7  12  114.43   15.00
  -1   7 -13    3.46    4.18
  -1  -7 -13   10.90    5.65
   1  -7 -13   15.67    6.47
  -1  -7 -13    5.76    3.51
   1  -7 -13    7.66    4.49
  -1  -7  13    8.74    5.05
  -1  -7  13    8.43    5.95
  -1   7 -14   66.80   16.63
   1   7 -14   74.81   19.11
  -1  -7 -14   75.46   17.46
   1  -7 -14   71.21   17.05
  -1  -7 -14   66.74   14.72
   1  -7 -14   70.89   20.36
  -1  -7  14   63.79   16.33
  -1  -7  14   90.61   20.59
  -1   7 -15   22.92    9.83
   1   7 -15   21.78    5.09
  -1  -7 -15   12.10    7.20
   1  -7 -15   33.86   12.86
  -1  -7 -15   14.70    3.81
   1  -7 -15   15.10    6.26
  -1  -7  15   19.93    5.29
  -1  -7  15   25.64    9.07
   1  -7  15   25.78    8.24
  -1   7 -16   26.94    7.67
   1   7 -16   32.25    8.13
  -1  -7 -16   26.39   15.35
   1  -7 -16   29.30    7.81
  -1  -7 -16   27.93   12.89
   1  -7 -16   27.44    9.58
  -1  -7  16   18.46    7.08
  -1  -7  16   35.77    8.03
   1  -7  16   39.58    8.04
  -1   7 -17   17.22    6.21
   1   7 -17   15.45    6.43
  -1  -7 -17   12.43    8.22
   1  -7 -17   13.60    4.44
  -1  -7 -17   11.44    7.65
   1  -7 -17   12.30    3.77
  -1  -7  17   25.31    7.75
   1  -7  17   19.56    8.15
  -1   7 -18    4.82    3.59
   1   7 -18    4.18    3.23
  -1  -7 -18   13.45    8.29
   1  -7 -18   25.98    7.54
  -1  -7 -18    6.49    4.27
  -1  -7  18   12.82    4.65
   1  -7  18   15.04    6.71
  -1   7 -19   10.98    7.40
   1   7 -19    3.00    2.64
   1  -7 -19   10.08    7.77
  -1  -7  19    5.62    3.60
   1  -7  19    9.50    5.32
   1   8   0   76.48    9.99
  -1   8   0   69.60   10.74
  -1  -8   0   76.85   15.14
   1  -8   0   71.84   15.79
  -1  -8   0   76.08   11.25
   1  -8   0   70.44    7.34
  -1   8   0   46.31   11.51
   1   8   1  292.24   16.23
  -1   8   1  258.89   18.16
   1   8  -1  300.14   26.50
  -1   8  -1  321.29   23.06
  -1  -8  -1  295.08   29.46
  -1  -8   1  266.16   17.24
   1  -8  -1  289.62   22.71
   1  -8   1  278.52   16.24
  -1  -8  -1  302.87   19.43
   1  -8  -1  301.56   15.18
  -1  -8   1  295.99   22.31
   1  -8   1  286.28   16.26
  -1   8   1  256.37   20.83
   1   8   2   94.59    8.35
  -1   8   2   77.80   16.03
  -1   8  -2   82.67   12.32
   1   8  -2   93.75    8.70
  -1  -8  -2   89.76   15.60
   1  -8  -2   93.23   18.43
  -1  -8   2   94.77   21.51
   1  -8   2   89.47   19.09
   1  -8  -2   74.56    8.61
  -1  -8  -2   89.56    8.33
  -1  -8   2   90.95   14.83
   1  -8   2   94.06   13.47
  -1   8   2   73.05    7.83
  -1   8   3  431.19   31.35
  -1   8  -3  383.72   24.40
   1   8  -3  440.98   23.46
  -1  -8  -3  392.89   20.25
  -1  -8  -3  407.74   22.28
   1  -8  -3  396.71   21.62
  -1  -8   3  449.68   24.02
   1  -8   3  399.18   21.45
  -1   8   3  408.77   20.35
  -1  -8   3  435.52   25.05
   1  -8   3  451.41   22.71
  -1   8  -4  280.94   18.55
   1   8  -4  288.67   28.14
  -1  -8  -4  273.52   18.00
   1  -8  -4  279.94   19.21
  -1  -8  -4  273.62   24.64
   1  -8  -4  332.21   36.19
  -1  -8   4  281.79   20.02
   1  -8   4  289.38   20.29
  -1   8   4  253.89   15.77
  -1  -8   4  282.57   26.52
   1  -8   4  280.88   20.97
  -1   8  -5  179.00   18.60
   1   8  -5  172.64   24.75
  -1  -8  -5  156.86    7.72
   1  -8  -5  164.64   32.38
  -1  -8  -5  161.20   11.92
   1  -8  -5  167.95   14.82
  -1  -8   5  158.77   12.38
   1  -8   5  172.35   24.90
  -1  -8   5  172.85   14.57
   1  -8   5  164.43    8.23
  -1   8  -6   21.66    4.22
   1   8  -6   26.70    7.00
  -1  -8  -6   23.42    5.45
   1  -8  -6   24.66    6.17
  -1  -8  -6   23.85    6.01
   1  -8  -6   16.85    7.34
  -1  -8   6   23.30    7.80
   1  -8   6   34.07    7.90
  -1  -8   6   17.66    4.30
   1  -8   6   31.86    9.05
  -1   8  -7   92.59   20.18
   1   8  -7  114.29   10.01
  -1  -8  -7   99.18   20.46
   1  -8  -7  105.51   19.90
  -1  -8  -7  101.17   20.56
   1  -8  -7  100.81   18.18
  -1  -8   7   70.82    9.72
  -1  -8   7   96.93   17.44
   1  -8   7  107.08   15.08
  -1   8  -8  137.73   25.15
   1   8  -8  105.62   21.93
  -1  -8  -8   93.45   20.52
   1  -8  -8  106.80   17.76
  -1  -8  -8  119.38   18.04
   1  -8  -8  127.75   23.81
  -1  -8   8  117.92   25.65
  -1  -8   8  119.08   21.66
   1  -8   8  122.78   18.25
  -1   8  -9  225.82   23.57
   1   8  -9  203.30   17.81
  -1  -8  -9  204.34   35.36
   1  -8  -9  228.97   36.70
  -1  -8  -9  216.84   20.71
   1  -8  -9  227.76   16.24
  -1  -8   9  215.56   29.52
  -1  -8   9  248.09   23.40
   1  -8   9  224.55   22.99
  -1   8 -10    4.97    4.54
   1   8 -10    8.45    5.29
  -1  -8 -10    8.12    5.20
   1  -8 -10   13.05    5.84
  -1  -8 -10    5.10    3.19
   1  -8 -10    2.38    4.36
  -1  -8  10   10.96    5.32
  -1  -8  10    8.28    4.88
   1  -8  10   14.31    8.42
  -1   8 -11   23.62    6.19
   1   8 -11   23.78    5.29
  -1  -8 -11   18.51    6.98
   1  -8 -11   18.76    4.91
  -1  -8 -11   23.35    4.17
   1  -8 -11   20.55    6.20
  -1  -8  11   18.81    5.04
  -1  -8  11   25.16    6.69
   1  -8  11   34.79    8.00
  -1   8 -12   14.75    7.91
   1   8 -12   14.71    4.38
  -1  -8 -12   15.25    6.85
   1  -8 -12   14.35    5.21
  -1  -8 -12   16.33    6.61
   1  -8 -12   12.04    3.85
  -1  -8  12   10.04    5.54
   1  -8  12   25.99    8.82
  -1   8 -13   26.22    7.37
   1   8 -13   36.99    7.29
  -1  -8 -13   33.80    9.12
   1  -8 -13   44.30   11.64
  -1  -8 -13   38.53    7.92
   1  -8 -13   29.71    7.71
  -1  -8  13   44.48   13.59
   1  -8  13   48.59   12.59
  -1   8 -14   11.19    5.67
   1   8 -14    6.81    4.28
  -1  -8 -14   11.02    6.49
   1  -8 -14   10.99    4.75
  -1  -8 -14    8.38    4.21
   1  -8 -14    4.52    4.50
  -1  -8  14    5.54    2.31
  -1  -8  14   24.29   12.90
   1  -8  14    5.38    3.68
  -1   8 -15   61.54   19.06
   1   8 -15   60.70   11.99
  -1  -8 -15   51.37   13.19
   1  -8 -15   50.39   10.48
  -1  -8 -15   55.31   16.09
   1  -8 -15   44.57   11.43
  -1  -8  15   56.98   12.14
  -1  -8  15   60.59   11.77
   1  -8  15   88.63   21.40
  -1   8 -16   39.08    9.21
   1   8 -16   29.73    8.27
  -1  -8 -16   31.40    8.24
   1  -8 -16   41.36   13.67
  -1  -8 -16   17.02    8.11
   1  -8 -16   30.51   10.12
  -1  -8  16   22.09    4.98
  -1  -8  16   30.09    8.16
   1  -8  16   25.47   11.86
  -1   8 -17   12.38    4.92
   1   8 -17    8.43    4.78
  -1  -8 -17   11.32    7.63
   1  -8 -17   11.76    3.90
  -1  -8 -17    4.65    2.66
   1  -8 -17   15.71    5.52
  -1  -8  17    8.55    6.25
   1  -8  17   22.26    7.18
  -1   8 -18   14.63    3.47
   1   8 -18   21.29    5.88
  -1  -8 -18    6.99    3.09
   1  -8 -18   24.77   10.32
  -1  -8 -18   17.56    6.43
  -1  -8  18    9.59    4.06
   1  -8  18    7.78    4.96
   1   9   0    2.04    1.15
  -1  -9   0   16.95    8.30
   1  -9   0    6.40    4.66
  -1  -9   0    2.40    1.65
   1  -9   0    2.09    1.21
   1   9   1  420.66   32.11
  -1   9   1  392.14   25.71
   1   9  -1  446.88   35.35
  -1   9  -1  449.79   40.70
  -1  -9  -1  412.60   30.74
  -1  -9   1  456.14   30.52
   1  -9  -1  377.16   25.58
   1  -9   1  382.10   25.56
   1  -9  -1  450.37   27.38
  -1  -9  -1  449.81   27.79
  -1  -9   1  379.32   23.88
   1  -9   1  413.98   27.47
   1   9   2   22.21    4.94
  -1   9   2   20.43    4.67
  -1   9  -2   17.37    3.76
   1   9  -2   19.76    4.52
  -1  -9  -2   19.22    5.44
   1  -9  -2   25.29    5.57
  -1  -9   2   10.88    5.21
   1  -9   2   23.10    6.55
   1  -9  -2   18.45    4.16
  -1  -9  -2   21.61    4.29
  -1  -9   2   12.63    3.73
   1  -9   2   14.62    3.83
  -1   9   3    7.90    3.41
  -1   9  -3    8.96    3.14
   1   9  -3   10.62    3.67
  -1  -9  -3   13.97    6.03
  -1  -9  -3   10.67    4.12
   1  -9  -3   31.52    7.12
  -1  -9   3   10.25    5.67
   1  -9   3   16.31    5.58
  -1  -9   3   13.47    3.25
   1  -9   3    6.31    1.99
  -1   9  -4  214.58   17.73
   1   9  -4  204.89   16.90
  -1  -9  -4  192.29   18.51
   1  -9  -4  197.13   24.34
  -1  -9  -4  204.89   28.80
   1  -9  -4  196.53   17.69
  -1  -9   4  188.89   26.68
   1  -9   4  189.46   21.89
  -1  -9   4  205.33   22.73
   1  -9   4  199.97   17.90
  -1   9  -5  130.44   22.42
   1   9  -5  133.11   12.13
  -1  -9  -5  111.85   17.97
   1  -9  -5  126.75   23.60
  -1  -9  -5  129.99   22.41
   1  -9  -5  121.07   32.62
  -1  -9   5  132.06   25.24
   1  -9   5  110.55   18.87
  -1  -9   5  122.59   27.24
   1  -9   5  118.77   30.89
  -1   9  -6   81.79   10.63
   1   9  -6   74.64   15.96
  -1  -9  -6   81.85   16.91
   1  -9  -6   66.28    9.84
  -1  -9  -6   63.57   13.65
   1  -9  -6   87.04   20.31
  -1  -9   6   84.53   14.36
   1  -9   6   78.63   12.90
  -1  -9   6   81.26   12.02
   1  -9   6   76.16   17.90
  -1   9  -7   37.79    7.78
   1   9  -7   42.70   10.04
  -1  -9  -7   31.10   11.82
   1  -9  -7   27.45    7.36
  -1  -9  -7   54.68   10.48
   1  -9  -7   39.18    7.55
  -1  -9   7   50.29   11.45
   1  -9   7   53.11    9.44
  -1  -9   7   43.55   11.60
   1  -9   7   45.12    7.77
  -1   9  -8    6.87    3.48
   1   9  -8    8.11    5.69
  -1  -9  -8    9.11    3.98
   1  -9  -8   11.76    5.87
  -1  -9  -8    1.85    3.14
   1  -9  -8   10.67    8.23
  -1  -9   8   14.52    5.73
   1  -9   8    8.37    4.04
  -1  -9   8   20.18    9.24
   1  -9   8   14.72    6.31
  -1   9  -9   22.32    6.65
   1   9  -9   16.68    6.62
  -1  -9  -9   19.10    8.09
   1  -9  -9   33.75    5.87
  -1  -9  -9   20.96    6.90
   1  -9  -9   24.75   10.36
  -1  -9   9   35.37    7.06
   1  -9   9   22.44    6.16
  -1  -9   9   36.34    9.13
   1  -9   9   24.41    6.29
  -1   9 -10   87.72   12.78
   1   9 -10   94.41   17.36
  -1  -9 -10   87.70   19.14
   1  -9 -10   78.51   14.57
  -1  -9 -10   85.11   20.72
   1  -9 -10   69.00   13.37
  -1  -9  10   82.28   18.00
  -1  -9  10   89.60   20.78
   1  -9  10   91.64   17.71
  -1   9 -11   89.32   18.84
   1   9 -11   73.64   18.40
  -1  -9 -11   78.54   17.69
   1  -9 -11   79.87   17.31
  -1  -9 -11   72.24   12.30
   1  -9 -11   76.40   16.16
  -1  -9  11   78.64   19.71
  -1  -9  11  110.30   14.60
   1  -9  11   83.63   20.84
  -1   9 -12    2.23    4.73
   1   9 -12   11.08    5.45
  -1  -9 -12   24.50    6.17
   1  -9 -12    6.85    5.27
  -1  -9 -12   13.48    5.13
   1  -9 -12    6.57    3.35
  -1  -9  12    7.21    4.50
  -1  -9  12   12.49    5.67
   1  -9  12   22.36    7.52
  -1   9 -13   68.54   11.94
   1   9 -13   57.20   12.05
  -1  -9 -13   63.83   14.33
   1  -9 -13   56.15   11.77
  -1  -9 -13   59.02   16.55
   1  -9 -13   52.33   11.21
  -1  -9  13   79.24   21.72
   1  -9  13   84.00   18.23
  -1   9 -14    9.05    5.23
   1   9 -14    6.94    4.09
  -1  -9 -14   -0.77    5.04
   1  -9 -14    7.31    4.62
  -1  -9 -14   10.61    4.91
   1  -9 -14    9.30    4.80
  -1  -9  14   12.23    7.57
   1  -9  14    9.30    7.37
  -1   9 -15   24.01    8.95
   1   9 -15   14.66    9.49
  -1  -9 -15   24.46    6.55
   1  -9 -15   16.30    5.01
  -1  -9 -15   11.87    4.37
   1  -9 -15   13.97    5.79
  -1  -9  15   12.30    4.46
  -1  -9  15   31.77    9.97
   1  -9  15   19.82    7.54
  -1   9 -16   14.27    4.24
   1   9 -16   11.59    4.43
  -1  -9 -16   10.99    6.99
   1  -9 -16    9.42    6.55
  -1  -9 -16    8.68    5.49
   1  -9 -16    2.23    2.49
  -1  -9  16   17.53    9.67
   1  -9  16    6.08    3.99
  -1   9 -17    9.41    3.97
   1   9 -17   26.76    9.18
  -1  -9 -17    4.86    3.52
   1  -9 -17   22.51    7.90
  -1  -9 -17   11.30    3.83
   1  -9 -17   14.10    3.89
  -1  -9  17   36.44   10.09
   1  -9  17   13.67    6.77
  -1   9 -18   14.09    6.27
   1   9 -18    8.08    5.18
  -1  -9 -18   11.68    5.00
   1  -9 -18   12.98    5.58
  -1  -9 -18    6.76    3.10
  -1  -9  18   21.07    8.48
   1  -9  18    6.90    5.74
   1  10   0    6.18    3.42
  -1  10   0   16.17    4.80
  -1 -10   0   11.05    5.22
   1 -10   0    7.82    4.77
  -1 -10   0    7.34    1.92
   1 -10   0   10.71    2.10
   1  10   1   15.24    2.86
  -1  10   1    6.21    2.63
   1  10  -1   10.86    2.65
  -1  10  -1    5.10    3.25
  -1 -10  -1   17.66   10.71
  -1 -10   1   10.89    5.23
   1 -10  -1   24.71    6.11
   1 -10   1    1.63    7.29
   1 -10  -1   14.81    3.82
  -1 -10  -1   12.22    2.85
  -1 -10   1   10.45    2.66
   1 -10   1   10.42    2.09
   1  10   2  223.84   17.48
  -1  10   2  211.53   20.84
   1  10  -2  217.15   18.23
  -1  10  -2  187.90   14.10
  -1 -10  -2  199.47   27.85
   1 -10  -2  215.23   28.30
  -1 -10   2  201.02   32.04
   1 -10   2  202.51   26.08
   1 -10  -2  202.73   18.64
  -1 -10  -2  237.63   30.42
  -1 -10   2  175.62   23.13
   1 -10   2  234.14   23.18
  -1  10   3  188.70   17.90
   1  10  -3  185.31   15.58
  -1  10  -3  184.52   14.58
  -1 -10  -3  204.59   31.62
  -1 -10  -3  197.69   28.00
   1 -10  -3  180.10   27.41
  -1 -10   3  180.61   33.41
   1 -10   3  202.51   38.41
  -1 -10   3  191.15   19.06
   1 -10   3  188.59   19.10
  -1  10  -4  121.37   31.41
   1  10  -4  100.64   17.13
  -1 -10  -4   92.77   15.68
  -1 -10  -4   94.33   16.84
   1 -10  -4  119.04   32.91
  -1 -10   4  110.81   19.05
   1 -10   4  103.45   16.77
  -1 -10   4  128.55   18.50
   1 -10   4  111.31   11.78
  -1  10  -5   63.22   11.56
   1  10  -5   64.31   15.33
  -1 -10  -5   60.10   14.05
  -1 -10  -5   57.78   11.24
   1 -10  -5   82.42   19.34
  -1 -10   5   66.55    9.41
   1 -10   5   67.53   14.84
  -1 -10   5   78.35   20.30
   1 -10   5   61.79    9.85
  -1  10  -6   15.27    6.80
   1  10  -6   10.80    3.96
  -1 -10  -6   15.79    7.18
  -1 -10  -6    3.04    4.28
   1 -10  -6   10.82    6.07
  -1 -10   6    3.90    2.37
   1 -10   6   18.66    6.23
  -1 -10   6    7.71    5.31
   1 -10   6    5.60    2.34
  -1  10  -7   27.60    8.12
   1  10  -7   34.81    8.35
  -1 -10  -7   18.82    7.73
  -1 -10  -7   39.16    8.53
   1 -10  -7   24.85    5.88
  -1 -10   7   38.34   11.52
   1 -10   7   22.69    5.45
  -1 -10   7   25.73    4.46
   1 -10   7   31.41    8.54
  -1  10  -8   25.32    4.69
   1  10  -8   24.84    6.10
  -1 -10  -8   19.00    5.64
  -1 -10  -8   32.96    5.92
   1 -10  -8   39.24   10.25
  -1 -10   8   21.03    5.71
   1 -10   8   31.86    6.91
  -1 -10   8   27.05    6.80
   1 -10   8   28.48    7.41
  -1  10  -9   84.86   13.84
   1  10  -9   77.80   16.25
  -1 -10  -9   80.01   13.29
   1 -10  -9   81.40   19.06
  -1 -10  -9   78.23   14.65
   1 -10  -9   92.43   24.49
  -1 -10   9   85.48   18.59
   1 -10   9   78.70   19.13
  -1 -10   9   91.42   19.12
   1 -10   9   91.24   22.44
  -1  10 -10   79.60   20.51
   1  10 -10   77.15   11.47
  -1 -10 -10   79.75   13.27
   1 -10 -10   71.16   13.97
  -1 -10 -10   82.77   10.58
   1 -10 -10   82.71   16.45
  -1 -10  10   56.22   20.46
   1 -10  10   67.25   13.03
  -1 -10  10   81.50   18.06
   1 -10  10   75.48   20.29
  -1  10 -11    8.73    3.31
   1  10 -11   10.22    4.32
  -1 -10 -11    9.44    3.00
   1 -10 -11    1.33    3.24
  -1 -10 -11    1.51    3.38
   1 -10 -11    4.99    5.22
  -1 -10  11    0.94    3.05
   1 -10  11   10.86    5.34
  -1 -10  11    7.01    3.57
   1 -10  11    9.70    5.63
  -1  10 -12    9.48    4.15
   1  10 -12   11.66    4.44
  -1 -10 -12   11.08    6.49
   1 -10 -12   13.87    4.71
  -1 -10 -12   11.17    5.29
   1 -10 -12    8.12    4.72
  -1 -10  12    7.53    4.70
   1 -10  12   16.63    5.65
  -1 -10  12   11.54    5.84
   1 -10  12   12.46    6.00
  -1  10 -13   19.38    8.20
   1  10 -13   17.55    7.36
  -1 -10 -13   14.82    4.41
   1 -10 -13   25.34    5.21
  -1 -10 -13   14.27    4.36
   1 -10 -13   23.18    6.55
  -1 -10  13   21.38    4.19
   1 -10  13   20.66    5.04
  -1 -10  13   27.55    9.34
   1 -10  13   32.40   11.87
  -1  10 -14   69.11   14.17
   1  10 -14   67.71   16.72
  -1 -10 -14   45.38   16.89
   1 -10 -14   54.79   13.39
  -1 -10 -14   57.86   13.09
   1 -10 -14   64.55   16.96
   1 -10  14   68.01   13.95
  -1 -10  14   85.80   21.54
   1 -10  14   73.53   21.00
  -1  10 -15   20.46    6.46
   1  10 -15   11.21    4.59
  -1 -10 -15   16.24    6.38
   1 -10 -15   18.86    4.27
   1 -10 -15   19.98    7.04
   1 -10  15   23.97    9.70
  -1 -10  15   14.61    6.73
   1 -10  15   33.49   15.19
  -1  10 -16   15.04    4.76
   1  10 -16    6.65    4.21
  -1 -10 -16   14.35    3.66
   1 -10 -16    7.47    6.17
  -1 -10 -16    9.26    5.25
   1 -10 -16    7.34    3.87
   1 -10  16    7.29    3.75
  -1 -10  16   15.65    6.53
   1 -10  16    6.87    6.88
  -1  10 -17    7.07    3.66
   1  10 -17    6.11    4.29
  -1 -10 -17    0.60    2.16
   1 -10 -17   10.60    4.71
  -1 -10 -17    7.93    3.91
   1 -10 -17    8.79    3.87
   1 -10  17   10.67    3.63
  -1 -10  17   13.17    8.30
   1 -10  17   16.30    8.74
   1  11   0  129.45   10.16
  -1  11   0  152.95   26.31
  -1 -11   0  149.40   32.11
   1 -11   0  135.09   35.45
  -1 -11   0  137.18   23.08
   1 -11   0  142.83   11.92
   1  11   1  143.53   13.36
  -1  11   1  143.86   12.85
   1  11  -1  139.83   12.42
  -1  11  -1  142.63   28.10
  -1 -11  -1  189.88   24.36
  -1 -11   1  166.95   35.41
   1 -11  -1  167.45   26.70
   1 -11   1  160.74   28.12
   1 -11  -1  162.78   19.31
  -1 -11  -1  148.79   10.07
  -1 -11   1  139.79   10.74
   1 -11   1  134.83   13.25
   1  11   2   17.32    6.15
  -1  11   2   10.78    3.62
   1  11  -2   15.25    4.49
  -1  11  -2   12.17    6.14
  -1 -11  -2    0.07    5.11
   1 -11  -2   13.91    7.57
  -1 -11   2   34.57    7.44
   1 -11   2   -0.24    6.50
   1 -11  -2   12.98    5.48
  -1 -11  -2   13.64    3.68
  -1 -11   2   12.07    4.56
   1 -11   2    7.38    2.53
  -1  11   3   38.41    5.30
   1  11  -3   45.89   12.81
  -1  11  -3   34.74    7.05
  -1 -11  -3   34.44    6.94
  -1 -11  -3   38.90   10.31
   1 -11  -3   50.40   12.05
  -1 -11   3   53.18   10.46
   1 -11   3   29.44    9.32
  -1 -11   3   39.76    7.66
   1 -11   3   40.84   11.63
  -1  11  -4    9.05    3.48
   1  11  -4    8.73    3.71
  -1 -11  -4    5.98    3.82
   1 -11  -4    5.93    5.89
  -1 -11  -4   12.32    5.57
   1 -11  -4   13.28    6.10
  -1 -11   4    2.98    5.21
   1 -11   4    3.61    3.61
  -1 -11   4   13.24    5.79
   1 -11   4    4.90    4.46
  -1  11  -5   93.67   14.90
   1  11  -5  111.86   12.51
  -1 -11  -5   95.54   16.04
   1 -11  -5  108.52   19.71
  -1 -11  -5   94.06   21.92
   1 -11  -5  107.29   27.46
  -1 -11   5  101.20   18.64
   1 -11   5   75.25   20.42
  -1 -11   5  110.89   25.66
   1 -11   5  111.46   13.06
  -1  11  -6    3.40    3.02
   1  11  -6   14.61    4.60
  -1 -11  -6    7.74    2.65
   1 -11  -6    4.62    4.30
  -1 -11  -6   12.00    2.77
   1 -11  -6    6.81    2.91
  -1 -11   6   10.87    4.33
   1 -11   6   10.64    4.71
  -1 -11   6   14.55    3.98
   1 -11   6   10.76    4.70
  -1  11  -7   18.02    4.80
   1  11  -7   13.53    3.19
  -1 -11  -7   21.75    5.69
   1 -11  -7   13.08    4.72
  -1 -11  -7   20.95    5.56
   1 -11  -7    8.19    2.97
  -1 -11   7   13.74    7.81
   1 -11   7    8.89    5.37
  -1 -11   7    7.33    4.65
   1 -11   7   11.65    4.80
  -1  11  -8   10.33    3.81
   1  11  -8   21.72    8.33
  -1 -11  -8   23.86    7.98
   1 -11  -8    5.32    5.03
  -1 -11  -8   18.02    4.02
   1 -11  -8   11.53    5.98
  -1 -11   8    9.90    6.06
   1 -11   8   15.05    6.06
  -1 -11   8   15.97    3.86
   1 -11   8   11.82    4.27
  -1  11  -9   36.84    7.52
   1  11  -9   48.70   12.20
  -1 -11  -9   32.57    8.21
   1 -11  -9   43.80   10.71
  -1 -11  -9   50.98   13.80
   1 -11  -9   26.90    7.49
  -1 -11   9   33.10   12.05
   1 -11   9   43.85    9.30
  -1 -11   9   38.46    9.87
   1 -11   9   37.23    9.39
  -1  11 -10   11.11    3.20
   1  11 -10    5.77    2.65
  -1 -11 -10    8.35    3.87
   1 -11 -10   12.29    4.54
  -1 -11 -10    9.11    4.04
   1 -11 -10    7.07    3.30
  -1 -11  10   -1.15    4.62
   1 -11  10   13.99    5.50
  -1 -11  10    7.61    4.92
   1 -11  10    7.65    4.48
  -1  11 -11   66.56   17.74
   1  11 -11   62.23   12.12
  -1 -11 -11   72.45   21.08
   1 -11 -11   66.14   17.81
  -1 -11 -11   74.30   22.37
   1 -11 -11   55.45   19.09
  -1 -11  11   66.87   22.38
   1 -11  11   74.71   20.57
  -1 -11  11   78.19   20.49
   1 -11  11   60.15   22.48
  -1  11 -12   44.60   11.12
   1  11 -12   24.87    8.03
  -1 -11 -12   31.71   10.30
   1 -11 -12   32.99    8.12
  -1 -11 -12   29.23   12.52
   1 -11 -12   34.97   12.02
  -1 -11  12   28.35    6.00
   1 -11  12   31.53    9.52
  -1 -11  12   48.99   12.51
   1 -11  12   45.01   14.14
  -1  11 -13   34.78    7.94
   1  11 -13   35.17   11.97
  -1 -11 -13   20.15    8.29
   1 -11 -13   34.59   14.69
  -1 -11 -13   36.42   13.98
   1 -11 -13   21.56    8.55
  -1 -11  13   27.56    7.32
   1 -11  13   34.02    8.38
  -1 -11  13   43.09   16.51
   1 -11  13   32.30   12.92
  -1  11 -14    9.40    3.29
   1  11 -14   11.60    3.94
  -1 -11 -14    8.84    4.11
   1 -11 -14    8.81    6.12
  -1 -11 -14    1.08    2.48
   1 -11 -14    3.85    5.24
  -1 -11  14    4.07    2.65
   1 -11  14    7.91    4.32
  -1 -11  14    9.80    4.07
   1 -11  14   13.11    3.80
  -1  11 -15    7.19    2.84
   1  11 -15    5.04    3.39
  -1 -11 -15    5.68    4.34
   1 -11 -15    6.57    3.28
  -1 -11 -15    2.32    2.96
   1 -11 -15    3.11    1.80
   1 -11  15   -0.99    4.08
  -1 -11  15   12.44    4.85
   1 -11  15   21.53    7.78
  -1  11 -16    2.86    3.27
   1  11 -16    8.48    4.10
  -1 -11 -16    8.78    3.95
   1 -11 -16   12.17    5.77
  -1 -11 -16    3.85    2.41
   1 -11 -16    2.39    1.68
   1 -11  16    4.15    2.94
  -1 -11  16   15.71    6.28
   1 -11  16   -0.51    5.63
   1  12   0   37.15    6.69
  -1  12   0   49.08    7.33
  -1 -12   0   46.32   11.92
   1 -12   0   29.65    6.90
   1 -12   0   34.20    6.04
  -1 -12   0   44.82   10.02
   1  12   1  122.09   21.75
  -1  12   1  106.32   13.86
   1  12  -1   95.67   11.08
  -1  12  -1  107.57   14.76
  -1 -12  -1   96.02   16.20
  -1 -12   1   88.94   18.62
   1 -12  -1  104.47   21.52
   1 -12   1   83.61   13.97
   1 -12  -1  105.10   12.50
  -1 -12  -1   98.78   15.02
  -1 -12   1  103.99    9.29
   1 -12   1   97.16    9.03
   1  12   2   40.04   11.45
  -1  12   2   24.18    7.72
   1  12  -2   33.84   10.85
  -1  12  -2   31.64    6.16
  -1 -12  -2   25.58    6.36
   1 -12  -2   31.67    6.22
  -1 -12   2   38.24    7.37
   1 -12   2   39.17    8.87
  -1 -12  -2   41.33    6.78
  -1 -12   2   43.25   10.63
   1 -12   2   32.11   10.11
  -1  12   3   52.55   16.76
   1  12  -3   70.88   16.99
  -1  12  -3   52.70   10.88
  -1 -12  -3   60.46   11.29
  -1 -12  -3   65.33    9.93
   1 -12  -3   45.94   17.07
  -1 -12   3   57.24   11.35
   1 -12   3   51.76   18.55
  -1 -12   3   61.73   14.83
   1 -12   3   46.55   10.36
   1  12  -4  149.80   27.59
  -1  12  -4  135.32   22.11
  -1 -12  -4  137.94   24.89
   1 -12  -4  139.93   21.06
  -1 -12  -4  166.39   36.30
   1 -12  -4  134.98   31.24
  -1 -12   4  147.06   28.17
   1 -12   4  166.95   28.81
  -1 -12   4  153.58   29.60
   1 -12   4  139.89   20.86
  -1  12  -5   25.91    4.96
   1  12  -5   25.82    6.21
  -1 -12  -5   25.45    7.23
   1 -12  -5   10.06    4.65
  -1 -12  -5   41.73    9.92
   1 -12  -5   15.37    4.51
  -1 -12   5   34.54   12.00
   1 -12   5   26.19    6.93
  -1 -12   5   22.78    4.62
   1 -12   5   30.67    7.80
  -1  12  -6    9.29    4.04
   1  12  -6   14.70    4.56
  -1 -12  -6   14.42    4.40
   1 -12  -6   12.47    4.06
  -1 -12  -6   19.10    4.91
   1 -12  -6    9.64    4.11
  -1 -12   6    8.90    4.42
   1 -12   6    9.58    3.89
  -1 -12   6   20.56    4.68
   1 -12   6   12.34    3.62
  -1  12  -7   51.95    9.41
   1  12  -7   58.31   14.05
  -1 -12  -7   59.76   15.35
   1 -12  -7   59.69   13.11
  -1 -12  -7   66.97   15.39
   1 -12  -7   36.63    8.59
  -1 -12   7   50.31   10.10
   1 -12   7   79.39   19.62
  -1 -12   7   58.88   12.93
   1 -12   7   52.54   12.12
  -1  12  -8   72.11   13.11
   1  12  -8   65.62   22.89
  -1 -12  -8   75.70   16.67
   1 -12  -8   86.27   21.30
  -1 -12  -8   73.69   18.42
   1 -12  -8   73.49   16.64
  -1 -12   8   71.86   15.79
   1 -12   8   89.65   15.04
  -1 -12   8   73.63   13.45
   1 -12   8   71.12   12.73
  -1  12  -9   50.83   11.48
   1  12  -9   47.48   13.36
  -1 -12  -9   40.56   12.27
   1 -12  -9   34.87    9.56
  -1 -12  -9   43.92   12.54
   1 -12  -9   28.01    6.45
  -1 -12   9   45.23   14.93
   1 -12   9   51.09    8.00
  -1 -12   9   50.10   15.78
   1 -12   9   52.62   15.83
  -1  12 -10    8.09    4.14
   1  12 -10    1.98    3.03
  -1 -12 -10    3.48    2.26
   1 -12 -10    7.32    5.74
  -1 -12 -10    7.01    4.00
   1 -12 -10    6.48    3.05
  -1 -12  10    9.10    4.02
   1 -12  10   17.90    7.23
  -1 -12  10    3.95    1.96
   1 -12  10   10.06    6.57
  -1  12 -11   41.06    9.10
   1  12 -11   32.02    9.66
  -1 -12 -11   34.36   11.91
   1 -12 -11   36.50   11.76
  -1 -12 -11   42.08    9.89
   1 -12 -11   29.59   11.34
  -1 -12  11   37.50   10.57
   1 -12  11   28.39   16.39
  -1 -12  11   57.50   18.13
   1 -12  11   48.76   16.59
  -1  12 -12   12.34    7.78
   1  12 -12   15.50    5.36
  -1 -12 -12    9.76    4.06
   1 -12 -12   13.97    5.40
  -1 -12 -12   28.64    9.20
   1 -12 -12   12.11    5.23
  -1 -12  12   12.58    6.22
   1 -12  12   19.19    6.56
  -1 -12  12   13.14    6.94
   1 -12  12    7.58    4.16
  -1  12 -13   16.00    7.79
   1  12 -13    8.18    4.32
  -1 -12 -13   17.13    6.97
   1 -12 -13   14.65    7.21
  -1 -12 -13    8.93    5.37
   1 -12 -13    9.27    5.15
  -1 -12  13   11.47    4.33
   1 -12  13    3.75    6.31
  -1 -12  13   11.82    5.30
   1 -12  13   15.60    7.18
  -1  12 -14   22.28   15.55
   1  12 -14   15.43    3.76
  -1 -12 -14   14.82    5.51
   1 -12 -14    2.57    2.92
  -1 -12 -14    6.08    5.19
   1 -12 -14    6.22    5.98
  -1 -12  14    2.81    3.78
   1 -12  14    3.74    3.56
  -1 -12  14    9.03    5.37
   1 -12  14   18.10    7.70
  -1  12 -15    8.47    2.84
   1  12 -15   16.67    7.16
  -1 -12 -15   15.65    4.97
   1 -12 -15   23.60   10.87
   1 -12 -15   10.80    6.33
  -1 -12  15   15.64    6.40
   1 -12  15   13.42    7.29
  -1 -12  15   13.76    9.69
   1 -12  15   16.78    7.45
  -1  12 -16   15.13    6.03
   1  12 -16   12.44    4.63
  -1 -12 -16   15.89   11.07
   1 -12 -16   10.48    6.41
  -1 -12 -16    6.55    3.13
   1 -12 -16   23.50   10.95
   1 -12  16   15.17   12.14
  -1 -12  16   27.49   13.31
   1 -12  16   17.41   10.20
   1  13   0   27.34    6.57
  -1  13   0   30.33    6.33
  -1 -13   0   27.44    7.96
   1 -13   0   33.46    7.20
  -1 -13   0   26.34    5.27
   1 -13   0   25.84    7.73
   1  13   1   68.95    9.18
  -1  13   1   67.74   13.94
   1  13  -1   57.47   10.77
  -1  13  -1   63.85   13.18
  -1 -13  -1   67.61   14.65
  -1 -13   1   53.45   15.08
   1 -13  -1   39.97   18.70
   1 -13   1   46.52   11.30
   1 -13  -1   48.17   11.53
  -1 -13  -1   51.36    9.02
  -1 -13   1   44.67   10.51
   1 -13   1   58.27   14.07
   1  13   2   18.61    3.94
  -1  13   2   23.11    4.33
   1  13  -2   21.57    4.47
  -1  13  -2   22.73    5.70
  -1 -13  -2   18.54    5.89
   1 -13  -2   20.81    7.01
  -1 -13   2   10.62    4.83
   1 -13   2   22.80    7.35
  -1 -13  -2   18.45    5.22
  -1 -13   2   16.78    5.14
   1 -13   2   13.97    5.38
  -1  13   3    6.88    1.69
   1  13  -3    8.91    3.06
  -1  13  -3    5.84    2.94
  -1 -13  -3    6.76    3.13
  -1 -13  -3   12.16    8.16
   1 -13  -3   15.42    6.09
  -1 -13   3    5.66    4.17
   1 -13   3   12.80    5.24
  -1 -13   3   13.26    3.66
   1 -13   3    2.93    1.80
   1  13  -4   24.06    9.19
  -1  13  -4   25.66    5.85
  -1 -13  -4   20.32    5.47
   1 -13  -4   18.98    4.93
  -1 -13  -4   15.12    5.82
   1 -13  -4   17.21    6.24
  -1 -13   4   36.99    8.62
   1 -13   4   26.53    7.91
  -1 -13   4   19.48    6.32
   1 -13   4   32.03    6.66
   1  13  -5   61.53   13.65
  -1  13  -5   51.33    9.11
  -1 -13  -5   49.87   13.79
   1 -13  -5   53.37   13.60
  -1 -13  -5   46.17   14.11
   1 -13  -5   47.18   11.64
  -1 -13   5   53.47   17.27
   1 -13   5   56.10   18.94
  -1 -13   5   67.64   11.44
   1 -13   5   44.53   10.28
  -1  13  -6    5.92    2.70
   1  13  -6    9.50    3.09
  -1 -13  -6   12.72    3.76
   1 -13  -6    8.08    3.03
  -1 -13  -6   12.65    6.82
   1 -13  -6    4.06    3.94
  -1 -13   6    9.43    3.08
   1 -13   6    7.00    7.44
  -1 -13   6   11.91    4.65
   1 -13   6    6.53    3.59
  -1  13  -7   73.12   21.13
   1  13  -7   72.40   22.37
  -1 -13  -7   83.54   15.84
   1 -13  -7   73.91   16.88
  -1 -13  -7   88.22   23.61
   1 -13  -7   88.18   21.81
  -1 -13   7   81.34   16.16
   1 -13   7   69.97   14.05
  -1 -13   7   82.47   17.01
   1 -13   7   89.63   12.39
  -1  13  -8   11.83    5.00
   1  13  -8    4.69    3.74
  -1 -13  -8    2.73    3.60
   1 -13  -8    5.46    4.70
  -1 -13  -8    9.48    8.48
   1 -13  -8    7.79    3.81
  -1 -13   8   10.46    5.59
   1 -13   8    8.28    4.84
  -1 -13   8    5.60    3.47
   1 -13   8    6.10    3.88
  -1  13  -9    3.18    2.50
   1  13  -9    8.31    5.14
  -1 -13  -9   14.68    5.21
   1 -13  -9   12.34    6.34
  -1 -13  -9    3.72    6.45
   1 -13  -9   13.06    4.73
  -1 -13   9    8.94    4.55
   1 -13   9    7.80    3.60
  -1 -13   9   -0.17    3.20
   1 -13   9    4.58    5.00
  -1  13 -10   14.88    6.76
   1  13 -10   14.75    3.62
  -1 -13 -10   18.58    6.40
   1 -13 -10   10.86    5.23
  -1 -13 -10   11.41    7.87
   1 -13 -10   12.06    5.01
  -1 -13  10    4.55    4.79
   1 -13  10    5.34    4.75
  -1 -13  10   12.63    4.64
   1 -13  10    6.71    4.36
  -1  13 -11   23.30    8.43
   1  13 -11   18.26    6.32
  -1 -13 -11   17.44    4.87
   1 -13 -11   15.37    6.12
  -1 -13 -11   22.28    6.50
   1 -13 -11   17.51    6.61
  -1 -13  11   29.85    8.89
   1 -13  11   13.33    4.83
  -1 -13  11   21.77    9.17
   1 -13  11   33.92    7.95
  -1  13 -12    7.83    2.81
   1  13 -12    7.75    3.77
  -1 -13 -12    2.94    3.27
   1 -13 -12    9.87    6.37
  -1 -13 -12   14.12    7.10
   1 -13 -12   10.66    6.28
  -1 -13  12   20.63    7.12
   1 -13  12   15.69    7.90
  -1 -13  12   11.11    6.47
   1 -13  12    5.46    2.97
  -1  13 -13    9.72    3.07
   1  13 -13   10.36    4.41
  -1 -13 -13   15.72    6.26
   1 -13 -13   14.03    5.11
  -1 -13 -13   11.26    4.77
   1 -13 -13   27.99    8.58
  -1 -13  13    9.36    5.81
   1 -13  13   14.95    7.40
  -1 -13  13   10.05    4.77
   1 -13  13   16.00    5.90
  -1  13 -14   19.94    8.31
   1  13 -14   21.10    5.25
  -1 -13 -14   19.00    6.15
   1 -13 -14   35.93   10.16
  -1 -13 -14   20.14    9.13
   1 -13 -14   23.04    6.58
  -1 -13  14   13.51    7.58
   1 -13  14   13.68    7.66
  -1 -13  14   29.19   19.02
   1 -13  14   33.38   12.86
  -1  13 -15    9.09    6.18
   1  13 -15    7.19    4.33
  -1 -13 -15    4.26    4.68
   1 -13 -15    7.97    2.87
  -1 -13 -15    3.71    2.59
   1 -13 -15    6.07    3.80
   1 -13  15    4.06    2.35
  -1 -13  15    5.33    6.26
   1 -13  15    2.62    2.92
   1  14   0   24.93    7.93
  -1  14   0   20.49    5.38
  -1 -14   0    5.18    5.23
   1 -14   0    1.09    6.29
   1 -14   0   19.99    4.64
  -1 -14   0   13.15    3.66
   1  14   1   30.73    8.35
  -1  14   1   27.33    7.26
   1  14  -1   28.50    6.28
  -1  14  -1   17.69    5.24
  -1 -14  -1   17.79    7.62
  -1 -14   1   32.43    9.11
   1 -14  -1   30.83    7.54
   1 -14   1   21.87    4.99
   1 -14  -1   19.71    6.28
  -1 -14  -1   23.65    6.49
   1 -14   1   23.18    7.18
  -1 -14   1   29.66    7.12
   1  14   2   77.41   17.25
  -1  14   2   63.79   14.73
   1  14  -2   89.59   17.32
  -1  14  -2   68.62   17.52
  -1 -14  -2   60.58   14.82
   1 -14  -2   63.07   13.58
  -1 -14   2   75.18   16.49
   1 -14   2   65.24   11.36
  -1 -14   2   63.20   14.54
   1 -14   2   58.27   15.43
  -1  14   3   53.31   14.88
   1  14  -3   55.02   17.10
  -1  14  -3   53.98   15.36
  -1 -14  -3   38.19    9.93
  -1 -14  -3   49.23   10.13
   1 -14  -3   61.88   14.03
  -1 -14   3   54.22   15.41
   1 -14   3   43.12    9.99
  -1 -14   3   43.34   12.13
   1 -14   3   33.81   13.54
   1  14  -4   25.12    8.90
  -1  14  -4   21.26    5.57
  -1 -14  -4   32.94    8.51
   1 -14  -4   18.64    6.49
  -1 -14  -4   30.13    8.04
   1 -14  -4   32.05    9.02
  -1 -14   4   12.46    4.48
   1 -14   4   17.51    6.58
  -1 -14   4   27.74    8.10
   1 -14   4   23.18    6.67
   1  14  -5    2.32    2.94
  -1  14  -5    6.20    3.23
  -1 -14  -5    4.96    5.37
   1 -14  -5    6.97    2.85
  -1 -14  -5    8.49    3.14
   1 -14  -5    9.80    5.03
  -1 -14   5   10.43    7.04
   1 -14   5   12.70    6.52
  -1 -14   5    5.77    2.18
   1 -14   5    5.55    1.81
   1  14  -6  154.35   35.41
  -1  14  -6  148.61   17.56
  -1 -14  -6  122.27   28.25
   1 -14  -6  149.33   20.54
  -1 -14  -6  164.18   22.51
   1 -14  -6  159.32   40.91
  -1 -14   6  140.53   31.53
   1 -14   6  140.49   30.03
  -1 -14   6  156.52   15.52
   1 -14   6  152.89   23.46
  -1  14  -7    3.28    3.13
   1  14  -7    6.48    4.68
  -1 -14  -7    9.09    3.50
   1 -14  -7    4.68    2.01
  -1 -14  -7    2.22    4.56
   1 -14  -7   11.16    5.95
  -1 -14   7    9.08    8.69
   1 -14   7   11.36    4.29
  -1 -14   7    4.81    2.85
   1 -14   7    6.18    2.46
  -1  14  -8   18.94    5.34
   1  14  -8    6.22    4.32
  -1 -14  -8    9.27    5.46
   1 -14  -8   13.96    5.46
  -1 -14  -8   12.11    4.20
   1 -14  -8   13.09    5.65
  -1 -14   8    3.65    2.48
   1 -14   8   15.35    6.67
  -1 -14   8   15.84    4.57
   1 -14   8    8.28    4.52
  -1  14  -9   40.33   12.24
   1  14  -9   34.03   10.56
  -1 -14  -9   37.11   10.52
   1 -14  -9   26.48    7.66
  -1 -14  -9   32.62   15.11
   1 -14  -9   43.94   12.08
  -1 -14   9   23.03   10.11
   1 -14   9   19.85    5.96
  -1 -14   9   30.77   13.17
   1 -14   9   28.19    7.65
  -1  14 -10   25.48   10.84
   1  14 -10   23.46    8.43
  -1 -14 -10   27.09    8.91
   1 -14 -10   13.05    5.09
  -1 -14 -10   28.30    7.92
   1 -14 -10   31.76   10.79
  -1 -14  10   26.67    9.94
   1 -14  10   44.71   12.23
  -1 -14  10   23.61    7.03
   1 -14  10   27.39   11.22
  -1  14 -11   15.46    6.77
   1  14 -11    9.56    4.14
  -1 -14 -11   25.86    6.71
   1 -14 -11   21.57    8.65
  -1 -14 -11   23.27    6.63
   1 -14 -11   14.64   10.38
  -1 -14  11   18.93    7.50
   1 -14  11   26.72    9.83
  -1 -14  11   23.97    5.84
   1 -14  11   11.68    5.70
  -1  14 -12   15.68    5.17
   1  14 -12    8.34    4.15
  -1 -14 -12   12.51    5.99
   1 -14 -12    8.04    5.67
  -1 -14 -12   12.32    6.24
   1 -14 -12   14.21    5.37
  -1 -14  12    9.04    4.67
   1 -14  12    6.79    4.27
  -1 -14  12    4.61    3.04
   1 -14  12   11.02    6.39
  -1  14 -13    6.98    3.65
   1  14 -13   12.60    6.37
  -1 -14 -13   10.28    5.05
   1 -14 -13   16.47    8.63
  -1 -14 -13   18.43    5.46
   1 -14 -13   21.69    6.79
  -1 -14  13    4.13    4.70
   1 -14  13   10.74    4.46
  -1 -14  13   12.33    5.26
   1 -14  13    7.53    4.86
   1  15   0    6.59    4.40
  -1  15   0    4.88    3.25
  -1 -15   0    7.52    4.28
   1 -15   0    6.18    3.71
   1 -15   0   11.59    3.36
  -1 -15   0   10.14    3.68
   1  15   1   32.23    6.59
  -1  15   1   29.42    7.31
   1  15  -1   28.14    6.24
  -1  15  -1   30.47    6.84
  -1 -15  -1   20.28    6.56
  -1 -15   1   17.60    8.33
   1 -15  -1   30.20   13.21
   1 -15   1   44.28   11.26
   1 -15  -1   11.52    4.66
  -1 -15  -1   22.34    7.85
   1 -15   1   24.87    4.86
  -1 -15   1   22.62    6.88
   1  15   2   12.57    5.38
  -1  15   2   11.17    3.22
   1  15  -2   17.66    5.83
  -1  15  -2   18.77    5.98
  -1 -15  -2   12.86    6.00
   1 -15  -2   19.05    6.53
  -1 -15   2   10.88    6.05
   1 -15   2   15.69    4.36
  -1 -15   2   17.88    5.11
   1 -15   2   14.76    4.59
  -1  15   3   13.02    4.96
   1  15  -3    5.19    1.76
  -1  15  -3    7.09    3.62
  -1 -15  -3   23.55    5.09
  -1 -15  -3   14.63    4.92
   1 -15  -3   28.37    7.34
  -1 -15   3   15.69    7.52
   1 -15   3   22.11    7.34
  -1 -15   3   16.44    4.27
   1  15  -4   29.56   11.82
  -1  15  -4   30.78    9.46
  -1 -15  -4   28.52    6.86
   1 -15  -4   39.70    9.46
  -1 -15  -4   53.40    9.22
   1 -15  -4   24.77    7.77
  -1 -15   4   38.67   10.77
   1 -15   4   37.57    8.95
  -1 -15   4   32.37   11.74
   1 -15   4   26.17    9.97
   1  15  -5    6.56    3.42
  -1  15  -5   13.42    4.64
  -1 -15  -5    9.17    3.93
   1 -15  -5    6.26    3.92
  -1 -15  -5    5.21    7.26
   1 -15  -5    5.34    7.82
  -1 -15   5   20.55    7.59
   1 -15   5   20.33    8.01
  -1 -15   5    8.65    4.04
   1 -15   5    9.53    3.99
   1  15  -6   26.87    9.03
  -1  15  -6   27.64    7.93
  -1 -15  -6   18.79    5.29
   1 -15  -6   18.72    7.37
  -1 -15  -6   16.00    4.47
   1 -15  -6   39.15   11.92
  -1 -15   6   21.58    7.11
   1 -15   6   28.15    9.41
  -1 -15   6   15.21    5.17
   1 -15   6   22.69    5.09
   1  15  -7    5.11    5.25
  -1  15  -7    6.50    2.97
  -1 -15  -7    9.75    3.25
   1 -15  -7    7.98    3.10
  -1 -15  -7    5.90    3.93
   1 -15  -7    8.20    4.20
  -1 -15   7   -0.94    5.44
   1 -15   7    9.81    7.90
   1 -15   7    5.72    3.75
  -1  15  -8   45.31   12.65
   1  15  -8   35.70   11.71
  -1 -15  -8   34.10   11.07
   1 -15  -8   33.36    9.79
  -1 -15  -8   50.62   11.05
   1 -15  -8   17.53    7.21
  -1 -15   8   34.65   12.02
   1 -15   8   39.72   12.40
  -1 -15   8   37.04   11.12
   1 -15   8   29.89   14.77
  -1  15  -9    5.78    2.63
   1  15  -9    4.94    2.83
  -1 -15  -9    7.53    4.20
   1 -15  -9    8.50    4.81
  -1 -15  -9   17.81    8.88
   1 -15  -9   12.29    4.95
  -1 -15   9    4.19    4.60
   1 -15   9    5.82    5.72
  -1 -15   9    3.26    1.97
   1 -15   9    4.64    3.77
  -1  15 -10   19.31    6.42
   1  15 -10   12.83    4.97
  -1 -15 -10    9.92    6.09
   1 -15 -10   10.90    6.43
  -1 -15 -10   12.31    9.52
   1 -15 -10    4.65    3.44
  -1 -15  10    3.72    5.80
   1 -15  10    8.07    8.06
  -1 -15  10    6.76    4.13
   1 -15  10    8.24    3.76
  -1  15 -11   24.60   11.35
  -1 -15 -11    5.71    3.25
   1 -15 -11   20.53    7.35
  -1 -15 -11   10.83    3.78
   1 -15 -11    9.41    4.48
  -1 -15  11   17.43    6.97
   1 -15  11   11.59    5.27
  -1 -15  11    6.70    4.63
   1 -15  11   11.50    8.98
  -1  15 -12    4.94    3.21
   1  15 -12    6.10    3.60
  -1 -15 -12    8.24    4.21
   1 -15 -12    9.60    3.44
  -1 -15 -12    6.02    3.35
   1 -15 -12    8.86    6.50
  -1 -15  12    9.53    7.10
   1 -15  12   14.05    5.67
  -1 -15  12    6.18    4.95
   1 -15  12    7.16    3.22
   1  16   0   53.44   13.83
  -1  16   0   50.46   12.17
  -1 -16   0   50.52   12.20
   1 -16   0   36.40   10.81
  -1 -16   0   46.47   10.10
   1  16   1    1.43    1.43
  -1  16   1    5.55    2.75
   1  16  -1    3.72    2.09
  -1  16  -1    6.35    3.08
  -1 -16  -1    4.48    4.59
  -1 -16   1    5.82    4.34
   1 -16  -1    9.97    5.52
   1 -16   1   12.92    8.46
  -1 -16  -1    3.21    1.70
  -1 -16   1    4.28    2.18
  -1  16   2    5.33    2.76
   1  16  -2    3.07    2.23
  -1  16  -2    4.45    2.93
  -1 -16  -2    8.60    3.49
  -1 -16  -2    5.26    4.55
   1 -16  -2    4.39    3.96
  -1 -16   2   -3.35    5.54
   1 -16   2   18.99    5.91
  -1 -16   2    6.01    2.06
   1 -16   2    4.85    2.09
   1  16  -3   19.15    9.43
  -1  16  -3   28.64    7.57
  -1 -16  -3   24.35    7.06
   1 -16  -3   23.58   14.69
  -1 -16  -3   25.92    7.15
   1 -16  -3   24.91    8.53
  -1 -16   3   18.58    7.88
   1 -16   3   28.60    9.92
  -1 -16   3   25.35   10.38
   1 -16   3   20.13    5.26
   1  16  -4   15.46    5.91
  -1  16  -4   28.21    9.87
  -1 -16  -4   16.60    4.96
   1 -16  -4   21.86    7.47
  -1 -16  -4   38.25   13.51
   1 -16  -4    8.75   12.63
  -1 -16   4   21.78   10.74
   1 -16   4   21.14    6.19
  -1 -16   4   14.70    4.62
   1 -16   4   17.36    8.02
   1  16  -5   27.34    7.02
  -1  16  -5   20.17    8.17
  -1 -16  -5   31.53    7.07
   1 -16  -5   20.24    7.82
  -1 -16  -5   30.84    9.01
   1 -16  -5   24.25    7.31
  -1 -16   5   22.03    6.06
   1 -16   5   26.24   11.82
  -1 -16   5   28.48    5.76
   1 -16   5   16.92    4.44
   1  16  -6    5.32    4.25
  -1  16  -6    3.59    2.29
  -1 -16  -6    6.22    3.43
   1 -16  -6    7.82    2.83
  -1 -16  -6   -1.93    5.69
   1 -16  -6    3.97    4.95
  -1 -16   6    8.80    5.43
   1 -16   6   -1.38    5.87
  -1 -16   6    2.46    1.99
   1 -16   6   10.16    4.95
   1  16  -7   30.62   12.75
  -1  16  -7   34.26    9.33
  -1 -16  -7   23.07    6.56
   1 -16  -7   29.46    9.86
  -1 -16  -7   37.11   15.76
   1 -16  -7   35.67   13.50
  -1 -16   7   28.11    9.93
   1 -16   7   30.38   11.77
  -1 -16   7   17.93    6.58
   1 -16   7   35.19   11.19
   1  16  -8    2.61    2.40
  -1  16  -8    4.36    3.28
  -1 -16  -8   14.97    5.89
   1 -16  -8    8.23    4.85
  -1 -16  -8   16.08    5.76
   1 -16  -8    6.16    4.15
   1 -16   8    8.20    4.93
  -1 -16   8    8.59    7.72
   1 -16   8    1.54    2.70
  -1  16  -9   19.00    8.96
   1  16  -9   11.79    5.70
  -1 -16  -9   20.28   10.73
   1 -16  -9   18.60    5.99
  -1 -16  -9    2.01    3.10
   1 -16  -9   22.99    9.54
  -1 -16   9   16.21    6.22
   1 -16   9   41.16   13.10
  -1 -16   9   10.37    3.48
   1 -16   9   15.56    9.98
  -1  16 -10    7.27    3.17
   1  16 -10    3.27    2.15
  -1 -16 -10   12.10    5.70
   1 -16 -10    6.97    3.85
  -1 -16 -10   14.43    4.86
   1 -16 -10   11.38    6.49
  -1 -16  10   13.29    5.95
   1 -16  10    3.62    6.44
  -1 -16  10   10.63    7.06
   1 -16  10    1.03    1.83
   1  17   0   11.00    4.27
  -1  17   0   12.96    5.93
  -1 -17   0   23.66    7.91
   1 -17   0   10.93    9.77
  -1 -17   0    8.41    3.21
   1  17   1    5.59    3.97
  -1  17   1    4.05    5.15
   1  17  -1    8.04    3.60
  -1  17  -1    2.52    2.51
  -1 -17  -1    3.97    4.15
  -1 -17   1    8.30    5.08
   1 -17  -1    6.09    5.17
   1 -17   1    2.59    3.47
  -1 -17   1    3.63    1.87
  -1  17   2   17.91    5.91
   1  17  -2   12.00    6.81
  -1  17  -2    9.28    5.46
  -1 -17  -2   13.96    4.43
  -1 -17  -2    7.92    4.68
   1 -17  -2   14.55    5.54
  -1 -17   2   18.62    9.59
   1 -17   2   14.85    6.75
  -1 -17   2    5.84    2.94
   1  17  -3    1.34    3.86
  -1  17  -3    3.83    3.44
  -1 -17  -3    0.62    1.67
   1 -17  -3    6.55    2.72
  -1 -17  -3    3.17    2.33
   1 -17  -3   13.23    5.65
  -1 -17   3   14.57    5.47
   1 -17   3   13.21    7.31
  -1 -17   3    3.22    2.64
   1  17  -4    5.76    3.40
  -1  17  -4    6.01    3.00
  -1 -17  -4    8.13    2.63
   1 -17  -4    1.37    2.97
  -1 -17  -4    9.47    5.15
   1 -17  -4   15.59    7.59
  -1 -17   4   14.51   10.33
   1 -17   4    6.65    3.16
  -1 -17   4    4.47    2.64
   1  17  -5    7.35    5.44
  -1  17  -5    7.15    3.91
  -1 -17  -5   16.49    6.79
   1 -17  -5    2.40    3.83
  -1 -17  -5   21.81    8.57
   1 -17  -5   11.86    5.92
  -1 -17   5   17.44    7.75
  -1 -17   5    7.58    4.39
   1  17  -6   18.13    8.80
  -1  17  -6   33.17   11.98
  -1 -17  -6   28.95    6.04
   1 -17  -6   21.70   11.77
  -1 -17  -6   20.61   11.34
   1 -17  -6   16.35    6.20
  -1 -17   6   11.49    7.24
   1 -17   6   27.17    7.07
  -1 -17   6   16.65    8.52
   1 -17   6   15.86    6.36
   1  17  -7    7.02    3.21
  -1  17  -7    6.11    2.38
  -1 -17  -7    6.84    2.92
   1 -17  -7    5.47    3.60
  -1 -17  -7   12.45    5.16
   1 -17  -7   -3.71    5.24
  -1 -17   7   11.33    5.61
   1 -17   7    9.16    5.05
  -1 -17   7    5.36    3.13
   1 -17   7    6.99    3.21
   1  17  -8    8.69    4.51
  -1  17  -8    3.90    1.79
  -1 -17  -8    4.45    2.88
   1 -17  -8    6.31    5.41
  -1 -17  -8    8.91    3.81
   1 -17  -8   11.15    3.72
  -1 -17   8   10.46    4.95
   1 -17   8    2.29    5.28
  -1 -17   8    8.71    4.92
   1 -17   8    4.54    2.19
   1  18   0    4.71    2.48
  -1  18   0    4.36    2.96
  -1 -18   0   13.57    8.71
   1 -18   0    6.39    7.66
  -1  18   1    2.51    4.40
   1  18  -1   10.56    5.86
  -1  18  -1    7.93    4.21
  -1 -18  -1    7.98    2.28
  -1 -18  -1   20.62    9.82
  -1 -18   1   20.49    7.66
   1 -18  -1   19.28    7.76
   1 -18   1   16.00   11.99
   1  18  -2    7.24    2.90
  -1  18  -2   13.58    6.58
  -1 -18  -2   14.12    5.22
   1 -18  -2    7.48    2.86
  -1 -18  -2   19.39    8.89
   1 -18  -2   16.36    9.16
  -1 -18   2   12.68    4.88
   1 -18   2   16.33    5.44
   1  18  -3   11.83    4.24
  -1  18  -3   18.13    8.85
  -1 -18  -3    6.73    3.65
   1 -18  -3    8.13    4.83
  -1 -18  -3   15.86    7.26
   1 -18  -3   13.73    7.53
  -1 -18   3   11.29    5.02
   1 -18   3   14.21    7.35
   1  18  -4    1.37    1.79
  -1  18  -4    7.32    4.15
  -1 -18  -4    3.03    2.58
   1 -18  -4    3.22    3.23
  -1 -18  -4   -0.02    3.44
   1 -18  -4    9.22    6.04
  -1 -18   4   11.40    5.25
   1 -18   4   18.63   11.28
  -1 -18   4    1.91    1.88
   1  18  -5    6.00    2.91
  -1  18  -5    1.10    1.40
  -1 -18  -5    5.54    2.73
   1 -18  -5    2.57    2.43
  -1 -18  -5   12.65    4.02
   1 -18  -5   -0.38    5.44
  -1 -18   5    3.50    5.38
   1 -18   5   -2.94    6.28
  -1 -18   5    1.01    1.41
   2   0   0   19.35    2.97
   2   0   0   21.74    3.81
   2   0   0   18.80    2.99
   2   0  -1  103.63    8.36
   2   0   1   98.80    7.98
  -2   0   1   91.19    7.50
  -2   0  -1   99.94    8.21
   2   0  -1   99.68    7.96
   2   0   1  100.39    8.28
   2   0  -1   99.49    8.06
   2   0   2  153.33   12.36
   2   0  -2  176.06    7.28
  -2   0   2  167.87    4.90
  -2   0   2  163.62   13.15
  -2   0  -2  158.23   12.83
   2   0  -2  167.48    3.83
   2   0  -2  173.12    4.97
  -2   0  -3  129.74   12.96
   2   0   3  139.51   11.80
   2   0  -3  135.75   11.79
  -2   0   3  133.81   11.42
  -2   0  -3  137.66   13.98
   2   0   3  134.74   11.26
  -2   0   3  128.65   11.09
  -2   0  -4    3.84    2.33
   2   0   4    8.03    3.34
   2   0  -4    7.34    3.38
  -2   0   4    1.46    1.78
  -2   0  -4    5.82    2.40
   2   0   4    3.44    2.06
  -2   0  -5 1581.01   34.98
   2   0  -5 1543.14   34.37
  -2   0  -5 1596.77   34.78
   2   0   5 1539.56   33.48
  -2   0   5 1546.09   31.67
  -2   0  -6  254.10   17.57
   2   0  -6  254.00   17.66
   2   0  -6  273.76   17.53
  -2   0  -6  257.88   17.41
  -2   0   6  247.67   15.90
  -2   0  -7  154.19   14.59
   2   0  -7  151.99   16.46
   2   0  -7  174.71   11.49
  -2   0  -7  168.70   15.28
  -2   0   7  162.74   10.88
  -2   0  -8    6.02    3.00
   2   0  -8    8.57    4.40
   2   0  -8    6.24    1.58
  -2   0  -8    8.69    2.47
  -2   0   8    6.85    1.99
  -2   0  -9   95.60   14.44
   2   0  -9   97.80   19.93
   2   0  -9   90.25    6.27
  -2   0  -9  101.70   17.72
  -2   0   9   83.56    9.03
  -2   0 -10  234.95   36.00
   2   0 -10  252.88   31.27
   2   0 -10  239.13   15.00
  -2   0 -10  221.96   14.81
  -2   0  10  205.07   13.36
  -2   0 -11  111.22   19.72
   2   0 -11  100.92   17.16
   2   0 -11  102.51    6.88
  -2   0 -11  103.10   17.28
  -2   0  11   73.39    8.09
  -2   0 -12   17.33    5.57
   2   0 -12   14.05    6.83
   2   0 -12    8.52    2.09
  -2   0 -12   19.67    5.33
  -2   0  12    6.75    2.69
  -2   0 -13    8.71    4.15
   2   0 -13   19.72    8.44
   2   0 -13   14.37    4.74
  -2   0 -13   22.71    5.93
  -2   0 -14    9.50    4.87
   2   0 -14    5.32    6.04
   2   0 -14    2.65    0.99
  -2   0 -14    2.83    1.97
  -2   0 -15   18.80    5.60
   2   0 -15   12.16    4.94
  -2   0 -15    5.39    2.78
  -2   0 -16    9.77    4.13
   2   0 -16   13.63    6.93
  -2   0 -16    7.11    3.72
  -2   0 -17   46.08   10.41
   2   0 -17   47.12   11.00
  -2   0 -17   44.73   13.97
  -2   0 -18  109.07   18.35
   2   0 -18  111.01   24.17
  -2   0 -18   79.11   17.89
  -2   0 -19   26.11    8.07
   2   0 -19   22.15    5.72
  -2   0 -19   16.50    4.93
  -2   0 -20   17.77   10.42
   2   0 -20   14.24    8.02
  -2  -1   0  381.92    8.01
  -2   1   0  402.44    9.39
   2  -1   0  390.14    9.10
   2   1   0  391.01    8.20
  -2   1   0  368.86    8.52
   2   1   0  393.02    9.05
   2  -1   0  374.27    8.19
  -2  -1   0  407.44    9.60
   2   1   0  398.15    9.38
   2  -1   1  366.52    8.71
   2   1  -1  372.01    8.15
   2  -1   1  370.15    8.78
   2   1  -1  364.21    8.71
  -2   1  -3  203.37    8.64
   2  -1  -3  220.49    9.17
  -2   1  -3  225.91   15.99
   2   1   3  202.27   15.79
   2  -1  -3  201.91    5.63
  -2  -1   3  204.30    7.09
  -2   1  -4    5.16    3.67
   2  -1   4    3.56    2.66
  -2  -1  -4    5.67    3.05
   2   1   4    2.06    2.72
   2   1  -4    2.35    2.45
  -2  -1   4    4.43    2.56
   2  -1  -4    8.96    3.67
  -2   1   4    4.72    1.52
  -2  -1   4    3.87    0.75
  -2   1  -4    4.66    2.23
   2  -1   4    1.81    1.44
  -2  -1  -4    3.25    2.12
   2  -1  -4    7.13    1.93
  -2  -1   4    2.87    0.91
  -2   1   4    0.84    1.51
  -2  -1   4    5.51    2.85
  -2   1  -5   64.01   11.38
  -2  -1  -5   28.50    7.45
   2   1  -5   32.97    6.61
   2   1   5   37.05    7.75
  -2  -1   5   38.46    7.13
   2  -1  -5   51.25    8.45
  -2   1  -5   53.47   10.11
   2  -1   5   29.23    5.75
  -2  -1   5   42.14    3.56
  -2  -1  -5   29.31    7.78
   2   1   5   42.15   11.08
   2  -1  -5   46.31    6.70
  -2   1   5   31.57    6.36
  -2  -1   5   55.09    9.88
  -2   1  -6  169.36   12.35
  -2  -1  -6  156.38   13.36
   2   1  -6  151.59   11.69
   2  -1  -6  186.72   27.03
  -2   1  -6  174.47   19.83
  -2  -1  -6  182.88   19.62
  -2  -1   6  170.99   11.07
   2  -1  -6  166.10   10.92
  -2   1   6  161.25   10.86
  -2   1  -7  176.88   25.46
  -2  -1  -7  177.24   13.08
   2   1  -7  153.54   12.00
   2  -1  -7  163.84   24.70
  -2   1  -7  172.01   17.77
  -2  -1  -7  195.79   19.90
   2  -1  -7  152.10   10.14
  -2  -1   7  152.15    9.99
  -2   1   7  174.17   11.60
  -2   1  -8   73.75   11.56
  -2  -1  -8   54.39   11.95
   2   1  -8   64.15   14.43
   2  -1  -8   57.89   12.36
  -2   1  -8   59.38   10.85
  -2  -1  -8   62.01   13.68
   2  -1  -8   70.91    9.29
  -2  -1   8   61.29    6.23
  -2   1   8   47.56    7.80
  -2   1  -9  360.67   19.41
  -2  -1  -9  360.92   22.27
   2   1  -9  326.24   21.68
   2  -1  -9  310.47   17.33
  -2   1  -9  383.22   29.36
  -2  -1  -9  388.62   19.69
   2  -1  -9  348.33   16.76
  -2  -1   9  361.47   17.64
  -2   1   9  340.68   16.45
  -2   1 -10  162.79   21.28
  -2  -1 -10  134.39    7.93
   2   1 -10  145.44   21.39
   2  -1 -10  142.57   22.39
  -2   1 -10  169.43   21.05
   2  -1 -10  173.10   11.03
  -2  -1 -10  140.79   10.48
  -2  -1  10  154.95    5.13
  -2   1 -11   81.71   16.60
  -2  -1 -11   88.71   16.67
   2   1 -11   65.82    7.13
   2  -1 -11   87.44   14.30
  -2   1 -11   77.08   14.29
   2  -1 -11   95.52   10.43
  -2  -1 -11   78.06   11.37
  -2  -1  11   66.08   10.86
  -2   1  11   64.54    8.89
  -2   1 -12   33.87    9.41
  -2  -1 -12   26.59    7.33
   2   1 -12   27.49    7.84
   2  -1 -12   48.65    9.34
  -2   1 -12   27.30    7.82
   2  -1 -12   28.14    7.33
  -2  -1 -12   21.99    5.19
  -2  -1  12   21.78    6.48
  -2   1 -13  119.87   15.78
  -2  -1 -13   95.18   18.71
   2   1 -13   88.07   13.86
   2  -1 -13  101.12   21.21
  -2   1 -13  111.26   10.06
   2  -1 -13   92.67   12.94
  -2  -1 -13  114.22   13.79
  -2   1 -14   63.41   11.77
  -2  -1 -14   73.04   19.09
   2   1 -14   63.59   10.18
   2  -1 -14   50.34   13.62
  -2   1 -14   65.39    8.38
   2  -1 -14   47.48    5.62
  -2  -1 -14   71.27   15.16
  -2   1 -15    7.81    4.69
  -2  -1 -15   12.94    5.12
   2   1 -15   15.49    7.24
   2  -1 -15   10.54    5.73
  -2   1 -15    4.23    3.02
  -2  -1 -15   15.00    4.83
  -2   1 -16   20.98    6.53
  -2  -1 -16   37.95    6.66
   2   1 -16   28.57    6.99
   2  -1 -16   24.54    6.14
  -2   1 -16   25.56    7.53
  -2  -1 -16   28.57    7.06
  -2   1 -17   13.25    4.64
  -2  -1 -17   14.72    6.86
   2   1 -17   20.88    7.06
   2  -1 -17   16.40    8.38
  -2   1 -17    9.87    4.98
  -2  -1 -17    6.26    2.72
  -2   1 -18   16.94    7.71
  -2  -1 -18   31.82    6.72
   2   1 -18   20.26    4.13
   2  -1 -18   39.58   11.93
  -2   1 -18   28.52    6.62
  -2  -1 -18   24.89    7.41
  -2   1 -19   49.50   17.52
  -2  -1 -19   45.23   17.82
   2   1 -19   51.53   15.73
   2  -1 -19   43.62    8.98
  -2  -1 -19   39.92    9.22
  -2   1 -20    5.32    7.42
  -2  -1 -20   13.23    5.09
   2   1 -20   10.71    4.90
   2  -1 -20   12.14    5.56
  -2   2   0  155.17   12.74
   2  -2   0  142.85   11.65
  -2  -2   0  159.02   12.98
   2   2   0  144.42   12.81
  -2  -2   0  154.46   12.60
   2   2   0  129.37   10.67
  -2   2   1 4388.31  349.95
   2  -2  -1 4377.01  349.04
  -2   2  -1 4486.65  357.79
   2  -2   1 4091.99   84.09
   2   2  -1 4495.12  358.15
  -2  -2  -1 4236.06   85.85
  -2  -2   1 4206.69   85.25
   2   2   1 4455.92  355.01
  -2  -2  -1 4388.53  349.99
   2   2   1 4238.79   87.14
   2   2  -1 4121.96   84.38
  -2  -2  -1 4220.85   86.73
   2   2   1 4263.11   87.55
  -2  -2   1 4321.01  344.61
   2   2  -1 4252.77   87.38
   2  -2  -2  826.32   19.00
  -2   2  -2  770.72   17.70
   2  -2   2  770.83   17.72
   2   2  -2  812.25   18.60
  -2  -2  -2  803.62   17.54
  -2  -2   2  783.77   17.14
   2   2   2  770.00   16.74
  -2  -2  -2  798.77   18.54
  -2  -2   2  798.44   17.70
   2   2  -2  836.91   18.54
   2  -2  -2  793.19   17.88
   2   2   2  762.76   17.53
   2   2  -2  843.36   19.30
  -2   2   2  802.99   16.92
   2  -2  -3  147.24   14.77
  -2   2  -3  140.85   13.02
   2  -2   3  135.99   18.08
   2   2  -3  142.55   11.89
  -2  -2   3  142.73   11.87
   2   2   3  148.04   12.17
   2  -2  -3  154.58   14.06
  -2   2  -3  133.95   12.51
   2  -2   3  126.18   12.74
  -2  -2  -3  144.83   12.22
   2   2   3  142.79   12.79
  -2  -2   3  152.43   13.18
   2  -2  -3  154.93   12.92
   2   2  -3  134.05   11.46
  -2  -2   3  162.12   14.02
   2   2  -3  133.46   11.64
  -2   2  -4   87.17   15.80
  -2  -2  -4   57.85   11.28
  -2  -2   4   55.94    9.44
   2   2   4   67.29    6.21
   2  -2  -4   79.66   12.22
  -2   2   4   37.80    6.03
  -2   2  -4   82.04   12.76
   2  -2   4   38.92    7.74
  -2  -2  -4   59.26    7.60
   2   2   4   60.85    9.37
   2  -2  -4   72.85   10.19
  -2  -2   4   69.73    6.40
  -2   2   4   46.09    8.95
  -2  -2   4   77.62    9.79
  -2   2  -5   71.03   15.27
   2   2  -5   45.41    5.42
  -2  -2  -5   63.35   14.66
  -2  -2   5   50.79    9.39
   2   2   5   46.16    9.21
   2  -2  -5   70.92   11.24
  -2   2  -5   66.63   10.31
  -2  -2  -5   60.89   14.19
   2  -2  -5   70.17    9.38
  -2   2   5   48.82    9.51
  -2  -2   5   56.70    6.62
  -2  -2   5   59.76   14.14
  -2   2  -6    5.79    4.23
   2   2  -6    3.86    3.64
  -2  -2  -6    1.89    2.93
   2  -2  -6    4.66    2.49
  -2   2  -6    5.69    2.57
  -2  -2   6    2.46    0.63
  -2  -2  -6    2.66    2.95
   2  -2  -6    4.56    2.66
  -2   2   6    0.45    1.87
  -2  -2   6    1.39    2.35
  -2   2  -7  193.83   24.36
   2   2  -7  177.71   24.81
  -2  -2  -7  193.23   14.16
   2  -2  -7  210.15   31.86
  -2   2  -7  184.40   13.10
  -2  -2   7  170.95   11.72
  -2  -2  -7  193.34   23.05
   2  -2  -7  176.46   12.07
  -2   2   7  165.37   11.75
  -2   2  -8    3.17    3.28
   2   2  -8   15.41    4.15
  -2  -2  -8   11.29    3.19
   2  -2  -8   -2.82    4.21
  -2   2  -8    7.23    2.41
  -2  -2   8    6.29    1.47
  -2  -2  -8   13.15    4.04
   2  -2  -8    9.23    2.49
  -2   2   8    8.57    3.12
  -2   2  -9   12.81    3.78
   2   2  -9   28.69    8.84
  -2  -2  -9   23.06    4.24
   2  -2  -9   26.08    6.11
  -2   2  -9   21.78    5.37
  -2  -2  -9   28.45    6.21
  -2  -2   9   18.92    4.41
   2  -2  -9   18.76    4.94
  -2   2   9   20.17    4.52
  -2   2 -10   32.18    7.50
   2   2 -10   43.41    7.58
  -2  -2 -10   46.24   11.25
   2  -2 -10   32.61    6.52
  -2   2 -10   40.67    8.67
  -2  -2 -10   35.20    8.32
   2  -2 -10   25.66    7.08
  -2  -2  10   21.41    5.80
  -2   2  10   20.69    5.97
  -2   2 -11  117.86   31.77
   2   2 -11  104.26   16.64
  -2  -2 -11  112.26   17.65
   2  -2 -11   84.82   18.37
  -2   2 -11  119.64   28.01
  -2  -2 -11   99.15   18.89
   2  -2 -11  107.93    9.39
  -2  -2  11   89.19    4.95
  -2   2 -12  327.43   12.35
   2   2 -12  355.39   13.71
  -2  -2 -12  315.86   12.24
   2  -2 -12  358.54   14.20
  -2   2 -12  366.14   78.81
  -2  -2 -12  367.89   77.92
   2  -2 -12  365.18   77.03
  -2  -2  12  344.55    6.44
  -2   2 -13  524.16   29.60
   2   2 -13  589.99   56.90
  -2  -2 -13  549.30   30.84
   2  -2 -13  536.78   30.80
  -2   2 -13  555.15   29.09
   2  -2 -13  561.44   40.91
  -2  -2 -13  595.94   49.28
  -2   2 -14   11.54    4.40
   2   2 -14    6.56    3.03
  -2  -2 -14    8.78    3.96
   2  -2 -14   15.13    6.13
  -2   2 -14   18.56    4.37
   2  -2 -14    9.25    2.26
  -2  -2 -14    9.68    3.38
  -2   2 -15   70.85   11.55
   2   2 -15   77.89   25.75
  -2  -2 -15   88.57   14.08
   2  -2 -15   76.98   17.89
  -2   2 -15   68.35   10.50
   2  -2 -15   60.95   13.78
  -2  -2 -15   88.52   11.12
  -2   2 -16   27.97    7.26
   2   2 -16   31.43   10.00
  -2  -2 -16   19.00    5.63
   2  -2 -16   29.91   10.79
  -2  -2 -16   29.94    6.76
  -2   2 -17   10.39    2.66
   2   2 -17   13.34    6.10
  -2  -2 -17   10.56    4.45
   2  -2 -17   -2.33    5.13
  -2  -2 -17    1.59    2.54
  -2   2 -18   11.82    6.70
   2   2 -18   17.79    5.62
  -2  -2 -18   10.83    5.33
   2  -2 -18   -2.50    6.03
  -2  -2 -18    9.99    3.27
  -2   2 -19    4.16    3.92
   2   2 -19   16.20    6.98
  -2  -2 -19   14.12    7.26
   2  -2 -19    8.95    4.93
  -2  -2 -19    6.51    3.18
  -2   2 -20    8.61    5.21
   2   2 -20   10.73    4.53
  -2  -2 -20    5.65    3.16
   2  -2 -20   20.75    8.42
  -2  -2  20    5.11    5.21
   2   3   0   36.38    4.98
  -2   3   0   40.52    8.63
   2  -3   0   25.11    5.02
  -2  -3   0   31.94    4.14
  -2  -3   0   36.58    5.92
   2   3   0   31.90    6.35
  -2  -3   0   29.71    5.89
   2   3   0   34.67    6.73
  -2  -3  -1  671.97   14.38
  -2   3   1  652.52   15.50
   2  -3  -1  661.50   15.92
   2   3  -1  651.10   14.35
  -2  -3  -1  685.49   14.78
  -2  -3  -1  686.89   16.67
   2   3   1  720.53   17.13
  -2  -3   1  721.66   18.69
   2   3  -1  651.60   15.70
  -2  -3  -1  699.07   16.59
   2   3  -1  642.55   16.89
  -2   3   2  601.07   14.95
   2  -3  -2  531.32   13.65
  -2   3  -2  567.05   14.03
   2   3  -2  594.02   15.32
  -2  -3   2  580.15   13.16
  -2  -3  -2  621.60   14.27
   2   3   2  594.09   13.34
  -2  -3  -2  616.04   15.54
   2   3   2  574.68   14.44
   2   3  -2  567.85   13.75
   2  -3  -2  580.93   14.64
   2   3   2  606.83   14.75
  -2  -3   2  600.68   15.02
   2   3  -2  581.23   14.21
  -2   3  -3  331.67   10.14
   2   3  -3  318.95    9.55
  -2  -3   3  316.67    8.40
   2   3   3  306.94    8.01
   2  -3  -3  277.17    9.88
  -2  -3  -3  303.86    9.18
   2   3   3  294.17    8.73
   2  -3  -3  318.90    9.49
   2   3  -3  318.23    8.55
  -2   3   3  324.54    9.23
  -2   3  -4  379.36   11.20
  -2  -3   4  371.16    9.94
   2   3   4  370.84    9.87
   2  -3  -4  396.53   12.89
  -2  -3   4  392.63   11.79
  -2   3   4  421.16   11.10
  -2  -3   4  387.38   11.08
  -2   3  -5  239.86   16.75
   2   3  -5  250.77   19.35
  -2  -3  -5  224.99   15.52
   2   3   5  208.10   14.13
   2  -3  -5  218.23   15.57
  -2  -3  -5  232.93   16.86
   2  -3  -5  237.45   16.06
  -2   3   5  234.98   19.38
  -2  -3   5  240.28   16.01
  -2  -3   5  218.02   15.19
  -2   3  -6  330.08   16.61
   2   3  -6  345.40   17.04
  -2  -3  -6  323.93   16.17
   2  -3  -6  287.83   20.08
  -2  -3  -6  357.54   21.36
   2  -3  -6  335.30   15.81
  -2   3   6  328.82   24.75
  -2  -3   6  339.17   15.76
  -2  -3   6  298.81   15.35
  -2   3  -7  131.76   11.78
   2   3  -7  121.32   19.59
  -2  -3  -7  114.30   20.65
   2  -3  -7  114.53   16.75
  -2  -3   7  130.24   11.39
  -2  -3  -7  132.04   13.98
   2  -3  -7  147.74   10.46
  -2   3   7  117.16    9.48
  -2  -3   7  122.91   10.53
  -2   3  -8  450.14   23.35
   2   3  -8  388.40   20.33
  -2  -3  -8  391.00   20.60
   2  -3  -8  365.14   19.71
  -2  -3   8  436.47   21.29
  -2  -3  -8  415.56   21.56
   2  -3  -8  450.16   22.57
  -2   3   8  398.62   19.68
  -2  -3   8  481.26   24.99
  -2   3  -9  116.67   22.45
   2   3  -9  128.27   19.33
  -2  -3  -9  136.44   25.92
   2  -3  -9  100.99   17.59
  -2  -3   9   93.48    9.91
  -2  -3  -9  150.46   12.00
   2  -3  -9  110.82   11.37
  -2  -3   9  134.74   19.72
  -2   3 -10   12.66    6.49
   2   3 -10    7.03    6.37
  -2  -3 -10   12.91    6.53
   2  -3 -10   23.79    7.67
  -2  -3  10    6.74    1.93
  -2  -3 -10   10.68    2.64
   2  -3 -10   14.25    3.64
  -2   3 -11   98.41   22.20
   2   3 -11  109.51   20.71
  -2  -3 -11   92.83   18.40
   2  -3 -11   81.88   16.00
  -2  -3  11   64.21    7.25
  -2  -3 -11   80.41   15.42
   2  -3 -11   86.74   11.73
  -2   3 -12   87.15   20.00
   2   3 -12   98.63   14.50
  -2  -3 -12   83.03    8.60
   2  -3 -12   81.28   15.29
  -2  -3 -12   87.71   12.44
   2  -3 -12   82.79    8.56
  -2   3 -13   48.10    9.56
   2   3 -13   40.63    9.67
  -2  -3 -13   33.13    9.24
   2  -3 -13   73.35   12.85
  -2  -3 -13   37.33    6.31
   2  -3 -13   43.44    9.18
  -2   3 -14   40.48   15.50
   2   3 -14   32.79    6.34
  -2  -3 -14   25.66    6.72
   2  -3 -14   35.46    8.11
  -2  -3 -14   38.02    7.07
   2  -3 -14   24.91    6.05
  -2   3 -15   52.63   10.14
   2   3 -15   47.62   10.56
  -2  -3 -15   44.02    7.24
   2  -3 -15   47.21    8.32
   2  -3 -15   33.23    8.06
  -2  -3 -15   35.30    7.17
  -2   3 -16   29.40    8.12
   2   3 -16   27.03    7.74
  -2  -3 -16   23.08    6.96
   2  -3 -16   24.77    7.84
   2  -3 -16   24.63    8.34
  -2  -3 -16   38.30    9.20
  -2   3 -17   23.56    5.58
   2   3 -17   13.89    4.52
  -2  -3 -17   15.92    5.92
   2  -3 -17   23.20    6.71
  -2  -3 -17   20.70    5.40
  -2  -3  17   17.71    6.48
  -2   3 -18    2.35    2.55
   2   3 -18   -2.72    4.64
  -2  -3 -18    5.38    5.18
   2  -3 -18    9.21    4.85
  -2  -3 -18    2.16    3.06
  -2  -3  18    7.04    5.07
  -2   3 -19   13.07    4.84
   2   3 -19   14.34    7.48
  -2  -3 -19    4.75    4.42
   2  -3 -19   -3.75    5.62
  -2  -3 -19    4.11    2.08
  -2  -3  19   15.75    4.63
  -2   3 -20   16.70    9.81
   2   3 -20   15.96    4.71
  -2  -3 -20   21.28    6.66
   2  -3 -20   13.03    8.16
  -2  -3  20   18.04    5.97
   2   4   0   19.18    4.36
  -2   4   0   28.07    5.66
   2  -4   0   17.18    4.50
  -2  -4   0   15.43    3.64
  -2  -4   0   19.24    3.96
   2   4   0   16.13    4.22
  -2  -4   0   18.67    6.05
   2   4   0   14.16    3.53
   2  -4   0   18.75    3.58
  -2   4   1  238.52    7.90
  -2  -4  -1  224.78    6.38
  -2   4  -1  239.14    8.03
   2   4  -1  235.07    6.15
  -2  -4   1  224.32    5.93
  -2  -4  -1  235.28    7.21
  -2  -4  -1  217.56    8.28
  -2  -4   1  237.70   10.12
   2   4   1  205.79    7.50
   2   4  -1  219.91    7.65
   2  -4  -1  226.18    8.22
   2  -4  -1  228.88    5.18
  -2  -4  -1  238.21    7.65
   2   4   1  202.60    7.02
  -2  -4   1  225.61    7.40
   2   4  -1  232.71    7.58
  -2   4   1  223.62    5.01
   2  -4   1  217.52    5.99
  -2  -4  -2   34.63    3.97
  -2   4   2   42.44    9.39
  -2   4  -2   42.96    7.85
   2   4  -2   34.99    4.53
  -2  -4   2   34.01    7.02
  -2  -4  -2   45.76    8.94
  -2  -4  -2   41.67    7.48
  -2  -4   2   41.53   10.04
   2   4  -2   31.70    9.42
   2  -4  -2   38.94    7.40
  -2  -4  -2   45.31   10.40
   2   4   2   26.33    6.16
  -2   4   2   37.27    3.67
  -2  -4   2   38.31    8.84
  -2   4   3  103.54    9.95
  -2   4  -3   94.75    8.84
   2   4  -3   86.69    9.25
  -2  -4   3   90.14    7.74
   2   4   3   89.82   11.35
  -2  -4  -3   98.86    9.69
   2  -4  -3  111.17   15.46
   2   4  -3   77.50   12.21
  -2   4   3   84.09   11.87
  -2  -4   3  101.35    9.36
  -2   4  -4  378.00   18.30
   2   4  -4  379.64   17.83
  -2  -4   4  343.96   16.18
   2   4   4  353.17   16.54
   2  -4  -4  369.06   18.28
  -2  -4  -4  416.69   20.11
   2  -4  -4  378.21   18.36
  -2   4   4  354.73   22.10
  -2  -4   4  345.51   17.05
  -2   4  -5  224.79   15.90
   2   4  -5  255.53   17.41
  -2  -4  -5  224.43   17.68
   2  -4  -5  226.66   16.04
  -2  -4  -5  263.76   19.61
   2  -4  -5  239.87   26.18
  -2  -4   5  223.33   15.30
  -2   4   5  253.13   17.24
  -2  -4   5  209.40   14.94
  -2   4  -6  478.35   23.14
   2   4  -6  490.31   23.28
  -2  -4  -6  433.55   20.80
   2  -4  -6  522.11   25.44
  -2  -4  -6  451.47   21.93
   2  -4  -6  505.86   23.67
  -2  -4   6  496.89   23.81
  -2  -4   6  489.31   24.58
  -2   4  -7  285.61   24.25
   2   4  -7  251.67   25.10
   2  -4  -7  294.42   19.28
  -2  -4  -7  245.62   15.78
   2  -4  -7  299.85   15.53
  -2  -4   7  284.38   14.44
  -2  -4   7  285.95   21.21
  -2   4  -8  606.45   30.42
   2   4  -8  569.92   28.69
  -2  -4  -8  566.72   28.47
   2  -4  -8  617.35   31.84
  -2  -4   8  560.59   27.89
  -2  -4  -8  599.84   30.70
   2  -4  -8  626.95   30.60
  -2  -4   8  583.95   28.41
  -2  -4   8  588.83   30.20
  -2   4  -9   63.78   12.73
   2   4  -9   55.02   13.70
  -2  -4  -9   68.40   16.06
   2  -4  -9   73.17   13.96
  -2  -4   9   56.24    9.96
  -2  -4  -9   70.21   14.91
   2  -4  -9   64.67    8.21
  -2  -4   9   70.90   15.38
  -2   4 -10   23.15    4.63
   2   4 -10   15.55    4.46
  -2  -4 -10    9.50    4.71
   2  -4 -10   12.03    6.52
  -2  -4 -10   17.72    3.38
   2  -4 -10    9.03    2.49
  -2  -4  10   11.88    3.75
  -2   4 -11   74.90   11.07
   2   4 -11   76.02    9.60
  -2  -4 -11   78.88   11.32
   2  -4 -11   78.03   14.82
  -2  -4 -11   85.81   16.44
   2  -4 -11   88.73    7.96
  -2  -4  11   77.48   17.34
  -2   4 -12   15.18    5.19
   2   4 -12    5.88    2.65
  -2  -4 -12   12.06    5.97
   2  -4 -12   13.29    5.02
  -2  -4 -12    4.52    2.09
   2  -4 -12    7.83    2.71
  -2  -4  12   14.16    6.62
  -2   4 -13   12.95    3.77
   2   4 -13   29.21    6.02
  -2  -4 -13   10.12    5.32
   2  -4 -13   31.47    9.45
  -2  -4 -13   24.24    4.57
   2  -4 -13   21.89    4.43
  -2  -4  13   27.27    6.28
  -2   4 -14   52.35   12.30
   2   4 -14   38.38   12.64
  -2  -4 -14   75.44    9.69
   2  -4 -14   36.07    7.54
  -2  -4 -14   56.98   14.92
   2  -4 -14   45.73   11.58
  -2  -4  14   45.51   10.61
  -2   4 -15   28.01    7.26
   2   4 -15    4.58    4.51
  -2  -4 -15   10.40    4.45
   2  -4 -15    8.54    8.60
  -2  -4 -15    5.46    2.32
   2  -4 -15    8.65    3.12
  -2  -4  15   22.46    6.33
  -2   4 -16   95.27   22.69
   2   4 -16  120.77   28.71
  -2  -4 -16   99.78   18.48
   2  -4 -16  115.55   29.84
   2  -4 -16   98.53   12.43
  -2  -4 -16  104.09   18.25
  -2  -4  16  119.35   23.53
  -2   4 -17   17.84    5.90
   2   4 -17   29.70    9.75
  -2  -4 -17   31.79   11.66
   2  -4 -17   33.55    9.81
  -2  -4 -17   37.51   12.23
  -2  -4  17   41.15   10.99
  -2   4 -18   14.25    8.56
   2   4 -18    4.02    2.22
  -2  -4 -18    7.51    5.44
   2  -4 -18    2.92    4.14
  -2  -4 -18    3.70    2.13
  -2  -4  18   -0.67    4.41
  -2   4 -19   15.73    4.84
   2   4 -19   38.69    8.44
  -2  -4 -19   30.62    5.25
   2  -4 -19   16.83    6.71
  -2  -4 -19   19.40    7.10
  -2  -4  19   14.18    6.61
  -2   4 -20   26.59    8.11
   2   4 -20   25.30    7.98
  -2  -4 -20   23.92    7.30
   2  -4 -20   28.20    6.81
  -2  -4  20   20.37    6.80
   2   5   0  112.27   10.05
  -2   5   0  136.65   22.13
  -2  -5   0  125.30   10.66
  -2  -5   0  131.71   18.17
   2  -5   0  133.11   23.20
  -2  -5   0  121.91   11.55
   2  -5   0  111.51    9.07
   2   5   1   52.29   10.28
  -2   5   1   65.06   13.73
  -2  -5  -1   57.70    5.82
  -2   5  -1   50.89    9.68
   2   5  -1   64.21    6.24
  -2  -5   1   42.98    4.95
  -2  -5  -1   78.07   13.64
  -2  -5   1   53.33   14.41
   2  -5  -1   50.54   10.07
   2  -5  -1   50.61    4.78
  -2  -5  -1   67.22   13.47
  -2  -5   1   51.56   11.81
   2  -5   1   67.42    8.26
  -2   5   1   67.94    5.90
  -2   5   2  582.75   26.83
  -2  -5  -2  556.82   24.86
  -2   5  -2  556.56   25.70
   2   5  -2  592.40   26.49
  -2  -5   2  556.51   24.94
  -2  -5  -2  578.53   26.47
  -2  -5  -2  518.46   24.55
  -2  -5   2  636.53   29.76
   2  -5  -2  593.32   28.91
  -2  -5  -2  601.45   27.56
  -2   5   2  589.27   25.81
  -2  -5   2  596.71   27.43
   2  -5   2  577.20   26.25
  -2   5   3  179.77   20.64
  -2  -5  -3  143.64   13.15
  -2   5  -3  177.49   17.53
   2   5  -3  160.65   11.10
  -2  -5   3  153.33   15.45
  -2  -5  -3  133.13    9.37
  -2  -5  -3  166.03   12.16
  -2  -5   3  171.59   12.75
   2  -5  -3  179.16   25.93
  -2   5   3  155.78   10.20
  -2  -5   3  164.07   13.03
  -2   5  -4  142.68   15.23
   2   5  -4  126.98   11.73
  -2  -5   4  118.74   10.86
   2  -5  -4  162.48   24.83
   2   5   4  125.66   15.44
  -2  -5  -4  139.41   26.26
   2  -5  -4  174.36   23.73
  -2  -5   4  149.11   15.56
  -2  -5   4  156.10   12.09
  -2   5  -5  564.56   26.70
   2   5  -5  590.47   27.40
  -2  -5  -5  521.23   25.57
   2  -5  -5  560.63   27.58
  -2  -5  -5  550.41   26.44
   2  -5  -5  536.04   25.49
  -2  -5   5  554.68   26.42
  -2   5  -6  370.67   20.71
   2   5  -6  384.55   19.58
  -2  -5  -6  381.09   19.39
   2  -5  -6  417.56   22.15
  -2  -5  -6  403.11   22.23
   2  -5  -6  383.06   19.87
  -2  -5   6  384.14   19.87
  -2   5  -7  449.39   24.71
   2   5  -7  437.00   22.28
  -2  -5  -7  412.89   23.52
   2  -5  -7  461.93   24.28
  -2  -5  -7  435.12   23.88
   2  -5  -7  455.59   23.07
  -2  -5   7  447.02   22.23
  -2  -5   7  439.59   24.37
  -2   5  -8  193.22   22.09
   2   5  -8  183.16   18.11
  -2  -5  -8  141.73   20.51
   2  -5  -8  183.65   15.48
  -2  -5  -8  193.41   22.81
   2  -5  -8  199.76   18.71
  -2  -5   8  183.82   12.52
  -2  -5   8  199.99   22.92
  -2   5  -9   64.68   15.87
   2   5  -9   65.30   14.17
  -2  -5  -9   60.52   12.34
   2  -5  -9   59.07   12.42
  -2  -5  -9   50.76    8.66
   2  -5  -9   62.58   13.06
  -2  -5   9   49.31    7.29
  -2  -5   9   66.94   12.49
  -2   5 -10  133.25   24.04
   2   5 -10  117.26   27.45
  -2  -5 -10  118.50   32.68
   2  -5 -10  119.60   32.11
  -2  -5 -10  118.73   31.20
   2  -5 -10  121.17   23.45
  -2  -5  10  105.79   15.06
  -2  -5  10  138.22   25.58
  -2   5 -11  121.26   15.60
   2   5 -11  129.76   16.82
  -2  -5 -11  140.45   26.79
   2  -5 -11  142.51   20.11
  -2  -5 -11  107.63   11.73
   2  -5 -11  138.88   11.92
  -2  -5  11  123.98   13.73
  -2  -5  11  132.10   22.78
  -2   5 -12   79.48   11.95
   2   5 -12   72.57   15.87
  -2  -5 -12   65.29   15.20
   2  -5 -12   55.67   15.50
  -2  -5 -12   73.37   10.81
   2  -5 -12   65.72   11.48
  -2  -5  12   89.46   18.23
  -2   5 -13   36.62    9.43
   2   5 -13   37.75    9.75
  -2  -5 -13   29.04    5.79
   2  -5 -13   42.91   11.81
  -2  -5 -13   38.64    9.51
   2  -5 -13   38.54   10.18
  -2  -5  13   52.14   14.32
  -2   5 -14   37.71    9.41
   2   5 -14   27.14    4.64
  -2  -5 -14   47.64    9.05
   2  -5 -14   42.04   12.63
  -2  -5 -14   41.61    7.21
   2  -5 -14   29.71    7.00
  -2  -5  14   28.83    9.03
  -2   5 -15    9.00    5.58
   2   5 -15   24.16    5.06
  -2  -5 -15   11.21    4.14
   2  -5 -15   30.52    9.89
  -2  -5 -15   17.09    4.72
   2  -5 -15   16.62    5.73
  -2  -5  15   18.03    6.66
  -2   5 -16   44.83   10.66
   2   5 -16   34.17   10.70
  -2  -5 -16   27.47   11.56
   2  -5 -16   45.88   13.05
  -2  -5 -16   32.75    8.50
   2  -5 -16   21.92    6.67
  -2  -5  16   29.74   11.31
  -2   5 -17   15.94    5.01
   2   5 -17   23.28    4.68
  -2  -5 -17   29.37   10.45
   2  -5 -17   20.02    7.83
  -2  -5 -17   19.10    6.64
  -2  -5  17   29.55   10.69
  -2   5 -18   21.83    9.75
   2   5 -18   12.27    5.06
  -2  -5 -18   12.22    5.04
   2  -5 -18   12.67    5.79
  -2  -5 -18   16.56    5.53
  -2  -5  18   10.24    5.57
  -2   5 -19    6.65    3.40
   2   5 -19    0.71    2.66
  -2  -5 -19   15.13    7.41
   2  -5 -19    2.99    3.20
  -2  -5 -19    3.51    2.07
  -2  -5  19    4.79    4.35
  -2   5 -20   12.10    6.89
   2   5 -20    8.13    2.42
  -2  -5 -20   17.38    5.21
   2  -5 -20   14.96    5.53
  -2  -5  20    2.69    4.32
   2   6   0  130.44   12.27
  -2   6   0  157.62   18.85
  -2  -6   0  126.60   12.25
  -2  -6   0  147.97   13.10
   2  -6   0  158.65   17.39
  -2  -6   0  149.44   13.43
   2  -6   0  134.55    9.09
   2   6   1  428.41   20.43
  -2   6   1  414.16   19.95
  -2   6  -1  404.33   19.89
   2   6  -1  420.07   19.21
  -2  -6  -1  385.93   17.94
  -2  -6   1  383.66   18.31
  -2  -6  -1  425.76   21.14
  -2  -6   1  443.89   21.94
   2  -6  -1  411.02   20.72
   2  -6   1  380.94   18.90
   2  -6  -1  448.27   20.33
  -2  -6  -1  436.25   28.55
  -2  -6   1  393.13   19.97
   2  -6   1  429.27   19.55
  -2   6   1  406.95   18.18
  -2   6   2  514.15   24.33
  -2  -6  -2  457.58   21.16
  -2   6  -2  525.54   24.89
   2   6  -2  505.66   23.00
  -2  -6   2  516.30   23.43
  -2  -6  -2  509.95   23.38
  -2  -6   2  560.29   26.81
   2  -6  -2  552.82   27.09
  -2  -6  -2  501.11   23.42
  -2  -6   2  562.77   26.35
  -2   6   2  489.52   21.67
   2  -6   2  500.89   23.01
  -2   6   3   82.10   20.50
  -2  -6  -3   49.35   11.03
  -2   6  -3   63.98   13.82
   2   6  -3   68.83   11.78
  -2  -6   3   50.24    8.23
  -2  -6  -3   41.25    4.34
  -2  -6  -3   78.96   17.47
  -2  -6   3   68.99   12.51
   2  -6  -3   76.99   16.17
  -2   6   3   58.82    7.53
  -2  -6   3   67.16   13.70
   2  -6   3   81.12   15.16
  -2   6  -4   44.20    8.79
   2   6  -4   41.92    8.07
   2  -6  -4   53.00   12.60
  -2  -6  -4   44.09    8.11
   2  -6  -4   46.45    8.52
  -2  -6   4   41.01    9.24
  -2   6   4   33.06    4.27
  -2  -6   4   48.82    8.13
   2  -6   4   47.95   10.21
  -2   6  -5   27.59   12.15
   2   6  -5   34.87    6.38
  -2  -6  -5   33.22    8.45
   2  -6  -5   34.01    6.56
  -2  -6  -5   42.81    7.82
   2  -6  -5   28.98    7.26
  -2  -6   5   26.98    8.33
  -2  -6   5   35.08    7.21
  -2   6  -6   26.14    6.35
   2   6  -6   21.26    5.25
  -2  -6  -6   20.94    4.26
   2  -6  -6   27.11    6.99
  -2  -6  -6   23.69    5.40
   2  -6  -6   23.16    7.37
  -2  -6   6   33.49    6.23
  -2   6  -7   98.92   11.81
   2   6  -7   82.77   12.95
  -2  -6  -7  105.35   16.80
   2  -6  -7  106.86   18.82
  -2  -6  -7  103.90   18.47
   2  -6  -7  106.16   20.53
  -2  -6   7  107.53   22.33
  -2   6  -8    4.60    5.10
   2   6  -8    2.58    2.34
  -2  -6  -8    6.74    4.48
   2  -6  -8    3.76    3.78
  -2  -6  -8   11.32    3.08
   2  -6  -8   -2.74    3.69
  -2  -6   8    3.82    5.10
  -2   6  -9   40.36   10.82
   2   6  -9   58.50   12.31
  -2  -6  -9   48.08   11.09
   2  -6  -9   62.28    9.32
  -2  -6  -9   50.76   13.56
   2  -6  -9   41.76    8.56
  -2  -6   9   52.17   15.92
  -2  -6   9   47.52   10.45
  -2   6 -10  217.92   26.57
   2   6 -10  219.50   15.18
   2  -6 -10  234.13   28.33
  -2  -6 -10  251.97   15.36
   2  -6 -10  234.02   23.88
  -2  -6  10  194.02   24.70
  -2  -6  10  228.37   41.50
  -2   6 -11  214.58   18.49
   2   6 -11  200.52   25.14
   2  -6 -11  244.52   31.81
  -2  -6 -11  235.18   20.52
   2  -6 -11  231.81   24.15
  -2  -6  11  188.28   25.61
  -2  -6  11  267.12   37.05
  -2   6 -12   25.76    5.74
   2   6 -12   26.58    6.45
  -2  -6 -12   22.23    5.89
   2  -6 -12   13.49   10.32
  -2  -6 -12   26.31    7.49
   2  -6 -12   20.79    5.59
  -2  -6  12   19.48    5.79
  -2  -6  12   36.96    8.61
  -2   6 -13   31.44   12.57
   2   6 -13   43.87    8.39
  -2  -6 -13   34.37    8.41
   2  -6 -13   35.20    9.39
  -2  -6 -13   48.52   12.52
   2  -6 -13   29.82    7.16
  -2  -6  13   28.61    7.80
  -2  -6  13   66.24   16.74
  -2   6 -14   72.76   18.77
   2   6 -14   77.26   12.15
  -2  -6 -14   56.36   10.99
   2  -6 -14   92.70   19.25
  -2  -6 -14   72.35   11.65
   2  -6 -14   70.15    7.63
  -2  -6  14   67.99   12.59
  -2  -6  14   91.41   21.38
  -2   6 -15   44.81    7.46
   2   6 -15   28.10   10.76
  -2  -6 -15   26.67    7.73
   2  -6 -15   27.89    5.86
  -2  -6 -15   28.72    7.89
   2  -6 -15   26.43    8.49
  -2  -6  15   23.56    5.66
  -2  -6  15   29.05    7.60
  -2   6 -16   15.49    5.56
   2   6 -16    7.64    3.99
  -2  -6 -16   27.86    8.17
   2  -6 -16   11.93    5.36
  -2  -6 -16   14.76    4.10
   2  -6 -16    6.77    3.09
  -2  -6  16    3.22    4.69
  -2   6 -17   -0.98    4.76
   2   6 -17   13.18    5.79
  -2  -6 -17    9.72    4.77
   2  -6 -17    7.36    4.48
  -2  -6 -17    7.49    4.24
  -2  -6  17   13.68    7.11
  -2   6 -18    3.30    2.44
   2   6 -18    7.10    5.46
  -2  -6 -18    8.01    4.69
   2  -6 -18   12.88    7.34
  -2  -6 -18    3.01    2.82
  -2  -6  18    9.68    5.94
  -2   6 -19    5.02    2.33
   2   6 -19    3.21    4.05
  -2  -6 -19   11.83    6.33
   2  -6 -19    4.36    4.13
  -2  -6 -19    7.32    3.42
  -2  -6  19   10.23    4.76
   2   7   0   11.02    2.34
  -2   7   0   10.90    2.54
  -2  -7   0    7.63    1.78
  -2  -7   0   13.54    3.74
   2  -7   0    8.78    3.97
  -2  -7   0   12.03    3.07
   2  -7   0   13.57    2.68
   2   7   1  205.37   14.34
  -2   7   1  202.54   14.42
   2   7  -1  205.00   14.42
  -2   7  -1  200.12   15.45
  -2  -7  -1  177.28   15.80
  -2  -7   1  185.58   18.37
  -2  -7  -1  217.99   16.49
  -2  -7   1  204.10   15.75
   2  -7  -1  207.44   18.68
   2  -7   1  191.75   16.02
  -2  -7  -1  206.28   16.79
   2  -7  -1  228.14   15.38
  -2  -7   1  191.37   14.39
   2  -7   1  206.56   15.10
  -2   7   1  185.14   12.27
  -2   7   2  432.71   21.84
  -2  -7  -2  439.46   21.17
  -2   7  -2  427.31   23.43
   2   7  -2  456.40   22.45
  -2  -7  -2  476.42   23.11
  -2  -7  -2  479.13   32.56
  -2  -7   2  456.51   23.68
   2  -7  -2  431.31   23.02
   2  -7   2  452.98   29.93
  -2  -7  -2  488.44   39.87
  -2  -7   2  428.24   21.69
  -2   7   2  440.18   21.23
   2  -7   2  478.95   23.97
  -2   7   3  326.54   17.78
  -2   7  -3  294.96   15.88
   2   7  -3  367.08   19.56
  -2  -7  -3  346.99   19.45
  -2  -7   3  351.60   19.44
   2  -7  -3  322.73   18.45
  -2   7   3  324.67   15.50
  -2  -7   3  311.34   16.39
   2  -7   3  325.49   18.80
  -2   7  -4  180.31   12.06
   2   7  -4  207.61   19.66
   2  -7  -4  197.71   24.72
  -2  -7  -4  234.72   26.28
   2  -7  -4  203.81   28.89
  -2  -7   4  186.97   13.76
  -2   7   4  170.21   13.85
  -2  -7   4  190.03   15.44
   2  -7   4  188.50   15.10
  -2   7  -5  167.00   26.95
   2   7  -5  179.87   12.74
  -2  -7  -5  131.18    9.41
   2  -7  -5  174.42   31.98
  -2  -7  -5  165.90   14.35
   2  -7  -5  188.82   16.76
  -2  -7   5  166.83   26.55
  -2   7   5  133.54   14.79
  -2  -7   5  160.40   12.02
   2  -7   5  149.00   13.29
  -2   7  -6  242.39   26.39
   2   7  -6  229.04   15.71
  -2  -7  -6  252.30   34.20
   2  -7  -6  261.51   19.59
  -2  -7  -6  264.92   39.36
   2  -7  -6  226.18   16.80
  -2  -7   6  242.83   17.17
  -2   7   6  196.55   12.38
  -2  -7   6  265.06   32.79
   2  -7   6  264.16   23.34
  -2   7  -7  132.98   23.10
   2   7  -7   99.51   13.28
  -2  -7  -7  117.63   17.05
   2  -7  -7  129.20   27.90
  -2  -7  -7  120.64   17.19
   2  -7  -7  120.52   16.63
  -2  -7   7  136.81   30.18
  -2  -7   7  150.72   15.17
  -2   7  -8   28.26    7.12
   2   7  -8   26.07    4.47
  -2  -7  -8   28.89    6.69
   2  -7  -8   19.85    5.94
  -2  -7  -8   36.49    7.03
   2  -7  -8   20.06    6.94
  -2  -7   8   34.73    7.79
  -2   7  -9  143.91   22.05
   2   7  -9   90.88   19.86
  -2  -7  -9  104.55   15.37
   2  -7  -9  132.51   28.58
  -2  -7  -9  160.51   14.01
   2  -7  -9  111.27   26.61
  -2  -7   9  135.01   17.70
  -2   7 -10  213.43   21.09
   2   7 -10  223.88   25.41
  -2  -7 -10  205.99   31.64
   2  -7 -10  229.10   37.96
  -2  -7 -10  272.71   19.59
   2  -7 -10  209.70   18.36
  -2  -7  10  203.10   31.37
  -2  -7  10  252.18   22.77
  -2   7 -11   28.28    8.77
   2   7 -11   23.90    6.57
  -2  -7 -11   22.17    6.52
   2  -7 -11   13.36    6.04
  -2  -7 -11   15.38    3.93
   2  -7 -11   28.89    4.99
  -2  -7  11   24.15    5.71
  -2  -7  11   31.08    8.70
  -2   7 -12    9.30    4.57
   2   7 -12    5.70    3.70
  -2  -7 -12    5.09    3.62
   2  -7 -12   -1.26    6.13
  -2  -7 -12   14.17    4.14
   2  -7 -12    2.14    3.60
  -2  -7  12    3.74    2.26
  -2  -7  12    9.83    5.75
  -2   7 -13   76.73   13.94
   2   7 -13   60.46    8.98
  -2  -7 -13   69.29   11.58
   2  -7 -13   68.15   23.93
  -2  -7 -13   62.21   11.44
   2  -7 -13   60.63   11.47
  -2  -7  13   48.42   12.59
  -2  -7  13   70.05   16.64
  -2   7 -14   60.47   13.25
   2   7 -14   73.14   17.70
  -2  -7 -14   56.90   13.62
   2  -7 -14   61.48   16.20
  -2  -7 -14   62.92   13.02
   2  -7 -14   50.17   16.74
  -2  -7  14   46.75   13.62
  -2  -7  14   73.48   21.28
  -2   7 -15    7.46    2.78
   2   7 -15    8.98    5.26
  -2  -7 -15   10.77    4.69
   2  -7 -15    9.34    4.16
  -2  -7 -15    7.21    2.33
   2  -7 -15    9.85    3.53
  -2  -7  15    2.20    1.62
  -2  -7  15    5.44    3.45
  -2   7 -16   11.16    4.79
   2   7 -16   14.29    5.22
  -2  -7 -16    9.90    4.50
   2  -7 -16    6.78    4.61
  -2  -7 -16    7.00    3.14
   2  -7 -16    6.37    3.42
  -2  -7  16    7.24    4.72
  -2   7 -17   11.91    4.27
   2   7 -17   12.36    4.31
  -2  -7 -17   24.29    7.13
   2  -7 -17   17.98    7.09
  -2  -7 -17    8.44    6.71
  -2  -7  17   10.69    5.22
  -2   7 -18   33.68    9.20
   2   7 -18   30.36   14.08
  -2  -7 -18   33.83    9.08
   2  -7 -18   31.23   14.41
  -2  -7 -18   31.71   10.31
  -2  -7  18   38.37   11.96
  -2   7 -19    9.75    6.07
   2   7 -19   14.66    5.75
  -2  -7 -19    8.98    5.50
   2  -7 -19    7.10    5.24
  -2  -7 -19    3.81    2.31
  -2  -7  19    8.60    4.26
   2   8   0    4.55    1.84
  -2   8   0    4.80    1.99
  -2  -8   0    3.10    3.28
   2  -8   0    5.17    2.55
  -2  -8   0    3.52    1.40
   2  -8   0    0.18    1.23
   2   8   1   17.31    3.99
  -2   8   1   23.22    4.94
   2   8  -1   17.80    5.48
  -2   8  -1   21.56    5.41
  -2  -8  -1   32.74    5.74
  -2  -8   1   21.51    6.23
   2  -8  -1   16.54    5.28
   2  -8   1   22.83    5.78
   2  -8  -1   21.27    5.32
  -2  -8  -1   27.83    5.23
  -2  -8   1   15.52    4.27
   2  -8   1   21.51    4.45
  -2   8   1   17.71    4.33
   2   8   2   79.56   11.70
  -2   8   2   92.64   17.46
  -2   8  -2   78.63   15.56
   2   8  -2   78.11   12.75
  -2  -8  -2  102.73   18.36
  -2  -8   2  103.13   22.21
   2  -8  -2   78.11   17.85
   2  -8   2   92.14   21.15
  -2  -8  -2   88.43    8.78
  -2  -8   2   83.01    8.62
   2  -8   2   90.22    8.45
  -2   8   2   76.52    8.35
  -2   8   3  266.11   18.11
  -2   8  -3  277.64   26.81
   2   8  -3  282.95   14.78
  -2  -8  -3  277.55   39.35
  -2  -8   3  271.66   16.97
   2  -8  -3  251.69   27.45
   2  -8   3  275.44   33.32
  -2  -8   3  253.76   14.45
  -2   8   3  248.26   14.53
   2  -8   3  292.45   22.59
  -2   8   4  401.52   34.85
  -2   8  -4  341.97   23.08
   2   8  -4  365.98   24.35
   2  -8  -4  366.43   29.60
  -2  -8   4  354.70   27.26
   2  -8   4  345.43   25.10
  -2   8   4  337.66   20.34
  -2  -8   4  359.58   23.16
   2  -8   4  341.39   26.42
  -2   8  -5  270.18   25.26
   2   8  -5  266.12   24.26
  -2  -8  -5  200.76   17.39
   2  -8  -5  248.07   34.03
  -2  -8  -5  284.06   38.84
   2  -8  -5  267.96   22.63
  -2  -8   5  243.41   17.58
  -2   8   5  208.08   14.27
  -2  -8   5  231.35   15.92
   2  -8   5  262.19   17.28
  -2   8  -6  332.45   22.50
   2   8  -6  368.62   31.55
  -2  -8  -6  335.89   22.68
   2  -8  -6  324.31   26.67
  -2  -8  -6  342.14   26.67
   2  -8  -6  318.93   23.75
  -2  -8   6  350.63   28.91
  -2  -8   6  386.62   35.77
   2  -8   6  314.89   24.38
  -2   8  -7   80.83   14.55
   2   8  -7   68.11   13.96
  -2  -8  -7   69.31   12.85
   2  -8  -7   76.48   11.70
  -2  -8  -7   68.51   17.19
   2  -8  -7   63.85   11.28
  -2  -8   7   77.15   19.15
  -2  -8   7   69.99   14.09
   2  -8   7   74.17   15.07
  -2   8  -8  201.74   33.00
   2   8  -8  199.22   14.19
  -2  -8  -8  225.24   38.95
   2  -8  -8  232.24   31.82
  -2  -8  -8  222.53   36.42
   2  -8  -8  190.88   18.80
  -2  -8   8  207.13   30.14
  -2  -8   8  193.07   16.81
   2  -8   8  262.21   20.26
  -2   8  -9   35.95    7.56
   2   8  -9   42.73    7.12
  -2  -8  -9   28.64    6.65
   2  -8  -9   30.66   12.89
  -2  -8  -9   40.40    9.47
   2  -8  -9   53.12    9.91
  -2  -8   9   36.71    7.38
  -2  -8   9   56.05   13.82
   2  -8   9   44.57   10.13
  -2   8 -10   44.61    7.52
   2   8 -10   33.76    8.17
  -2  -8 -10   37.34    9.61
   2  -8 -10   49.06   12.41
  -2  -8 -10   31.39    7.02
   2  -8 -10   53.20   10.26
  -2  -8  10   59.63   11.90
   2  -8  10   56.23   10.52
  -2   8 -11   23.64    5.66
   2   8 -11   26.27    6.11
  -2  -8 -11   35.75    7.71
   2  -8 -11   15.69    5.47
  -2  -8 -11   26.05    7.47
   2  -8 -11   26.11    6.14
  -2  -8  11   32.44    6.69
  -2  -8  11   17.13    6.05
   2  -8  11   26.05    6.15
  -2   8 -12   14.75    8.47
   2   8 -12   11.25    4.78
  -2  -8 -12    5.27    3.17
   2  -8 -12   28.99    8.19
  -2  -8 -12    9.99    4.09
   2  -8 -12    6.04    5.01
  -2  -8  12   13.22    5.56
  -2  -8  12   28.79    9.41
   2  -8  12    9.38    4.55
  -2   8 -13    6.18    3.81
   2   8 -13   12.90    4.91
  -2  -8 -13    8.38    3.16
   2  -8 -13   12.10    3.82
  -2  -8 -13    5.06    3.33
   2  -8 -13    6.05    3.72
  -2  -8  13   -1.08    3.00
  -2  -8  13    5.77    5.88
   2  -8  13    6.41    5.68
  -2   8 -14   18.58    4.76
   2   8 -14   24.42    8.45
  -2  -8 -14   27.91    6.67
   2  -8 -14   30.69   11.89
  -2  -8 -14   21.20    5.54
   2  -8 -14   11.73    4.48
  -2  -8  14   13.21    6.61
  -2  -8  14   29.63    5.63
   2  -8  14   16.09    7.14
  -2   8 -15   15.28    6.75
   2   8 -15   13.74    5.12
  -2  -8 -15   12.98    7.30
   2  -8 -15   13.53    5.56
  -2  -8 -15   14.57    6.27
   2  -8 -15    5.84    3.47
  -2  -8  15    9.37    3.36
  -2  -8  15   20.65    9.62
   2  -8  15   25.50    9.15
  -2   8 -16    8.93    5.86
   2   8 -16   15.85    6.33
  -2  -8 -16   21.84    6.20
   2  -8 -16   25.35    7.01
  -2  -8 -16   22.89    8.29
   2  -8 -16   12.93    5.69
  -2  -8  16   18.25    7.73
   2  -8  16   19.57    7.65
  -2   8 -17   11.26    6.25
   2   8 -17   19.34    4.86
  -2  -8 -17   16.82    7.28
   2  -8 -17   17.85    8.44
  -2  -8 -17    9.06    2.80
  -2  -8  17   24.79    6.25
   2  -8  17   13.06    9.52
  -2   8 -18   13.12    6.76
   2   8 -18    9.41    3.90
  -2  -8 -18    8.76    5.71
   2  -8 -18   23.08    9.72
  -2  -8 -18    9.43    4.73
  -2  -8  18   15.92    8.72
   2  -8  18   12.60    3.66
   2   9   0   93.70    6.08
  -2   9   0  113.07   17.34
  -2  -9   0  103.45   24.42
   2  -9   0   99.35   19.10
  -2  -9   0  106.82    8.69
   2  -9   0  103.49   10.82
   2   9   1    5.63    2.37
  -2   9   1    9.91    3.44
   2   9  -1    5.52    3.47
  -2   9  -1    8.70    2.84
  -2  -9  -1    7.95    6.39
  -2  -9   1   10.58    3.38
   2  -9  -1   10.53    4.36
   2  -9   1    6.69    3.76
   2  -9  -1    2.01    1.44
  -2  -9  -1    7.05    2.58
  -2  -9   1    3.76    1.96
   2  -9   1    3.84    2.50
  -2   9   1    0.90    1.32
   2   9   2   26.07    6.10
  -2   9   2   27.99    5.26
   2   9  -2   27.50    7.03
  -2   9  -2   45.09   10.76
  -2  -9  -2   30.59    7.87
  -2  -9   2   24.29    5.61
   2  -9  -2   24.16    5.69
   2  -9   2   35.10    9.10
  -2  -9  -2   22.40    4.26
  -2  -9   2   21.22    5.29
   2  -9   2   26.36    5.94
  -2   9   2   16.25    4.47
  -2   9   3   78.52    9.36
  -2   9  -3   85.92   15.93
   2   9  -3   81.04   14.36
  -2  -9  -3   98.81   20.30
  -2  -9   3   79.41   15.54
   2  -9  -3   92.31   15.03
   2  -9   3   75.78   14.68
  -2  -9   3   94.31   11.95
  -2   9   3   70.59    7.40
   2  -9   3   82.37    7.53
  -2   9   4  450.92   37.21
  -2   9  -4  388.06   25.68
   2   9  -4  506.61   42.10
  -2  -9  -4  539.20   58.15
   2  -9  -4  436.59   29.59
  -2  -9   4  452.49   30.97
   2  -9   4  418.25   28.43
  -2   9   4  407.51   26.18
  -2  -9   4  458.56   31.17
   2  -9   4  493.14   44.44
  -2   9  -5  126.33   26.37
   2   9  -5  101.42   14.65
  -2  -9  -5  122.12   30.91
   2  -9  -5  121.20   31.43
  -2  -9  -5  129.50   23.91
   2  -9  -5  119.70   29.76
  -2  -9   5  132.29   21.56
   2  -9   5  114.52   18.40
  -2   9   5   83.34   10.36
  -2  -9   5  129.31   13.17
   2  -9   5  109.55   16.92
  -2   9  -6   22.30    9.70
   2   9  -6   25.75    7.55
  -2  -9  -6   35.72    5.75
   2  -9  -6   19.26    6.19
  -2  -9  -6   25.94   12.30
   2  -9  -6   13.51    9.28
  -2  -9   6   25.38    5.64
   2  -9   6    8.79    4.34
  -2  -9   6   20.24    5.23
   2  -9   6   31.48    5.61
  -2   9  -7   61.12   11.71
   2   9  -7   57.68   13.79
  -2  -9  -7   79.47   16.19
   2  -9  -7   57.17   11.19
  -2  -9  -7   80.13   18.21
   2  -9  -7   65.62   16.74
  -2  -9   7   66.38   11.65
  -2  -9   7   65.17   11.58
   2  -9   7   54.96   18.11
  -2   9  -8  169.72   15.49
   2   9  -8  156.41   14.07
  -2  -9  -8  144.52   34.94
   2  -9  -8  150.03   24.57
  -2  -9  -8  150.25   27.00
   2  -9  -8  121.51   27.26
  -2  -9   8  130.37   25.70
  -2  -9   8  135.42   17.76
   2  -9   8  160.89   22.85
  -2   9  -9  101.31   26.55
   2   9  -9  106.73   24.38
  -2  -9  -9   92.92   13.63
   2  -9  -9  120.85   28.74
  -2  -9  -9  111.66   14.10
   2  -9  -9  107.34   19.87
  -2  -9   9   94.65   21.88
  -2  -9   9  119.54   15.77
   2  -9   9  127.86   15.25
  -2   9 -10   10.17    4.00
   2   9 -10    2.95    2.16
  -2  -9 -10    8.17    3.56
   2  -9 -10    3.24    6.29
  -2  -9 -10    8.44    6.65
   2  -9 -10    3.05    2.27
  -2  -9  10    7.01    3.65
  -2  -9  10    5.62    2.79
   2  -9  10   11.91    4.55
  -2   9 -11    5.62    4.45
   2   9 -11    4.04    3.44
  -2  -9 -11    5.80    3.27
   2  -9 -11   -4.77    5.37
  -2  -9 -11    2.88    2.48
   2  -9 -11    3.04    3.98
  -2  -9  11    5.62    4.13
   2  -9  11    1.59    3.37
  -2   9 -12    7.28    4.98
   2   9 -12   17.78    6.83
  -2  -9 -12   12.95    4.72
   2  -9 -12   10.48    5.05
  -2  -9 -12   16.82    5.43
   2  -9 -12    9.12    5.16
  -2  -9  12    7.37    5.20
   2  -9  12   12.96    4.27
  -2   9 -13   15.91    7.23
   2   9 -13   15.49    6.22
  -2  -9 -13   18.49    5.04
   2  -9 -13    6.97    6.32
  -2  -9 -13   17.50    5.11
   2  -9 -13   12.52    3.63
  -2  -9  13    6.24    4.26
  -2  -9  13   15.35    5.83
   2  -9  13   13.43    6.78
  -2   9 -14    7.19    4.04
   2   9 -14    9.76    3.29
  -2  -9 -14    3.29    4.03
   2  -9 -14   -0.50    5.76
  -2  -9 -14   14.37    5.37
   2  -9 -14    5.75    4.44
  -2  -9  14    2.27    1.57
  -2  -9  14    7.69    3.76
   2  -9  14   24.02   11.74
  -2   9 -15   42.98    9.65
   2   9 -15   42.32   11.08
  -2  -9 -15   37.38   13.11
   2  -9 -15   57.51   15.05
  -2  -9 -15   45.15   11.02
   2  -9 -15   41.50   13.31
  -2  -9  15   75.01   17.40
   2  -9  15   48.92   16.56
  -2   9 -16   33.87   12.58
   2   9 -16   31.79   13.85
  -2  -9 -16   26.33    7.21
   2  -9 -16   40.70   16.99
  -2  -9 -16   28.73   10.67
   2  -9 -16   28.27   10.25
  -2  -9  16   52.34   14.75
   2  -9  16   44.41   14.18
  -2   9 -17    4.80    3.71
   2   9 -17    5.01    5.32
  -2  -9 -17    7.40    2.88
   2  -9 -17   -0.23    6.14
  -2  -9 -17    6.83    2.62
  -2  -9  17   13.18    6.29
   2  -9  17    4.08    6.42
  -2   9 -18    4.96    4.31
   2   9 -18    4.94    3.07
  -2  -9 -18   -3.99    4.84
   2  -9 -18   11.65    5.17
  -2  -9 -18    2.74    1.87
  -2  -9  18    6.85    4.27
   2  -9  18   10.28    4.03
   2  10   0  342.99   24.28
  -2  10   0  329.70   23.32
  -2 -10   0  317.44   24.09
   2 -10   0  357.76   45.53
  -2 -10   0  358.36   26.55
   2 -10   0  363.48   24.69
   2  10   1  263.27   25.34
  -2  10   1  236.26   21.95
   2  10  -1  236.27   15.96
  -2  10  -1  227.04   16.86
  -2 -10  -1  229.84   38.14
  -2 -10   1  261.27   39.43
   2 -10  -1  266.59   44.92
   2 -10   1  234.35   44.14
   2 -10  -1  276.47   17.85
  -2 -10  -1  217.11   15.39
  -2 -10   1  219.08   16.98
   2 -10   1  227.11   18.66
   2  10   2    4.17    1.42
  -2  10   2   11.91    4.74
   2  10  -2   10.35    3.11
  -2  10  -2   12.38    4.97
  -2 -10  -2    4.58    6.19
  -2 -10   2   11.43    4.20
   2 -10  -2   13.89    6.08
   2 -10   2   16.07    5.47
  -2 -10  -2    8.65    2.99
  -2 -10   2    4.96    2.75
   2 -10   2    4.43    2.87
  -2  10   2    6.57    2.10
  -2  10   3   68.28   11.97
   2  10  -3   67.78    9.24
  -2  10  -3   71.81   15.82
  -2 -10  -3   74.92   15.82
  -2 -10   3   82.35   14.94
   2 -10  -3   52.43   16.73
   2 -10   3   73.71   14.97
  -2 -10   3   55.52   11.83
   2 -10   3   58.90   13.37
  -2  10   3   37.30    7.34
  -2  10   4   75.24   17.30
  -2  10  -4   62.51   11.68
   2  10  -4   76.98   11.46
  -2 -10  -4   76.37   15.32
   2 -10  -4   55.54   12.31
  -2 -10   4   66.25   16.00
   2 -10   4   75.01   10.46
  -2 -10   4   66.33   13.44
  -2  10   4   59.96    7.10
   2 -10   4   77.31   16.06
  -2  10  -5    7.72    3.64
   2  10  -5   15.99    5.29
  -2 -10  -5   12.88    4.99
   2 -10  -5   17.05    7.12
  -2 -10  -5    6.45    5.61
   2 -10  -5   15.49    5.30
  -2 -10   5   11.64    4.73
   2 -10   5   16.39    5.16
  -2 -10   5   21.61    6.42
   2 -10   5    8.27    4.71
  -2  10  -6    5.09    2.54
   2  10  -6    1.40    3.62
  -2 -10  -6    1.53    2.74
   2 -10  -6    4.41    2.58
  -2 -10  -6    7.89    6.29
   2 -10  -6    5.33    3.06
  -2 -10   6    4.45    4.16
   2 -10   6    4.97    4.75
  -2 -10   6    4.60    2.10
   2 -10   6    6.57    3.75
  -2  10  -7   23.03    4.97
   2  10  -7   22.78    9.42
  -2 -10  -7   21.88    7.48
   2 -10  -7   20.46    6.86
  -2 -10  -7   20.26    6.81
   2 -10  -7   13.35    5.61
  -2 -10   7   32.10    8.79
   2 -10   7    5.16    3.88
  -2 -10   7   24.21    9.31
   2 -10   7   22.99    5.17
  -2  10  -8    6.09    2.52
   2  10  -8   12.69    4.46
  -2 -10  -8   10.46    3.02
   2 -10  -8    9.99    4.86
  -2 -10  -8    6.68    5.56
   2 -10  -8   18.65    7.87
  -2 -10   8    6.93    4.42
   2 -10   8   20.24    8.54
  -2 -10   8    5.64    3.35
   2 -10   8   13.79    5.04
  -2  10  -9   16.51    6.04
   2  10  -9    1.94    2.06
  -2 -10  -9    8.13    1.89
   2 -10  -9    7.62    4.49
  -2 -10  -9    9.45    5.86
   2 -10  -9    2.83    2.71
  -2 -10   9    1.68    3.63
  -2 -10   9   10.23    4.10
   2 -10   9    6.51    2.91
  -2  10 -10   27.33    5.33
   2  10 -10   31.20    6.69
  -2 -10 -10   42.57   10.22
   2 -10 -10   25.64    6.34
  -2 -10 -10   30.32    8.69
   2 -10 -10   31.82    9.74
  -2 -10  10   34.59   12.58
  -2 -10  10   34.85    9.01
   2 -10  10   28.93    7.03
  -2  10 -11   40.57    8.11
   2  10 -11   40.61   10.22
  -2 -10 -11   49.94    8.58
   2 -10 -11   43.47   13.28
  -2 -10 -11   52.56   11.23
   2 -10 -11   40.02   10.76
  -2 -10  11   38.13    7.77
  -2 -10  11   43.58    9.02
   2 -10  11   66.69   12.16
  -2  10 -12   52.19    9.68
   2  10 -12   40.69   11.87
  -2 -10 -12   59.74   11.73
   2 -10 -12   50.57    9.50
  -2 -10 -12   58.10   17.37
   2 -10 -12   56.80   18.22
  -2 -10  12   75.30   22.17
   2 -10  12   82.90   14.39
  -2  10 -13   88.63   29.81
   2  10 -13   64.13   21.98
  -2 -10 -13   68.33   25.28
   2 -10 -13   82.64   16.07
  -2 -10 -13   69.15   13.48
   2 -10 -13   76.99   14.54
  -2 -10  13   94.08   20.58
   2 -10  13  103.82   22.16
  -2  10 -14   12.65    3.94
   2  10 -14   21.01    6.38
  -2 -10 -14    7.25    3.03
   2 -10 -14   19.98    9.03
  -2 -10 -14   13.71    5.94
   2 -10 -14   14.28    6.64
  -2 -10  14    9.50    3.49
  -2 -10  14   29.30    8.46
   2 -10  14   37.89   12.38
  -2  10 -15    5.65    5.13
   2  10 -15   19.55    4.76
  -2 -10 -15   12.43    6.18
   2 -10 -15   13.92    4.00
  -2 -10 -15   12.56    4.82
   2 -10 -15   12.88    5.15
  -2 -10  15   33.48    9.43
   2 -10  15   30.90    8.69
  -2  10 -16   22.55   11.83
   2  10 -16   24.87    6.26
  -2 -10 -16   24.30    7.96
   2 -10 -16   29.93    8.55
  -2 -10 -16   25.70    9.48
   2 -10 -16   17.08    6.38
  -2 -10  16   31.08   13.97
   2 -10  16   32.46    8.45
  -2  10 -17    4.32    3.17
   2  10 -17    4.05    3.17
  -2 -10 -17    7.52    2.85
   2 -10 -17   17.93    6.69
  -2 -10 -17    5.69    2.66
  -2 -10  17    8.98    4.57
   2 -10  17    3.45    5.16
   2  11   0  121.92    7.86
  -2  11   0  108.30   12.56
  -2 -11   0  110.04   24.47
   2 -11   0  125.17   16.00
  -2 -11   0  107.61    9.58
   2 -11   0  114.86   16.78
   2  11   1   88.34    8.56
  -2  11   1   86.30   10.55
   2  11  -1   92.33   14.10
  -2  11  -1   89.84   16.84
  -2 -11  -1  118.38   26.03
  -2 -11   1  105.06   21.68
   2 -11  -1   91.09   14.59
   2 -11   1   71.53   11.24
   2 -11  -1   84.95   16.46
  -2 -11  -1  103.66   13.64
  -2 -11   1   87.07   16.72
   2 -11   1   85.64   14.04
   2  11   2   54.30    6.11
  -2  11   2   70.12   13.24
   2  11  -2   56.69    7.32
  -2  11  -2   65.09    9.82
  -2 -11  -2   48.66    9.68
  -2 -11   2   60.66   14.29
   2 -11  -2   62.03   12.54
   2 -11   2   47.55   10.69
  -2 -11  -2   53.60    7.80
  -2 -11   2   72.40   12.59
   2 -11   2   46.55   10.52
  -2  11   3  147.23   21.18
   2  11  -3  170.03   19.76
  -2  11  -3  154.74   27.12
  -2 -11  -3  168.48   21.10
  -2 -11   3  117.69   27.38
   2 -11  -3  145.46   29.30
   2 -11   3  160.04   36.86
  -2 -11   3  128.13   19.72
   2 -11   3  149.52   14.03
  -2  11   4   11.50    4.20
  -2  11  -4   29.95    5.93
   2  11  -4   18.85    6.03
  -2 -11  -4    9.37    4.58
   2 -11  -4   22.75    5.01
  -2 -11   4   26.69    7.03
   2 -11   4    5.41    4.14
  -2 -11   4   32.17    6.79
   2 -11   4   14.47    4.53
  -2  11  -5   22.69    6.56
   2  11  -5   23.38    8.50
  -2 -11  -5   23.57    5.42
  -2 -11  -5   21.35    7.05
   2 -11  -5    6.73    3.17
  -2 -11   5   16.26    6.49
   2 -11   5   16.80    8.05
  -2 -11   5   22.11    6.46
   2 -11   5   25.68    5.12
  -2  11  -6    5.50    2.29
   2  11  -6   14.42    4.59
  -2 -11  -6    9.21    5.52
  -2 -11  -6    8.44    6.14
   2 -11  -6   10.17    5.19
  -2 -11   6    6.17    3.11
   2 -11   6   13.60    6.40
  -2 -11   6    6.21    3.93
   2 -11   6    6.45    4.68
  -2  11  -7   38.14    8.88
   2  11  -7   44.43   10.98
  -2 -11  -7   42.89    8.06
  -2 -11  -7   42.78    9.66
   2 -11  -7   41.78   11.04
  -2 -11   7   36.66   10.39
   2 -11   7   38.31    7.89
  -2 -11   7   49.28    8.04
   2 -11   7   33.52    6.58
  -2  11  -8   15.04    3.84
   2  11  -8   24.04    9.50
  -2 -11  -8   20.04    6.19
  -2 -11  -8   11.23    5.71
   2 -11  -8   16.64    6.13
  -2 -11   8   14.00    4.48
  -2 -11   8   16.34    7.54
   2 -11   8   15.78    6.30
  -2  11  -9  124.72   17.77
   2  11  -9  145.76   13.85
  -2 -11  -9  136.04   30.03
   2 -11  -9  157.09   35.46
  -2 -11  -9  154.47   23.50
   2 -11  -9  146.44   20.07
  -2 -11   9  126.07   23.16
   2 -11   9  161.81   28.98
  -2 -11   9  156.09   14.55
   2 -11   9  150.61   27.16
  -2  11 -10   24.38    8.34
   2  11 -10   26.08    7.78
  -2 -11 -10   21.99    7.08
   2 -11 -10   19.21    7.15
  -2 -11 -10   40.47    8.03
   2 -11 -10   24.59    7.73
  -2 -11  10   16.16    5.29
   2 -11  10   28.58   10.37
  -2 -11  10   24.48    5.74
   2 -11  10   28.73    9.07
  -2  11 -11   26.17    6.46
   2  11 -11   33.22   11.11
  -2 -11 -11   21.25    7.29
   2 -11 -11   13.47    6.65
  -2 -11 -11   23.33    7.21
   2 -11 -11   25.39    5.77
  -2 -11  11   23.84    6.57
   2 -11  11   32.79   11.11
  -2 -11  11   33.25    9.26
   2 -11  11   17.12    5.82
  -2  11 -12   66.00   10.61
   2  11 -12   30.69    7.31
  -2 -11 -12   38.70    8.86
   2 -11 -12   34.74   15.62
  -2 -11 -12   43.01   12.39
   2 -11 -12   31.95    9.92
  -2 -11  12   27.14   10.78
   2 -11  12   46.49    9.17
  -2 -11  12   42.89   14.25
   2 -11  12   50.64   12.76
  -2  11 -13    9.34    4.23
   2  11 -13   21.51    6.96
  -2 -11 -13    7.36    4.40
   2 -11 -13   10.88    3.72
  -2 -11 -13   21.75    6.66
   2 -11 -13   10.01    4.85
   2 -11  13    3.78    3.45
  -2 -11  13   24.89    6.17
   2 -11  13   13.72    8.71
  -2  11 -14   10.15    5.27
   2  11 -14   15.25    4.49
  -2 -11 -14   22.88    8.09
   2 -11 -14   10.62    5.63
  -2 -11 -14   19.31    7.46
   2 -11 -14    9.44    4.59
   2 -11  14   15.87    5.68
  -2 -11  14   15.44    7.24
   2 -11  14   13.54    4.41
  -2  11 -15   29.07   11.91
   2  11 -15   29.60   10.69
  -2 -11 -15   35.26    7.86
   2 -11 -15   42.15   16.87
  -2 -11 -15   27.20    9.64
   2 -11 -15   19.32    8.51
   2 -11  15   32.84   12.04
  -2 -11  15   34.47   17.01
   2 -11  15   30.97   10.11
  -2  11 -16    6.29    4.32
   2  11 -16    4.59    3.95
  -2 -11 -16    9.41    4.13
   2 -11 -16    6.46    3.46
  -2 -11 -16    6.12    3.02
   2 -11 -16    7.50    3.41
   2 -11  16   -4.00    4.49
  -2 -11  16    8.16    6.45
   2 -11  16    2.50    3.73
   2  12   0    2.22    1.59
  -2  12   0    6.16    3.77
  -2 -12   0    6.44    4.40
   2 -12   0    5.55    4.88
   2 -12   0    3.18    2.34
   2  12   1   18.28    5.06
  -2  12   1   16.20    4.54
   2  12  -1   17.20    5.94
  -2  12  -1   17.04    4.77
  -2 -12  -1   14.53    6.29
  -2 -12   1   25.01   10.31
   2 -12  -1   14.10    8.00
   2 -12   1   24.64    8.71
   2 -12  -1   11.86    3.39
  -2 -12  -1   21.95    6.80
  -2 -12   1   25.35    4.08
   2 -12   1   12.61    2.97
   2  12   2   76.38   12.72
  -2  12   2   75.67   14.30
   2  12  -2   63.77   14.12
  -2  12  -2   74.96   12.17
  -2 -12  -2   84.44   16.25
  -2 -12   2   77.54   13.71
   2 -12  -2   81.00   15.47
   2 -12   2   75.50   17.36
  -2 -12  -2   81.12   10.94
  -2 -12   2   63.02   15.85
   2 -12   2   61.90   14.72
  -2  12   3   38.70   11.57
   2  12  -3   34.11   12.70
  -2  12  -3   36.58    7.04
  -2 -12  -3   55.09   13.37
  -2 -12   3   41.50   11.46
   2 -12  -3   47.27    8.54
   2 -12   3   31.52    7.34
  -2 -12   3   41.83    9.92
   2 -12   3   37.19    6.52
  -2  12   4   18.60    6.06
   2  12  -4   17.80    6.38
  -2  12  -4   17.02    5.04
  -2 -12  -4   17.74    5.85
   2 -12  -4   13.26    4.79
  -2 -12   4   18.32    5.90
   2 -12   4   15.12    9.60
  -2 -12   4   20.59    4.70
   2 -12   4   16.75    4.49
  -2  12  -5   73.48   17.91
   2  12  -5   65.89   12.95
  -2 -12  -5   67.43   16.85
   2 -12  -5   65.65   14.38
  -2 -12  -5   69.62   20.48
   2 -12  -5   54.07   12.75
  -2 -12   5   57.36   13.11
   2 -12   5   71.05   15.87
  -2 -12   5   48.60    8.32
   2 -12   5   66.91   13.86
  -2  12  -6   84.68   22.96
   2  12  -6   75.45   22.52
  -2 -12  -6   86.38   17.36
   2 -12  -6   84.18   17.24
  -2 -12  -6  108.55   26.78
   2 -12  -6   86.65   17.25
  -2 -12   6  105.50   18.29
   2 -12   6  110.08   25.12
  -2 -12   6  101.78   21.28
   2 -12   6   90.69   18.39
  -2  12  -7   53.44   11.04
   2  12  -7   39.53   13.53
  -2 -12  -7   37.58    9.42
   2 -12  -7   56.45   16.35
  -2 -12  -7   60.80   12.61
   2 -12  -7   56.32   10.21
  -2 -12   7   63.99   17.64
   2 -12   7   45.21    9.44
  -2 -12   7   48.83   10.01
   2 -12   7   40.49    7.16
  -2  12  -8   15.69    5.17
   2  12  -8   25.32    7.88
  -2 -12  -8   22.49    5.51
   2 -12  -8   16.52    5.60
  -2 -12  -8   27.01    7.90
   2 -12  -8   13.96    4.63
  -2 -12   8   32.10    8.18
   2 -12   8   17.71    7.15
  -2 -12   8   23.52    7.61
   2 -12   8   31.65    8.14
  -2  12  -9   19.64    4.90
   2  12  -9    5.43    4.44
  -2 -12  -9    2.42    2.58
   2 -12  -9   14.60    9.30
  -2 -12  -9   21.54    6.96
   2 -12  -9   19.32    6.37
  -2 -12   9    5.66    3.10
   2 -12   9   23.45    7.27
  -2 -12   9   21.09    4.57
   2 -12   9   16.36    4.65
  -2  12 -10   59.80   14.10
   2  12 -10   66.38   18.62
  -2 -12 -10   58.52   17.33
   2 -12 -10   49.46   14.68
  -2 -12 -10   72.99   17.45
   2 -12 -10   49.77   17.59
  -2 -12  10   64.28   12.02
   2 -12  10   95.66   20.23
  -2 -12  10   79.87   18.29
   2 -12  10   56.41   11.79
  -2  12 -11   29.19   10.10
   2  12 -11   19.48    6.45
   2 -12 -11   22.72    8.18
  -2 -12 -11   25.31    7.42
   2 -12 -11   16.20    7.11
  -2 -12  11   10.64    3.90
   2 -12  11   15.75    7.83
  -2 -12  11   15.36    4.94
   2 -12  11   14.56    7.88
  -2  12 -12   12.23    5.88
   2  12 -12    7.17    3.42
  -2 -12 -12    5.77    4.75
   2 -12 -12   10.71    5.33
  -2 -12 -12    8.66    4.04
   2 -12 -12    4.94    4.13
  -2 -12  12    3.55    3.22
   2 -12  12   20.12    7.79
  -2 -12  12   -0.11    4.06
   2 -12  12    1.73    3.29
  -2  12 -13    4.23    3.74
   2  12 -13    9.59    3.74
  -2 -12 -13    6.70    4.31
   2 -12 -13   10.89    3.72
  -2 -12 -13    8.63    5.33
   2 -12 -13    4.40    4.15
  -2 -12  13    8.00    4.63
   2 -12  13    5.62    3.90
  -2 -12  13    4.87    2.69
   2 -12  13    4.41    3.43
  -2  12 -14   15.68    6.02
   2  12 -14    6.63    2.71
  -2 -12 -14   10.11    6.01
   2 -12 -14    8.34    5.89
  -2 -12 -14   16.55    3.92
   2 -12 -14    9.30    4.94
   2 -12  14   13.53    5.62
  -2 -12  14   16.30    8.36
   2 -12  14   19.01    4.82
  -2  12 -15    6.45    3.32
   2  12 -15    3.02    3.25
  -2 -12 -15    9.59    3.68
   2 -12 -15    4.89    4.38
  -2 -12 -15   11.13    7.28
   2 -12  15    2.32    4.64
  -2 -12  15   13.41    4.74
   2 -12  15   13.69    5.60
   2  13   0   10.13    3.16
  -2  13   0    5.12    5.05
  -2 -13   0    1.93    3.80
   2 -13   0   12.74    6.12
   2 -13   0    6.10    2.61
  -2 -13   0   14.15    3.69
   2  13   1   46.85   11.53
  -2  13   1   31.55    5.32
   2  13  -1   47.99    7.42
  -2  13  -1   39.75    6.90
  -2 -13  -1   38.96    8.13
  -2 -13   1   52.17   13.19
   2 -13  -1   55.02   13.17
   2 -13   1   42.29   16.24
   2 -13  -1   43.26    8.27
  -2 -13  -1   41.06    8.59
  -2 -13   1   40.55    9.97
   2 -13   1   48.80   10.57
  -2  13   2   39.18    5.32
   2  13  -2   37.62    9.96
  -2  13  -2   48.04    6.66
  -2 -13  -2   30.28    7.16
  -2 -13   2   42.02   11.34
   2 -13  -2   47.57   11.05
   2 -13   2   51.61    9.35
  -2 -13  -2   35.72    8.38
  -2 -13   2   46.10   12.33
   2 -13   2   38.97    8.84
  -2  13   3   98.24   16.02
   2  13  -3  111.30   11.45
  -2  13  -3  116.46    8.80
  -2 -13  -3  100.25   19.33
  -2 -13   3   83.03   21.42
   2 -13  -3   96.68   15.00
   2 -13   3   85.26   17.34
  -2 -13   3   94.20   19.99
   2 -13   3   98.66   11.47
   2  13  -4    3.50    3.86
  -2  13  -4    5.88    3.33
  -2 -13  -4    5.30    4.86
   2 -13  -4    4.95    4.50
  -2 -13   4   11.07    5.28
   2 -13   4   15.70    5.68
  -2 -13   4    2.85    2.15
   2 -13   4    1.94    1.52
   2  13  -5   61.71   12.70
  -2  13  -5   69.70   16.65
  -2 -13  -5   56.48   16.27
   2 -13  -5   77.41   15.33
  -2 -13  -5   84.46   16.93
   2 -13  -5   53.93   19.10
  -2 -13   5   52.75   14.67
   2 -13   5   65.80   19.32
  -2 -13   5   60.13   14.37
   2 -13   5   77.61    8.02
  -2  13  -6   89.33   16.15
   2  13  -6   88.47   22.58
  -2 -13  -6   81.66   21.92
   2 -13  -6   67.24   14.12
  -2 -13  -6  108.18   17.98
   2 -13  -6   82.39   21.82
  -2 -13   6   99.76   15.24
   2 -13   6   90.81   23.79
  -2 -13   6  114.99   13.58
   2 -13   6   70.83   18.58
  -2  13  -7   47.02   13.80
   2  13  -7   35.82   11.02
  -2 -13  -7   43.90    8.72
   2 -13  -7   47.66   13.14
  -2 -13  -7   61.94   10.35
   2 -13  -7   33.67   11.51
  -2 -13   7   41.89   15.69
   2 -13   7   39.60    8.80
  -2 -13   7   39.78    9.03
   2 -13   7   51.37   11.49
  -2  13  -8    9.72    4.54
   2  13  -8   12.13    4.53
  -2 -13  -8   18.73    4.91
   2 -13  -8   21.32    8.51
  -2 -13  -8   12.18    4.78
   2 -13  -8    8.14    4.16
  -2 -13   8   12.11    5.72
   2 -13   8   10.71    5.08
  -2 -13   8   11.09    4.23
   2 -13   8   12.35    3.87
  -2  13  -9   41.22    9.29
   2  13  -9   24.53   10.15
  -2 -13  -9   27.40    7.31
   2 -13  -9   40.27   10.43
  -2 -13  -9   27.34   11.61
   2 -13  -9   28.25    7.13
  -2 -13   9   31.15    9.20
   2 -13   9   40.23   11.54
  -2 -13   9   36.36   12.70
   2 -13   9   30.26   12.80
  -2  13 -10   31.40    9.61
   2  13 -10   27.55    6.60
  -2 -13 -10   35.83    8.58
   2 -13 -10   33.41   10.03
  -2 -13 -10   12.30    4.46
   2 -13 -10   26.39   11.95
  -2 -13  10   32.61   14.94
   2 -13  10   39.72    8.81
  -2 -13  10   30.55   10.04
   2 -13  10   26.43    7.17
  -2  13 -11   31.72   11.34
   2  13 -11   26.54   11.35
  -2 -13 -11   30.60   13.42
   2 -13 -11   27.48    6.13
  -2 -13 -11   48.97   10.19
   2 -13 -11   35.97   10.29
  -2 -13  11   31.77    8.31
   2 -13  11   25.61   12.34
  -2 -13  11   24.39    9.40
   2 -13  11   31.32   12.98
  -2  13 -12    9.96    5.25
   2  13 -12    0.33    3.49
  -2 -13 -12    3.79    3.38
   2 -13 -12   16.40    7.83
  -2 -13 -12    9.70    5.71
   2 -13 -12    5.59    3.81
  -2 -13  12   11.42    4.13
   2 -13  12   21.31    9.70
  -2 -13  12   -1.30    3.94
   2 -13  12   35.96   12.62
  -2  13 -13    7.96    4.78
   2  13 -13   10.86    3.81
  -2 -13 -13   10.61    4.37
   2 -13 -13   16.72   10.76
  -2 -13 -13    4.77    4.82
   2 -13 -13   19.15    6.47
  -2 -13  13    9.53    5.73
   2 -13  13    8.50    7.49
  -2 -13  13   17.32    5.99
   2 -13  13   21.38    6.51
  -2  13 -14   22.76    5.30
   2  13 -14    8.10    2.58
  -2 -13 -14    2.86    3.96
   2 -13 -14   10.51    5.52
  -2 -13 -14    8.24    7.70
   2 -13 -14   13.08    4.37
  -2 -13  14   -0.02    3.30
   2 -13  14   14.06    6.80
  -2 -13  14   10.35    4.84
   2 -13  14   19.68    8.49
  -2  14   0  122.96   25.90
  -2 -14   0  110.19   32.47
   2 -14   0  100.92   17.18
   2 -14   0  120.07   12.16
  -2 -14   0  111.51   17.73
   2  14   1   33.89   11.06
  -2  14   1   32.11    6.95
  -2  14  -1   34.75    8.78
  -2 -14  -1   45.03   11.77
  -2 -14   1   35.46    9.57
   2 -14  -1   42.13   11.89
   2 -14  -1   26.02    7.55
  -2 -14  -1   36.66    7.90
  -2 -14   1   40.37    8.95
   2 -14   1   28.30    6.80
  -2  14   2   21.24    5.13
  -2  14  -2   19.67    6.66
  -2 -14  -2   14.08    7.31
  -2 -14   2   12.11    4.17
   2 -14  -2   25.38   12.92
   2 -14   2   10.17    5.30
  -2 -14  -2    8.95    7.11
  -2 -14   2   13.69    3.39
   2 -14   2    9.43    3.22
  -2  14   3   17.09    5.88
   2  14  -3   12.82    4.15
  -2  14  -3   20.35    6.04
  -2 -14  -3   21.76    5.06
  -2 -14   3   21.63    8.84
   2 -14  -3   34.11    7.16
   2 -14   3   25.16    6.47
  -2 -14   3   22.16    6.04
   2 -14   3   14.17    5.28
   2  14  -4   14.48    7.09
  -2  14  -4   17.01    5.96
   2 -14  -4   14.39    6.83
  -2 -14  -4   14.88    6.21
   2 -14  -4    7.99    8.20
  -2 -14   4   28.15    9.44
   2 -14   4    7.71    3.63
  -2 -14   4    9.59    3.93
   2 -14   4   13.71    4.02
   2  14  -5   20.11    6.27
  -2  14  -5   22.12    4.77
  -2 -14  -5    7.21    3.16
   2 -14  -5   11.92    4.61
  -2 -14  -5   18.98    5.89
   2 -14  -5   30.89   11.48
  -2 -14   5   22.13    5.76
   2 -14   5   19.33    7.80
  -2 -14   5   12.95    5.69
   2 -14   5   16.36    7.47
  -2  14  -6   11.87    4.20
   2  14  -6    6.33    2.80
  -2 -14  -6    6.96    2.87
   2 -14  -6    9.26    5.56
  -2 -14  -6   24.04    9.49
   2 -14  -6    9.46    5.26
  -2 -14   6   16.21    4.91
   2 -14   6   10.96    5.73
  -2 -14   6    9.80    5.03
   2 -14   6   12.65    6.12
  -2  14  -7    9.52    3.65
   2  14  -7    7.55    4.64
  -2 -14  -7    1.08    2.36
   2 -14  -7   10.65    5.68
  -2 -14  -7    8.53    4.20
   2 -14  -7    7.42    4.71
  -2 -14   7    9.50    7.14
   2 -14   7    1.37    6.25
  -2 -14   7    7.91    3.85
   2 -14   7    7.38    4.95
  -2  14  -8    8.34    4.60
   2  14  -8    3.12    3.60
  -2 -14  -8    4.16    2.28
   2 -14  -8    8.11    5.19
  -2 -14  -8   -3.21    5.11
   2 -14  -8    4.56    3.56
  -2 -14   8    8.52    5.60
   2 -14   8   15.42    9.47
  -2 -14   8    9.41    6.40
   2 -14   8    6.21    3.78
  -2  14  -9   10.10    5.57
   2  14  -9    4.83    4.58
  -2 -14  -9    7.73    4.23
   2 -14  -9    4.24    6.54
  -2 -14  -9    7.17    4.33
   2 -14  -9    7.62    6.01
  -2 -14   9   11.73    5.87
   2 -14   9   15.21    4.69
  -2 -14   9    7.81    4.12
   2 -14   9    8.97    4.04
  -2  14 -10   20.46    6.84
   2  14 -10    7.76    6.01
   2 -14 -10   12.04    9.83
  -2 -14 -10    9.38    4.53
   2 -14 -10    6.94    4.28
  -2 -14  10   15.01    6.31
   2 -14  10   17.96   10.67
  -2 -14  10   11.42    4.72
   2 -14  10   12.62    6.53
  -2  14 -11   15.78    9.17
   2  14 -11   14.78    5.71
   2 -14 -11   18.11    7.39
  -2 -14 -11   16.88    6.85
   2 -14 -11   11.08    4.66
  -2 -14  11   21.76    8.68
   2 -14  11   20.55    9.91
  -2 -14  11   10.66    6.16
   2 -14  11   18.14    8.60
  -2  14 -12   31.94    8.70
   2  14 -12   21.51    9.79
  -2 -14 -12   28.17    7.88
   2 -14 -12   27.43   13.97
  -2 -14 -12   34.52   10.70
   2 -14 -12   27.18    7.02
  -2 -14  12   19.63    5.97
   2 -14  12   37.98   14.60
  -2 -14  12   26.75    7.69
   2 -14  12   18.15    8.03
  -2  14 -13    7.31    3.56
   2  14 -13    3.94    2.39
  -2 -14 -13   10.95    3.75
   2 -14 -13   12.13    4.93
  -2 -14 -13    7.45    6.61
  -2 -14  13   20.89    5.53
   2 -14  13   15.69    5.24
  -2 -14  13   14.81    8.91
   2  15   0   44.49    9.42
  -2  15   0   54.37    8.91
  -2 -15   0   64.69   18.26
   2 -15   0   63.32   15.34
  -2 -15   0   54.08    7.47
   2  15   1   22.28    6.46
  -2  15   1   27.92    5.70
   2  15  -1   23.34    6.04
  -2  15  -1   32.26    6.23
  -2 -15  -1   25.47   11.49
  -2 -15   1   29.65    9.72
   2 -15  -1   -4.13    6.66
   2 -15   1   25.49    7.73
  -2 -15  -1   22.32    6.78
   2 -15   1   18.18    5.64
  -2  15   2   19.12    3.98
   2  15  -2    7.06    2.12
  -2  15  -2    8.58    5.32
  -2 -15  -2    4.86    3.09
  -2 -15   2   12.44    4.23
   2 -15  -2    7.88    7.30
   2 -15   2    8.84    5.72
  -2 -15   2   11.32    4.75
   2 -15   2    7.19    2.33
  -2  15   3   14.95    4.93
   2  15  -3   15.83    7.68
  -2  15  -3   10.70    5.55
  -2 -15  -3   10.77    6.16
  -2 -15   3   11.00    4.92
   2 -15  -3   15.62    4.59
   2 -15   3   25.77    6.90
  -2 -15   3   18.89    8.55
   2 -15   3   17.80    4.65
   2  15  -4   16.98    8.06
  -2  15  -4   19.12    6.44
   2 -15  -4   21.00    6.59
  -2 -15  -4   36.80    9.40
   2 -15  -4   22.49    7.68
  -2 -15   4   33.26    7.58
   2 -15   4   34.29    8.90
  -2 -15   4   13.84    4.77
   2 -15   4   12.95    3.95
   2  15  -5   31.86    8.90
  -2  15  -5   29.86   14.52
  -2 -15  -5   21.00    6.41
   2 -15  -5   57.36   14.62
  -2 -15  -5   43.01   11.56
   2 -15  -5   37.95   11.11
  -2 -15   5   36.23   10.03
   2 -15   5   35.08   11.34
  -2 -15   5   36.91   10.88
   2 -15   5   27.79   12.63
   2  15  -6   21.44    8.47
  -2  15  -6   32.30   12.50
  -2 -15  -6   22.89    8.65
   2 -15  -6   18.95    6.95
  -2 -15  -6   25.85    8.45
   2 -15  -6   18.88    6.94
  -2 -15   6   19.47    7.33
   2 -15   6   16.96    5.87
  -2 -15   6   24.70    9.03
   2 -15   6   26.87   10.95
   2  15  -7   13.17    6.66
  -2  15  -7   24.17    7.37
  -2 -15  -7   12.00    6.19
   2 -15  -7   11.61    5.55
  -2 -15  -7   14.29    6.63
   2 -15  -7   21.01   10.49
  -2 -15   7    7.71    4.11
   2 -15   7   11.35    8.81
  -2 -15   7   11.58    4.40
   2 -15   7   13.02    7.06
  -2  15  -8    8.07    2.83
   2  15  -8    3.36    3.48
  -2 -15  -8   11.89    4.74
   2 -15  -8   13.50    6.34
  -2 -15  -8   14.40    6.21
   2 -15  -8    6.01    5.37
  -2 -15   8    6.70    7.06
   2 -15   8   11.43    4.49
  -2 -15   8   18.89    8.00
   2 -15   8   12.36    4.75
  -2  15  -9    2.77    3.24
   2  15  -9    1.38    1.98
  -2 -15  -9    1.06    4.31
   2 -15  -9    8.76    4.33
  -2 -15  -9   11.38    6.22
   2 -15  -9    6.97    3.54
  -2 -15   9    9.31    6.14
   2 -15   9   10.90   12.07
  -2 -15   9    1.12    2.22
   2 -15   9   -0.63    1.62
  -2  15 -10    3.97    2.14
   2  15 -10    3.26    3.05
  -2 -15 -10    7.00    4.66
   2 -15 -10   10.84    5.94
  -2 -15 -10   10.12    5.15
   2 -15 -10    7.77    4.34
  -2 -15  10    9.11    5.24
   2 -15  10   12.67    4.02
  -2 -15  10    7.20    3.11
   2 -15  10    3.71    2.42
  -2  15 -11   12.65    7.09
   2  15 -11   13.56    9.57
  -2 -15 -11   27.27    6.71
   2 -15 -11   23.53   12.32
  -2 -15 -11   26.54    6.84
   2 -15 -11   21.74    5.99
  -2 -15  11   19.04    7.03
   2 -15  11   28.00    8.91
  -2 -15  11   23.04    8.21
   2 -15  11   12.30    4.19
  -2  15 -12   10.84    6.55
   2  15 -12   14.19    3.21
  -2 -15 -12    9.52    2.95
   2 -15 -12   22.00   10.17
  -2 -15 -12   14.74    6.45
   2 -15 -12   10.54    5.06
   2 -15  12   10.17    8.03
  -2 -15  12   13.15    6.22
   2 -15  12    8.74    3.57
   2  16   0    8.30    3.05
  -2  16   0   10.00    4.06
  -2 -16   0   11.42    6.76
   2 -16   0   14.80    8.96
  -2 -16   0    8.70    2.94
  -2  16   1    2.56    2.53
   2  16  -1    6.97    3.15
  -2  16  -1    6.68    3.83
  -2 -16  -1    3.18    4.69
  -2 -16   1   22.86    7.76
   2 -16  -1   14.94    7.60
   2 -16   1    3.43    5.28
  -2 -16  -1    6.40    1.91
  -2 -16   1    6.40    2.69
  -2  16   2    2.29    3.08
   2  16  -2    3.57    3.29
  -2  16  -2    5.46    2.85
  -2 -16  -2    7.42    5.80
  -2 -16   2    2.31    4.41
   2 -16  -2   12.31    5.46
   2 -16   2   11.64    7.05
  -2 -16   2    1.34    2.27
  -2  16   3   12.73    8.17
   2  16  -3    8.33    3.46
  -2  16  -3    3.25    2.40
  -2 -16  -3    9.89    6.04
  -2 -16   3    8.09    4.80
   2 -16  -3    7.78    7.03
   2 -16   3   12.26    9.80
  -2 -16   3    5.37    3.71
   2  16  -4   37.38   11.32
  -2  16  -4   46.99   12.77
   2 -16  -4   29.00    8.54
  -2 -16  -4   53.13   17.86
   2 -16  -4   38.30   13.71
  -2 -16   4   42.75    9.39
   2 -16   4   37.64   13.57
  -2 -16   4   39.70    9.38
   2  16  -5   13.29    4.26
  -2  16  -5   11.81    4.80
  -2 -16  -5    6.94    2.47
   2 -16  -5    9.95    6.16
  -2 -16  -5   12.41    5.67
   2 -16  -5   11.44    4.69
  -2 -16   5    7.97    5.00
   2 -16   5   26.44    6.86
  -2 -16   5    6.00    3.68
   2 -16   5    4.66    2.53
   2  16  -6   -0.32    2.65
  -2  16  -6    3.03    2.06
  -2 -16  -6    3.01    2.28
   2 -16  -6    2.30    3.74
  -2 -16  -6    7.23    7.44
   2 -16  -6    8.74    4.83
  -2 -16   6   11.74    7.37
   2 -16   6   10.32    7.72
  -2 -16   6    1.82    3.47
   2 -16   6    6.18    3.67
   2  16  -7    9.07    5.60
  -2  16  -7   13.37    4.70
  -2 -16  -7    5.79    4.05
   2 -16  -7    9.96    4.27
  -2 -16  -7   15.48    8.13
   2 -16  -7   11.71    4.76
  -2 -16   7    8.01    3.86
   2 -16   7   10.94    6.63
  -2 -16   7    7.17    4.69
   2 -16   7    3.42    2.26
  -2  16  -8   26.41    8.80
   2  16  -8   29.10   10.75
  -2 -16  -8   25.88   13.18
   2 -16  -8   74.46   17.09
  -2 -16  -8   36.86   14.90
   2 -16  -8   45.19   10.35
  -2 -16   8   22.88   10.16
   2 -16   8   51.83   13.13
  -2 -16   8   31.46   11.77
   2 -16   8   32.76   11.40
  -2  16  -9   17.03    8.24
   2  16  -9    9.24    4.83
  -2 -16  -9   15.90    4.92
   2 -16  -9   13.10    6.29
  -2 -16  -9   14.90    4.09
   2 -16  -9   14.76    6.26
  -2 -16   9   14.29    4.90
   2 -16   9   14.83    5.74
  -2 -16   9   17.71    6.96
   2 -16   9   11.12    2.90
  -2  16 -10    6.19    4.88
   2  16 -10   -0.62    3.04
  -2 -16 -10    3.37    3.76
   2 -16 -10   -0.22    4.65
  -2 -16 -10    1.31    4.87
   2 -16 -10    3.45    4.07
  -2 -16  10    8.07    4.20
   2 -16  10    3.10    4.61
  -2 -16  10    6.00    2.38
   2 -16  10    2.99    3.32
   2  17   0   14.68    7.42
  -2  17   0   18.58    4.43
  -2 -17   0   18.30    8.27
   2 -17   0   36.55   11.67
  -2 -17   0   26.84    8.88
  -2  17   1   10.54    5.58
   2  17  -1    6.95    2.16
  -2  17  -1    9.22    3.99
  -2 -17  -1    3.22    2.84
  -2 -17   1   11.74    7.06
   2 -17  -1    9.79    4.14
   2 -17   1   23.29    7.88
  -2 -17   1    6.88    3.81
  -2  17   2   10.62    4.09
   2  17  -2   14.30    3.62
  -2  17  -2   10.00    4.14
  -2 -17  -2   21.90    8.38
  -2 -17   2   -0.54    5.37
   2 -17  -2   11.91    4.09
   2 -17   2   11.85    7.44
  -2 -17   2    7.59    2.68
   2  17  -3    4.09    2.25
  -2  17  -3    7.04    4.54
   2 -17  -3    6.33    3.60
  -2 -17  -3    4.66    3.61
  -2 -17   3   15.91    7.18
   2 -17  -3    2.54    2.86
   2 -17   3   30.12    9.12
  -2 -17   3    3.71    1.77
   2  17  -4   12.93    3.86
  -2  17  -4   14.33    6.82
   2 -17  -4    6.56    5.57
  -2 -17  -4   11.39    5.96
   2 -17  -4   21.44    6.98
  -2 -17   4   10.06    7.55
   2 -17   4    4.55    6.59
  -2 -17   4   13.25    4.53
   2  17  -5   14.16    4.08
  -2  17  -5    7.02    8.03
   2 -17  -5   10.39    3.12
  -2 -17  -5   13.15    6.24
   2 -17  -5   28.18    7.87
  -2 -17   5   13.32    5.68
   2 -17   5   14.22    6.77
  -2 -17   5   15.34    7.55
   2  17  -6    4.94    3.19
  -2  17  -6    5.52    5.14
  -2 -17  -6    4.49    3.18
   2 -17  -6   12.72    4.33
  -2 -17  -6   14.20    4.46
   2 -17  -6    6.96    5.07
  -2 -17   6    6.41    5.58
   2 -17   6   13.61    5.89
  -2 -17   6    9.80    2.58
  -2  17  -7    6.68    3.95
  -2 -17  -7    1.10    2.15
  -2 -17  -7   22.60   10.49
   2 -17  -7   -0.90    4.99
  -2 -17   7   10.15    3.60
   2 -17   7    9.30    5.15
  -2 -17   7    7.82    3.99
  -2  17  -8    6.42    3.71
   2 -17  -8    9.99    5.97
  -2 -17  -8   12.40    8.30
   2 -17  -8   11.97    6.23
  -2 -17   8   19.58    8.18
   2 -17   8   20.07    9.47
  -2 -17   8    9.00    3.83
  -2  18   0    5.47    2.54
  -2 -18   0   -3.62    5.63
   2 -18   0   11.84    7.18
  -2  18   1   25.64    9.45
  -2  18  -1   21.65    6.52
  -2 -18  -1   23.84   11.25
  -2 -18   1   42.36   11.67
   2 -18  -1   17.91    8.18
   2 -18   1   19.33   14.60
  -2 -18   1   14.91    9.28
  -2  18   2   -0.34    3.27
  -2  18  -2    5.87    2.90
  -2 -18  -2   14.63    6.21
  -2 -18   2   25.19   11.42
   2 -18  -2   14.11    9.13
   2 -18   2   24.85    9.98
  -2 -18   2    5.53    3.97
  -2  18  -3    6.37    4.68
   2 -18  -3    2.31    2.90
  -2 -18  -3    6.15    3.43
  -2 -18   3    9.23    6.47
   2 -18  -3   12.01    5.79
   2 -18   3    6.78    3.80
  -2 -18   3    6.17    4.32
  -2  18  -4    2.50    2.66
   2 -18  -4    4.94    2.95
  -2 -18  -4   -1.80    4.31
   2 -18  -4   -0.30    5.93
  -2 -18   4    2.54    4.45
   2 -18   4   -4.34    6.68
  -2 -18   4    6.45    3.80
   3   0   0    2.67    2.33
  -3   0   0    5.31    2.22
   3   0   0    1.62    2.05
  -3   0   0    5.75    2.18
   3   0   0    3.95    1.64
   3   0  -1   42.62    5.93
   3   0   1   37.04    6.15
  -3   0  -1   44.39    4.97
   3   0  -1   38.18    7.14
   3   0   1   35.96    5.10
   3   0   1   33.44    5.81
   3   0  -1   41.92    8.31
   3   0  -2   13.98    3.55
   3   0   2   11.82    2.80
   3   0  -2   15.93    3.45
  -3   0   2   14.57    3.36
  -3   0  -2   15.68    3.45
   3   0  -2   12.85    2.87
   3   0   2   13.24    3.11
  -3   0   2   12.88    3.60
   3   0  -2   11.82    2.63
  -3   0  -3   -1.07    2.75
   3   0   3    2.12    1.72
   3   0  -3    2.98    1.40
  -3   0   3    2.13    2.05
  -3   0  -3    3.92    3.42
   3   0   3    2.54    2.43
   3   0  -3    1.22    0.48
  -3   0   3    4.57    2.41
   3   0  -3    3.48    2.14
  -3   0  -4  202.22    7.01
   3   0   4  191.50    6.71
   3   0  -4  220.16   20.24
  -3   0   4  152.54   14.05
  -3   0  -4  183.01    6.74
  -3   0   4  183.53    6.40
  -3   0  -5 1071.77   24.92
   3   0  -5 1078.25   25.30
  -3   0  -5 1064.39   24.66
  -3   0   5 1070.17   24.69
  -3   0  -6  114.20   10.09
   3   0  -6  127.76   18.86
  -3   0  -6  114.62    8.90
  -3   0   6  117.26    9.28
  -3   0  -7  181.23   13.40
   3   0  -7  189.91   26.76
  -3   0  -7  199.20   20.71
  -3   0  -8   17.93    3.75
   3   0  -8   15.23    4.03
  -3   0  -8   14.47    3.00
  -3   0   8   11.25    2.06
  -3   0  -9   10.41    3.68
   3   0  -9   -3.03    4.70
  -3   0  -9    9.31    3.26
  -3   0   9    3.37    1.34
  -3   0 -10  262.31   18.44
   3   0 -10  273.52   40.12
  -3   0 -10  272.09   18.14
  -3   0  10  270.68   16.59
  -3   0 -11   44.77    8.38
   3   0 -11   44.44   11.93
  -3   0 -11   42.41    8.06
  -3   0  11   30.73    7.09
  -3   0 -12    8.16    5.53
   3   0 -12    4.88    4.50
  -3   0 -12    3.14    2.24
  -3   0  12    0.95    1.19
  -3   0 -13    8.54    4.11
   3   0 -13   15.80    6.47
  -3   0 -13    7.47    3.84
  -3   0  13   -0.34    1.12
  -3   0 -14  158.01   34.57
   3   0 -14  158.21   28.18
  -3   0 -14  196.87   16.83
  -3   0 -15    4.62    4.02
   3   0 -15    9.49    7.29
  -3   0 -15    4.34    2.09
  -3   0 -16    3.79    3.96
   3   0 -16   -1.42    5.56
  -3   0 -16    3.65    2.68
  -3   0 -17   28.36    6.43
   3   0 -17   34.11   11.07
  -3   0 -17   52.47   10.53
  -3   0 -18   12.80    5.43
   3   0 -18   24.88    7.11
  -3   0 -18   19.99    4.95
  -3   0 -19   26.98    8.40
   3   0 -19   16.87    8.95
  -3   0 -19    6.30    2.57
  -3   0 -20   10.17    5.41
   3   0 -20    7.52    5.85
  -3   0  20    9.82    4.21
  -3  -1   0 4189.62   85.05
  -3   1   0 4230.12   86.88
   3  -1   0 4084.77   83.88
   3   1   0 4194.92   85.16
  -3   1   0 4130.93   84.73
   3  -1   0 4087.94   83.86
  -3  -1   0 4147.17   85.04
   3   1   0 4218.24   86.51
   3  -1   0 4110.17   83.87
  -3  -1   0 4249.34   87.65
   3   1   0 4128.54   84.97
   3   1  -1  634.88   13.83
  -3   1   1  620.62   14.51
   3  -1  -1  668.94   17.17
   3  -1   1  615.64   14.24
  -3  -1  -1  646.12   14.02
   3   1  -1  640.75   15.17
  -3   1  -1  699.95   16.17
   3  -1  -1  647.89   14.45
   3  -1   1  604.87   15.44
  -3  -1  -1  651.39   15.26
   3   1  -1  625.16   14.06
  -3  -1  -1  645.53   15.16
   3   1   1  697.24   16.16
  -3   1   1  621.22   13.77
  -3  -1   1  683.73   16.96
   3  -1  -1  672.28   14.76
   3  -1  -2  328.15    8.92
  -3   1  -2  298.66    8.36
   3  -1   2  291.26    8.10
  -3  -1  -2  288.42    7.41
   3   1   2  317.21    8.11
   3   1  -2  319.69    8.79
  -3  -1   2  312.33    8.01
   3  -1  -2  284.65    7.09
  -3   1  -2  311.21    8.92
   3  -1   2  287.35    8.42
  -3  -1  -2  294.85   12.25
  -3  -1   2  311.92    7.44
   3   1   2  307.53    9.07
   3   1  -2  313.87    7.59
  -3  -1   2  326.57    9.11
  -3   1   2  303.32    7.64
   3   1  -2  300.39    8.32
   3  -1  -2  305.25    7.71
   3  -1  -3  204.44    7.47
  -3   1  -3  214.43    7.15
   3  -1   3  190.83    6.42
   3   1   3  211.61    8.07
   3   1  -3  205.35    6.39
  -3  -1   3  212.06    6.31
   3  -1  -3  219.94    7.79
   3  -1   3  212.65    6.68
  -3  -1  -3  211.52    7.00
  -3  -1   3  228.02    5.54
   3   1  -3  206.47    5.39
   3   1  -3  200.54    6.76
  -3   1  -4  303.40    9.33
  -3  -1  -4  325.89    9.31
   3   1   4  295.66    8.47
   3   1  -4  324.41    9.33
   3  -1  -4  331.25   10.64
  -3   1  -4  299.71   10.30
  -3  -1   4  314.21    6.65
  -3  -1  -4  305.67   10.07
   3  -1  -4  308.06    7.99
  -3  -1   4  323.75    9.69
   3   1  -4  316.61   13.49
  -3   1  -5  176.40   12.59
  -3  -1  -5  173.10   12.38
   3   1  -5  193.80   24.72
   3  -1  -5  199.66   25.09
  -3   1  -5  158.30   12.99
  -3  -1  -5  168.25   11.94
   3  -1  -5  159.60   10.73
  -3  -1   5  155.71   13.64
  -3   1   5  159.91   11.31
  -3   1  -6  403.36   19.62
  -3  -1  -6  358.87   20.76
   3   1  -6  331.25   17.71
   3  -1  -6  399.25   20.49
  -3   1  -6  391.61   18.84
  -3  -1  -6  330.26   16.16
   3  -1  -6  410.87   18.13
  -3  -1   6  385.41   18.73
  -3   1  -7   50.34   10.48
  -3  -1  -7   41.66    7.78
   3   1  -7   39.33   11.47
   3  -1  -7   55.63   10.67
  -3   1  -7   46.93    8.35
  -3  -1  -7   44.29    9.14
   3  -1  -7   45.87    4.19
  -3   1   7   40.55    4.97
  -3  -1   7   61.20   12.40
  -3   1  -8   99.47   13.84
  -3  -1  -8   75.58   15.83
   3   1  -8   86.18   16.15
  -3   1  -8  105.22   17.82
  -3  -1  -8   86.48   14.95
   3  -1  -8   97.88    6.18
  -3  -1   8  105.08    6.18
  -3   1   8   82.81    8.83
  -3  -1   8  121.55   23.76
  -3   1  -9   13.51    4.64
  -3  -1  -9    5.22    3.52
   3   1  -9    3.60    3.56
   3  -1  -9    9.48    3.54
  -3   1  -9    3.78    1.89
   3  -1  -9    4.62    1.44
  -3  -1  -9    3.90    1.63
  -3  -1   9    2.11    1.31
  -3   1   9    3.31    1.14
  -3   1 -10  163.51   26.72
  -3  -1 -10  165.33   24.06
   3   1 -10  122.93   10.48
   3  -1 -10  139.48   19.08
  -3   1 -10  143.68   18.66
   3  -1 -10  139.20    4.04
  -3  -1 -10  171.16   21.01
  -3  -1  10  137.30    3.18
  -3   1  10  147.28    4.22
  -3   1 -11   69.06    9.40
  -3  -1 -11   97.69   20.59
   3   1 -11   93.62   13.53
   3  -1 -11   89.37   20.71
  -3   1 -11   81.29   16.86
   3  -1 -11   78.62    7.34
  -3  -1 -11   95.21   12.74
  -3  -1  11   67.30    5.88
  -3   1  11   79.53    8.85
  -3   1 -12  183.88   23.71
  -3  -1 -12  165.71   27.14
   3   1 -12  179.49   24.18
   3  -1 -12  191.80   39.34
  -3   1 -12  186.00   15.63
   3  -1 -12  180.37    4.19
  -3  -1 -12  160.04   12.10
  -3  -1  12  152.30    6.43
  -3   1  12  139.95   12.91
  -3   1 -13   73.81   16.15
  -3  -1 -13   81.73   22.59
   3   1 -13   60.89    6.98
   3  -1 -13   66.07   11.31
   3  -1 -13   75.21    5.70
  -3   1 -13   68.28   11.17
  -3  -1 -13   89.44   15.87
  -3   1 -14   13.43    4.05
  -3  -1 -14   10.98    5.03
   3   1 -14    8.85    3.82
   3  -1 -14   13.62    4.54
   3  -1 -14    7.55    2.53
  -3   1 -14    5.91    2.49
  -3  -1 -14    5.66    2.74
  -3   1 -15   21.51    6.61
  -3  -1 -15   18.14    4.95
   3   1 -15   23.24    7.22
   3  -1 -15   13.99    9.05
  -3   1 -15   25.44    4.91
  -3  -1 -15   17.42    5.09
  -3   1 -16   69.76   12.48
  -3  -1 -16   88.30   21.15
   3   1 -16   72.25   15.72
   3  -1 -16   61.67   15.32
  -3   1 -16   50.02   11.36
  -3  -1 -16   72.18   13.48
  -3   1 -17   13.95    6.41
  -3  -1 -17   15.35    6.74
   3   1 -17   17.30    6.53
   3  -1 -17    6.21    5.57
  -3   1 -17    7.77    3.18
  -3  -1 -17    4.07    3.13
  -3   1 -18   46.54   10.01
  -3  -1 -18   64.16   16.15
   3   1 -18   58.89   12.64
   3  -1 -18   43.43   13.21
  -3   1 -18   45.07   10.51
  -3  -1 -18   44.74   13.73
  -3  -1  18   67.82   13.69
  -3   1 -19    4.98    3.73
  -3  -1 -19    3.28    2.86
   3   1 -19    5.06    4.32
   3  -1 -19    2.80    3.60
  -3   1 -19    0.41    1.51
  -3  -1 -19    1.57    2.87
  -3  -1  19    7.51    3.03
  -3   1 -20   13.92    4.75
  -3  -1 -20   16.05    5.31
   3   1 -20   12.27    4.74
   3  -1 -20   21.90    8.04
  -3  -1  20   16.81    5.15
  -3   2   0    1.51    2.09
   3  -2   0    7.40    1.73
   3  -2   0    4.57    1.14
  -3  -2   0    6.81    2.22
   3   2   0    4.11    2.49
   3  -2   0    3.83    1.42
  -3  -2   0    1.59    2.52
   3   2   0    4.57    2.28
   3  -2  -1  717.15   16.81
  -3   2  -1  743.56   17.47
   3  -2   1  759.56   19.47
   3   2   1  736.57   15.49
   3   2  -1  790.99   17.02
  -3  -2   1  732.40   15.43
   3  -2   1  716.49   16.46
   3   2   1  728.36   17.17
  -3  -2  -1  707.44   16.74
  -3  -2   1  743.76   17.47
   3   2  -1  813.84   18.84
   3  -2  -1  735.03   15.59
  -3   2   2  553.35   13.64
   3  -2  -2  566.65   13.92
  -3   2  -2  541.86   13.37
  -3  -2  -2  544.59   12.30
   3   2   2  529.09   11.89
   3   2  -2  501.53   11.51
  -3  -2   2  541.62   12.21
  -3  -2  -2  544.72   13.61
   3   2   2  557.97   13.96
  -3  -2   2  548.72   12.80
   3   2  -2  510.61   11.94
   3   2   2  545.18   13.43
  -3   2   2  534.47   11.97
   3   2  -2  495.55   12.50
   3  -2  -2  523.98   12.00
   3  -2  -3   68.60   11.42
  -3   2  -3   89.17   12.54
   3  -2   3   68.86   12.57
  -3  -2  -3   76.83    8.77
   3   2  -3   74.53   12.71
   3   2   3   74.13    8.85
  -3  -2   3   74.61    8.86
   3  -2  -3   98.01   18.49
  -3   2  -3   84.74   10.19
  -3  -2  -3   90.49   15.09
  -3  -2   3   81.65    7.31
   3   2  -3   71.26    6.62
   3  -2  -3   81.27    8.78
  -3  -2   3   87.44    9.37
  -3   2   3   76.34    7.40
   3   2  -3   65.92   13.91
  -3   2  -4  357.26   10.58
   3   2  -4  351.46    9.56
   3   2   4  336.56    9.09
  -3  -2   4  338.65    9.08
   3  -2  -4  378.48   12.01
  -3   2  -4  360.74   10.59
  -3  -2  -4  349.53   13.11
  -3  -2   4  357.32    8.36
   3  -2  -4  361.01   10.72
   3   2  -4  346.94    8.26
  -3  -2   4  382.91   11.11
  -3   2   4  340.65    8.84
  -3   2  -5  325.45   16.04
  -3  -2  -5  317.90   15.48
   3   2  -5  323.84   15.64
   3   2   5  307.40   14.83
   3  -2  -5  325.95   19.76
  -3   2  -5  306.24   15.14
  -3  -2  -5  320.04   15.68
  -3  -2   5  313.15   14.06
   3  -2  -5  319.98   14.78
  -3  -2   5  326.77   16.18
  -3   2  -6  367.70   18.42
  -3  -2  -6  353.43   17.31
   3   2  -6  336.93   16.75
   3  -2  -6  364.11   18.54
  -3   2  -6  376.49   18.24
  -3  -2   6  384.17   16.96
  -3  -2  -6  354.37   17.27
   3  -2  -6  367.77   16.76
  -3  -2   6  378.22   16.83
  -3   2   6  346.11   16.19
  -3  -2   6  380.04   19.06
  -3   2  -7  122.39   22.86
  -3  -2  -7  141.59   23.28
   3   2  -7  117.89   21.00
   3  -2  -7  130.95   23.68
  -3   2  -7  128.56   19.53
  -3  -2   7  117.58    7.80
  -3  -2  -7  137.06   23.35
   3  -2  -7  119.49    8.33
  -3  -2   7  115.65    7.78
  -3   2   7  120.38    8.51
  -3  -2   7  118.97   22.01
  -3   2  -8  431.98   22.48
  -3  -2  -8  426.24   21.99
   3   2  -8  378.37   23.32
   3  -2  -8  430.20   22.63
  -3   2  -8  405.85   24.83
  -3  -2  -8  411.48   20.80
  -3  -2   8  406.36   19.06
   3  -2  -8  412.67   20.44
  -3   2   8  400.77   19.47
  -3  -2   8  408.86   19.17
  -3  -2   8  405.48   21.30
  -3   2  -9   87.02   15.38
  -3  -2  -9   70.39   18.08
   3   2  -9   59.29   10.36
   3  -2  -9   76.23   13.89
  -3   2  -9   58.12    9.16
  -3  -2  -9   60.88   11.18
   3  -2  -9   69.14    8.43
  -3  -2   9   62.39    3.10
  -3   2   9   44.92    9.92
  -3  -2   9   66.29    6.58
  -3  -2   9   81.02   14.37
  -3   2 -10   72.93   14.50
  -3  -2 -10   47.15    8.37
   3   2 -10   50.97    8.56
   3  -2 -10   51.45   10.66
  -3   2 -10   60.85    7.58
  -3  -2 -10   54.70   11.37
   3  -2 -10   55.75    3.34
  -3  -2  10   43.21    5.50
  -3   2  10   32.92    9.44
  -3  -2  10   63.87   10.23
  -3   2 -11  131.36   19.36
  -3  -2 -11  126.00   26.05
   3   2 -11  117.72   25.71
   3  -2 -11  134.83   29.02
  -3   2 -11  115.30   13.72
  -3  -2 -11  106.84   16.20
   3  -2 -11  105.60    5.23
  -3  -2  11  110.53    3.15
  -3   2  11  104.29    7.30
  -3  -2  11  103.80   19.66
  -3   2 -12   45.30    9.10
  -3  -2 -12   73.83   16.36
   3   2 -12   85.63   14.27
   3  -2 -12   65.81   10.24
  -3   2 -12   76.04   15.74
   3  -2 -12   69.43    9.77
  -3  -2 -12   70.54   13.13
  -3  -2  12   57.45    7.01
  -3   2  12   48.70   12.43
  -3  -2  12   75.41   14.33
  -3   2 -13   27.10    6.19
  -3  -2 -13   30.05    7.97
   3   2 -13   25.20    6.66
   3  -2 -13   30.47   11.31
  -3   2 -13   29.45    5.76
   3  -2 -13   21.73    6.68
  -3  -2 -13   23.46    4.42
  -3  -2  13   24.97    8.04
  -3   2 -14    4.56    3.29
  -3  -2 -14    6.16    2.55
   3   2 -14    8.75    5.49
   3  -2 -14    9.90    5.61
  -3   2 -14    2.69    2.46
   3  -2 -14    2.70    1.11
  -3  -2 -14    9.73    3.54
  -3  -2  14   11.45    3.98
  -3   2 -15   34.37    9.92
  -3  -2 -15   42.71   10.34
   3   2 -15   29.59    7.39
   3  -2 -15   31.01    8.13
  -3   2 -15   21.20    6.73
  -3  -2 -15   34.98    6.48
  -3  -2  15   28.47    8.52
  -3   2 -16   31.37    8.49
  -3  -2 -16   37.05    7.96
   3   2 -16   35.08    8.63
   3  -2 -16   32.61    8.42
  -3   2 -16   24.76    9.03
  -3  -2 -16   39.36   10.10
  -3  -2  16   22.22    6.11
  -3   2 -17   49.65   10.73
  -3  -2 -17   65.76   15.14
   3   2 -17   56.01   18.89
   3  -2 -17   48.94   11.68
  -3  -2 -17   57.50   11.69
  -3  -2  17   48.81   12.87
  -3   2 -18    4.88    3.98
  -3  -2 -18    1.25    5.35
   3   2 -18    6.31    3.25
   3  -2 -18    4.37    6.21
  -3  -2 -18    5.00    2.77
  -3  -2  18   10.38    4.07
  -3   2 -19    9.53    2.93
  -3  -2 -19   11.69    6.26
   3   2 -19   12.34    7.02
   3  -2 -19    8.64    4.46
  -3  -2 -19    9.85    3.93
  -3  -2  19   17.65    6.54
  -3  -2 -20   19.07    9.23
   3   2 -20   21.96    9.36
   3  -2 -20   26.75   10.79
  -3  -2  20   13.93    6.51
  -3   3   0 3678.84   76.76
  -3  -3   0 3702.04   77.06
   3   3   0 3364.43   70.14
  -3  -3   0 3643.16   76.20
   3   3   0 3586.48   75.16
  -3  -3  -1 1084.64   22.29
  -3   3   1 1120.35   25.42
  -3   3  -1 1098.13   24.96
   3  -3   1 1046.19   23.80
   3   3  -1 1076.19   22.23
  -3  -3  -1 1067.29   22.00
  -3  -3   1 1058.66   21.88
  -3  -3  -1 1124.99   25.75
  -3  -3   1 1122.25   25.07
   3   3   1 1027.00   23.34
   3   3  -1 1040.51   23.32
  -3  -3  -1 1053.68   24.01
  -3  -3   1 1059.37   25.85
  -3   3   2  271.16    8.37
  -3   3  -2  288.88    8.83
   3   3  -2  296.63    8.30
  -3  -3  -2  272.20    7.14
  -3  -3   2  276.77    6.89
   3   3   2  270.80    6.61
  -3  -3  -2  279.14   11.87
  -3   3   2  274.10    6.01
  -3  -3   2  273.70    8.71
  -3   3   3  591.88   15.03
  -3   3  -3  588.60   16.44
   3   3  -3  598.56   13.95
  -3  -3  -3  614.57   14.30
  -3  -3   3  592.61   13.74
   3   3   3  574.25   13.18
  -3  -3  -3  600.61   15.54
  -3  -3   3  600.62   14.37
   3   3  -3  588.10   14.04
   3  -3  -3  604.60   14.81
  -3   3   3  593.41   13.00
  -3   3  -4  105.90    8.94
   3   3  -4   90.66   10.24
  -3  -3   4   92.87   12.20
   3   3   4  109.33    7.83
   3  -3  -4  121.40    9.50
  -3  -3  -4  102.28   12.72
  -3  -3   4  107.69    8.67
   3  -3  -4  112.32   13.79
   3   3  -4   96.28    8.30
  -3  -3   4  109.38    8.93
  -3   3  -5  499.54   23.70
   3   3  -5  497.32   23.07
   3   3   5  448.16   20.71
   3  -3  -5  526.80   25.20
  -3  -3  -5  485.35   23.72
  -3  -3   5  515.09   23.21
   3  -3  -5  484.15   22.28
  -3  -3   5  506.78   23.95
  -3   3  -6   67.50   15.13
   3   3  -6   65.08    7.81
  -3  -3  -6   75.38   15.86
   3  -3  -6   81.04   17.11
  -3   3  -6   74.30   12.39
  -3  -3  -6   77.83   10.96
   3  -3  -6   70.29    9.23
  -3  -3   6   63.27    7.07
  -3   3   6   70.03    7.95
  -3  -3   6   79.81   18.73
  -3   3  -7  455.88   23.40
   3   3  -7  366.84   18.91
  -3  -3  -7  392.09   20.08
   3  -3  -7  407.43   22.27
  -3   3  -7  397.04   24.85
  -3  -3   7  411.60   19.63
  -3  -3  -7  401.35   20.63
   3  -3  -7  424.75   20.58
  -3  -3   7  439.51   20.94
  -3   3   7  376.47   18.48
  -3  -3   7  382.88   22.87
  -3   3  -8  117.75   17.74
   3   3  -8  112.29   14.29
  -3  -3  -8  112.58   21.74
   3  -3  -8  141.27   21.43
  -3   3  -8  127.07   17.88
  -3  -3   8  123.52    7.71
  -3  -3  -8  111.26   12.73
   3  -3  -8  134.08    9.27
  -3  -3   8  128.31    8.10
  -3   3   8  112.25   14.82
  -3  -3   8  147.09   27.11
  -3   3  -9  224.99   23.52
   3   3  -9  209.24   23.93
  -3  -3  -9  211.16   19.84
   3  -3  -9  229.16   21.35
  -3   3  -9  252.68   20.90
  -3  -3   9  210.67   13.07
  -3  -3  -9  229.47   19.15
   3  -3  -9  233.69   14.69
  -3   3   9  202.37   14.48
  -3  -3   9  221.11   13.82
  -3  -3   9  268.70   33.61
  -3   3 -10  148.49   25.43
   3   3 -10  161.84   22.92
  -3  -3 -10  177.95   29.27
   3  -3 -10  164.16   24.53
  -3   3 -10  159.42   15.03
  -3  -3  10  141.33    9.30
  -3  -3 -10  139.57   21.33
   3  -3 -10  155.08   12.82
  -3  -3  10  162.42   15.42
  -3  -3  10  185.49   32.11
  -3   3 -11   14.77    7.71
   3   3 -11   14.05    7.51
  -3  -3 -11   12.01    4.99
   3  -3 -11    5.22    3.99
  -3   3 -11   18.41    6.58
  -3  -3 -11    9.09    3.68
  -3  -3  11    6.84    2.24
   3  -3 -11    6.07    2.65
  -3  -3  11   11.33    3.45
  -3  -3  11    7.98    3.44
  -3   3 -12  458.01   45.55
   3   3 -12  388.85   22.67
  -3  -3 -12  376.09   22.31
   3  -3 -12  420.71   56.83
  -3   3 -12  442.86   26.86
  -3  -3 -12  419.07   32.66
   3  -3 -12  401.41   21.04
  -3  -3  12  367.31   18.35
  -3  -3  12  389.46   19.62
  -3  -3  12  429.17   24.34
  -3   3 -13   16.18    4.35
   3   3 -13   22.71    7.20
  -3  -3 -13   10.49    5.18
   3  -3 -13   12.03    3.83
  -3  -3 -13   13.76    3.33
   3  -3 -13   13.64    4.01
  -3  -3  13   11.21    3.30
  -3  -3  13   19.88    6.27
  -3   3 -14   53.72   12.57
   3   3 -14   55.39   13.83
  -3  -3 -14   58.73   16.32
   3  -3 -14   68.67   11.10
   3  -3 -14   52.30    7.98
  -3  -3 -14   61.91   14.93
  -3  -3  14   63.38   15.53
  -3   3 -15  111.88   20.84
   3   3 -15  116.32   22.12
  -3  -3 -15  139.03   27.63
   3  -3 -15  147.84   27.14
  -3  -3 -15  107.67   15.56
  -3  -3  15  136.76   17.45
  -3   3 -16   13.49    5.44
   3   3 -16   11.53    5.54
  -3  -3 -16   14.63    5.78
   3  -3 -16   31.14    7.48
  -3  -3 -16   15.97    5.88
  -3  -3  16   14.11    6.12
  -3   3 -17   33.59    6.55
   3   3 -17   33.53    9.07
  -3  -3 -17   38.02   10.45
   3  -3 -17   45.68    9.96
  -3  -3 -17   33.04   10.99
  -3  -3  17   31.96   12.37
  -3   3 -18    3.47    3.95
   3   3 -18    6.91    5.31
  -3  -3 -18   11.44    4.29
   3  -3 -18    9.77    5.81
  -3  -3 -18    3.83    3.25
  -3  -3  18    6.31    3.89
  -3   3 -19    3.81    3.28
   3   3 -19   15.91    3.76
  -3  -3 -19   19.67    6.73
   3  -3 -19   13.22    3.36
  -3  -3 -19   10.80    4.21
  -3   3 -20    5.97    4.53
   3   3 -20   14.57    5.37
  -3  -3 -20   15.50    8.47
   3  -3 -20    8.22    7.23
  -3  -3 -20    2.18    1.64
   3   4   0   89.89    7.30
  -3   4   0   95.34   16.22
  -3  -4   0   76.29    6.13
  -3  -4   0   99.30   16.61
  -3  -4   0   72.18    8.90
  -3   4   1  574.58   15.00
  -3  -4  -1  570.96   12.27
  -3   4  -1  606.53   15.52
   3   4  -1  580.78   12.55
  -3  -4   1  593.20   12.85
  -3  -4  -1  566.30   12.59
  -3  -4  -1  593.68   16.19
  -3  -4   1  603.66   18.86
   3   4  -1  543.60   13.97
  -3  -4  -1  584.46   15.18
  -3  -4   1  582.84   16.42
  -3  -4  -2  221.32    5.68
  -3   4   2  212.63   10.60
  -3   4  -2  272.10   13.09
   3   4  -2  228.65    6.08
  -3  -4   2  246.92    8.42
  -3  -4  -2  222.25    5.97
  -3  -4  -2  227.01   12.19
   3   4  -2  215.19    7.26
   3  -4  -2  254.22   10.83
  -3  -4  -2  211.61    7.63
  -3   4   3  318.65   15.75
  -3   4  -3  268.35   18.40
   3   4  -3  296.50   25.06
  -3  -4   3  263.54   17.50
  -3  -4  -3  287.32   18.85
   3   4   3  278.88   18.19
  -3  -4  -3  309.24   15.58
   3   4  -3  286.25   19.14
   3  -4  -3  282.03   19.40
  -3  -4   3  300.27   15.01
  -3   4   3  277.87   17.73
  -3   4  -4  119.52   10.72
   3   4  -4  133.89    9.50
  -3  -4   4  105.76    7.73
  -3  -4  -4  118.62    8.57
   3   4   4  101.43    9.33
   3  -4  -4  115.34   13.84
  -3  -4  -4  143.97   14.53
  -3  -4   4  111.57    9.48
   3  -4  -4  114.51   11.98
   3   4  -4   98.00   17.35
  -3  -4   4  113.63    9.99
  -3   4  -5  312.71   16.15
   3   4  -5  281.41   18.93
   3  -4  -5  299.03   15.72
  -3  -4  -5  283.07   19.56
  -3  -4   5  306.89   14.87
   3  -4  -5  303.21   15.33
  -3  -4   5  309.17   16.27
  -3   4  -6  550.47   28.35
   3   4  -6  622.07   31.74
  -3  -4  -6  562.41   27.68
   3  -4  -6  645.44   30.91
  -3  -4  -6  599.77   28.48
   3  -4  -6  617.69   28.40
  -3  -4   6  613.79   27.98
  -3  -4   6  517.59   24.68
  -3   4  -7  381.38   21.24
   3   4  -7  376.79   19.56
  -3  -4  -7  348.72   18.16
   3  -4  -7  411.12   22.75
  -3  -4  -7  338.33   19.79
   3  -4  -7  386.43   19.32
  -3  -4   7  378.84   18.78
  -3  -4   7  378.20   20.33
  -3   4  -8   29.67    6.77
   3   4  -8   35.72    7.36
  -3  -4  -8   38.04    7.57
   3  -4  -8   43.61    8.17
  -3  -4   8   24.53    5.07
  -3  -4  -8   31.85    7.82
   3  -4  -8   30.90    7.54
  -3  -4   8   35.10    7.21
  -3  -4   8   35.73    7.46
  -3   4  -9   28.46    9.87
   3   4  -9   21.67    5.18
  -3  -4  -9   21.71    6.16
   3  -4  -9   29.10    5.93
  -3  -4   9   17.78    4.18
  -3  -4  -9   25.04    5.73
   3  -4  -9   27.98    6.21
  -3  -4   9   28.30    7.13
  -3  -4   9   34.23    7.12
  -3   4 -10  103.98   25.70
   3   4 -10   83.85   14.22
  -3  -4 -10  100.68   23.22
   3  -4 -10  110.10   19.77
  -3  -4  10   68.24    9.44
  -3  -4 -10   99.55   13.56
   3  -4 -10   89.67   10.37
  -3  -4  10   83.48    7.87
  -3  -4  10   88.88   14.80
  -3   4 -11  260.26   16.25
   3   4 -11  223.88   21.41
  -3  -4 -11  232.94   36.70
   3  -4 -11  271.06   27.65
  -3  -4  11  206.49    6.50
  -3  -4 -11  262.01   19.96
   3  -4 -11  262.30   19.72
  -3  -4  11  222.49    6.12
  -3  -4  11  242.41   36.23
  -3   4 -12   39.01    9.44
   3   4 -12   26.69   12.06
  -3  -4 -12   31.92    7.40
   3  -4 -12   30.16    8.33
  -3  -4 -12   38.76   11.04
   3  -4 -12   30.23    7.39
  -3  -4  12   27.89    6.81
  -3  -4  12   29.84    8.44
  -3   4 -13   95.23   22.77
   3   4 -13   66.85   13.88
  -3  -4 -13   66.08   11.08
   3  -4 -13   88.74   15.37
  -3  -4 -13   88.76   20.59
   3  -4 -13   70.91    7.15
  -3  -4  13   59.15    9.33
  -3  -4  13   83.32   18.17
  -3   4 -14   21.20    5.49
   3   4 -14   21.66    5.68
  -3  -4 -14   27.47    5.94
   3  -4 -14   31.60    8.23
  -3  -4 -14   18.90    4.03
   3  -4 -14   16.10    4.94
  -3  -4  14   13.66    4.77
  -3  -4  14   22.77    5.21
  -3   4 -15   24.62    9.23
   3   4 -15   24.35    5.68
  -3  -4 -15   24.22    6.63
   3  -4 -15   20.12    7.24
  -3  -4 -15    9.90    2.77
   3  -4 -15   11.06    4.37
  -3  -4  15   11.02    4.07
  -3   4 -16    9.62    4.33
   3   4 -16   24.40    5.89
  -3  -4 -16   36.64   10.95
   3  -4 -16   18.80    7.90
  -3  -4 -16   27.80    8.27
  -3  -4  16   31.37    6.93
  -3   4 -17   30.46   10.32
   3   4 -17   35.40   11.85
  -3  -4 -17   41.69    9.26
   3  -4 -17   24.03    8.58
  -3  -4 -17   41.33   12.76
  -3  -4  17   39.19   11.00
  -3   4 -18   19.98    6.29
   3   4 -18   29.79    8.68
  -3  -4 -18   20.79    7.28
   3  -4 -18   15.18    7.42
  -3  -4 -18   23.73    5.76
  -3  -4  18   16.45    9.73
  -3   4 -19   15.15    7.09
   3   4 -19   10.36    4.74
  -3  -4 -19   13.91    5.63
   3  -4 -19    7.25    3.52
  -3  -4 -19    4.98    3.15
  -3  -4  19    8.39    3.25
  -3   4 -20    4.44    3.41
   3   4 -20    6.75    3.28
  -3  -4 -20    6.74    6.00
   3  -4 -20    6.19    5.67
  -3  -4 -20    0.46    1.56
  -3  -4  20    4.16    3.53
  -3   5   0  306.84   15.49
  -3  -5   0  305.39   13.70
  -3  -5   0  329.34   16.57
  -3  -5   0  304.17   14.94
   3  -5   0  330.90   14.90
  -3   5   1  117.89    9.20
  -3   5  -1  136.39   10.06
   3   5  -1  117.98    8.02
  -3  -5  -1  118.72    7.98
  -3  -5   1  139.95    9.38
  -3  -5  -1  124.23    8.54
  -3  -5  -1  121.75    9.74
  -3  -5   1  160.17   20.08
   3  -5  -1  159.63   24.64
  -3  -5  -1  110.41    8.35
  -3  -5   1  151.31   22.09
   3  -5   1  116.22    7.95
  -3   5   2  256.51   18.93
  -3  -5  -2  249.04   16.15
  -3   5  -2  259.15   18.39
   3   5  -2  269.19   17.53
  -3  -5   2  240.62   15.89
  -3  -5  -2  257.19   16.85
  -3  -5  -2  264.50   19.69
  -3  -5   2  243.39   17.76
   3  -5  -2  261.66   18.41
  -3  -5  -2  260.92   18.11
  -3  -5   2  259.01   17.85
  -3  -5  -3  313.70   14.44
  -3   5   3  343.95   18.98
  -3   5  -3  353.91   17.36
   3   5  -3  326.08   15.15
  -3  -5   3  343.89   15.97
  -3  -5  -3  318.81   15.25
  -3  -5  -3  335.84   16.98
  -3  -5   3  352.17   17.29
   3  -5  -3  374.64   23.51
  -3   5   3  317.86   13.94
  -3  -5   3  356.67   17.76
  -3   5  -4    4.84    2.49
   3   5  -4    2.12    2.63
  -3  -5   4    4.42    2.04
  -3  -5  -4    5.92    2.56
   3   5   4    4.26    1.15
   3  -5  -4   12.08    3.36
  -3  -5  -4    5.77    2.90
   3  -5  -4    4.06    2.44
  -3  -5   4    5.03    2.81
  -3   5  -5   25.41    6.85
   3   5  -5   28.09    5.15
   3  -5  -5   24.07    6.05
  -3  -5  -5   30.43    8.98
  -3  -5   5   15.39    4.44
   3  -5  -5   20.50    5.97
  -3  -5   5   28.35    7.60
  -3   5  -6  293.82   31.52
   3   5  -6  264.41   22.90
   3  -5  -6  248.87   25.23
  -3  -5  -6  252.49   25.69
   3  -5  -6  279.19   23.47
  -3  -5   6  271.36   14.32
  -3  -5   6  305.89   30.62
  -3   5  -7  287.83   33.32
   3   5  -7  224.64   18.31
  -3  -5  -7  237.35   15.37
   3  -5  -7  297.89   38.14
  -3  -5  -7  224.01   18.38
   3  -5  -7  242.90   15.37
  -3  -5   7  225.94   14.23
  -3  -5   7  248.09   16.97
  -3   5  -8   26.49    5.75
   3   5  -8   20.36    4.21
  -3  -5  -8   12.61    6.28
   3  -5  -8   26.34    6.83
  -3  -5  -8   11.65    3.37
   3  -5  -8   25.21    5.01
  -3  -5   8   16.96    4.92
  -3  -5   8   24.13    6.47
  -3   5  -9  161.93   21.39
   3   5  -9  146.15   24.75
  -3  -5  -9  144.39   28.76
   3  -5  -9  153.55   23.83
  -3  -5  -9  137.87   24.85
   3  -5  -9  152.69   12.16
  -3  -5   9  140.25   12.72
  -3  -5   9  174.26   29.55
  -3   5 -10   23.50    5.31
   3   5 -10   22.30    4.26
  -3  -5 -10   17.83    7.44
   3  -5 -10   17.48    5.52
  -3  -5 -10   20.29    4.33
   3  -5 -10   17.56    4.58
  -3  -5  10   14.25    3.83
  -3  -5  10   22.34    4.94
  -3   5 -11   21.48    8.61
   3   5 -11   22.41    7.60
  -3  -5 -11   13.32    5.77
   3  -5 -11    7.84    4.88
  -3  -5 -11   16.30    4.95
   3  -5 -11   11.26    5.47
  -3  -5  11   14.02    3.67
  -3  -5  11   31.48    9.63
  -3   5 -12   22.99    7.10
   3   5 -12   15.72    4.58
  -3  -5 -12   20.46    7.63
   3  -5 -12   19.56    6.07
  -3  -5 -12    6.14    4.21
   3  -5 -12   16.74    4.88
  -3  -5  12   16.89    4.55
  -3  -5  12   11.27    4.74
  -3   5 -13   57.46   12.50
   3   5 -13   51.27    9.09
  -3  -5 -13   40.38    6.65
   3  -5 -13   64.25   19.06
  -3  -5 -13   61.78   14.47
   3  -5 -13   51.75    7.90
  -3  -5  13   46.90   10.73
  -3  -5  13   66.17   14.66
  -3   5 -14   12.47    4.89
   3   5 -14   16.38    4.48
  -3  -5 -14   12.99    6.57
   3  -5 -14   16.88    7.40
  -3  -5 -14    4.86    3.48
   3  -5 -14   10.88    3.65
  -3  -5  14    6.04    2.26
  -3  -5  14   17.83    6.15
  -3   5 -15   92.62   18.28
   3   5 -15   85.93   18.01
  -3  -5 -15   77.84   15.65
   3  -5 -15  110.29   19.24
  -3  -5 -15   99.94   27.12
   3  -5 -15   83.85   11.49
  -3  -5  15  121.96   18.58
  -3   5 -16   21.09    4.51
   3   5 -16   21.82    6.35
  -3  -5 -16   11.37    5.43
   3  -5 -16   14.07    4.99
  -3  -5 -16    5.32    3.04
  -3  -5  16    5.95    3.82
  -3   5 -17   12.20    4.26
   3   5 -17    6.48    5.57
  -3  -5 -17   17.11    6.84
   3  -5 -17   16.21    5.96
  -3  -5 -17    6.72    3.86
  -3  -5  17   10.81    5.94
  -3   5 -18   -2.11    4.23
   3   5 -18   10.23    4.50
  -3  -5 -18    4.31    4.21
   3  -5 -18    7.69    4.38
  -3  -5 -18    6.30    2.43
  -3  -5  18   19.21   10.08
  -3   5 -19   16.18    5.85
   3   5 -19   17.52    5.69
  -3  -5 -19   18.33    4.15
   3  -5 -19   29.74   11.06
  -3  -5 -19   14.63    6.12
  -3  -5  19   24.95   10.33
   3   6   0  860.21   37.85
  -3   6   0  813.18   37.17
  -3  -6   0  803.94   35.38
  -3  -6   0  859.07   39.42
   3  -6   0  809.02   37.18
  -3  -6   0  810.65   36.99
   3  -6   0  848.83   37.24
  -3   6   1  126.89   21.19
   3   6  -1  121.29    8.39
  -3   6  -1  127.85   14.06
  -3  -6  -1  108.93    7.49
  -3  -6   1  103.93    7.25
  -3  -6  -1  121.95    8.47
  -3  -6  -1  120.51   10.13
  -3  -6   1  117.28   12.51
   3  -6  -1  128.73   17.41
   3  -6  -1  108.87    7.15
  -3  -6  -1  106.85   20.09
  -3  -6   1  102.96   12.54
   3  -6   1  115.64    8.09
  -3   6   2   33.35    7.30
  -3  -6  -2   28.62    4.36
  -3   6  -2   47.65   10.43
   3   6  -2   32.76    7.88
  -3  -6   2   34.78    7.21
  -3  -6  -2   35.77    8.08
  -3  -6  -2   36.66    7.62
  -3  -6   2   46.93    9.27
   3  -6  -2   45.71   11.68
  -3  -6  -2   39.55    8.98
  -3  -6   2   51.17    9.79
   3  -6   2   29.85    6.83
  -3   6   3  587.70   27.77
  -3  -6  -3  555.39   24.95
  -3   6  -3  555.69   26.47
   3   6  -3  590.28   27.76
  -3  -6   3  499.99   22.74
  -3  -6  -3  582.58   26.38
  -3  -6  -3  532.91   25.97
  -3  -6   3  546.35   26.23
   3  -6  -3  526.38   29.45
  -3  -6   3  553.47   26.26
  -3   6   3  580.59   25.30
  -3   6   4  184.54   12.47
  -3  -6  -4  148.42   13.58
  -3   6  -4  181.43   28.04
   3   6  -4  202.73   12.49
  -3  -6  -4  183.68   12.29
  -3  -6  -4  194.01   14.09
  -3  -6   4  189.45   12.83
   3  -6  -4  183.46   30.68
  -3   6   4  191.24   11.02
  -3  -6   4  170.89   15.57
  -3   6  -5  564.50   29.72
   3   6  -5  589.99   28.51
   3  -6  -5  602.92   30.39
  -3  -6  -5  572.58   30.66
   3  -6  -5  665.82   33.24
  -3  -6   5  552.80   27.97
  -3   6  -6   60.12   10.15
   3   6  -6   64.56   15.45
   3  -6  -6   73.04   13.97
  -3  -6  -6   70.19   11.92
   3  -6  -6   72.11   14.93
  -3  -6   6   68.72   11.09
   3   6  -7  342.60   33.50
  -3  -6  -7  309.09   20.26
   3  -6  -7  337.72   23.35
  -3  -6  -7  404.38   39.31
   3  -6  -7  364.12   23.56
  -3  -6   7  385.53   26.61
  -3   6  -8  101.37   15.57
   3   6  -8   80.75   21.12
  -3  -6  -8   69.30   15.73
   3  -6  -8   90.88   12.82
  -3  -6  -8   77.07   13.11
   3  -6  -8   84.82    9.01
  -3  -6   8   82.43   15.34
  -3  -6   8   89.87   19.30
  -3   6  -9   49.01    8.84
   3   6  -9   42.81    9.04
  -3  -6  -9   71.55   14.00
   3  -6  -9   51.49   12.00
  -3  -6  -9   46.72   10.77
   3  -6  -9   44.29    9.39
  -3  -6   9   46.84    8.86
  -3  -6   9   46.50    9.83
  -3   6 -10   28.70    8.50
   3   6 -10   38.27    7.97
  -3  -6 -10   42.89    8.89
   3  -6 -10   40.83   11.10
  -3  -6 -10   49.57    9.19
   3  -6 -10   28.86    8.32
  -3  -6  10   29.44    8.14
  -3  -6  10   39.60   11.62
  -3   6 -11   62.72   11.29
   3   6 -11   63.90   14.25
  -3  -6 -11   77.35   11.46
   3  -6 -11   70.22   14.07
  -3  -6 -11   84.28   16.27
   3  -6 -11   59.20   11.38
  -3  -6  11   49.54   12.91
  -3  -6  11   70.30   15.95
  -3   6 -12  147.12   17.04
   3   6 -12  179.45   22.78
  -3  -6 -12  164.61   26.77
   3  -6 -12  179.23   36.33
  -3  -6 -12  183.79   20.00
   3  -6 -12  146.34   21.84
  -3  -6  12  146.97   17.89
  -3  -6  12  185.00   16.76
  -3   6 -13    5.97    5.87
   3   6 -13    9.60    3.13
  -3  -6 -13    3.41    2.44
   3  -6 -13   14.20    6.31
  -3  -6 -13    4.51    2.34
   3  -6 -13    6.49    4.23
  -3  -6  13    3.86    2.51
  -3  -6  13    7.42    7.22
  -3   6 -14   31.62    8.87
   3   6 -14   19.56    4.40
  -3  -6 -14   22.68    5.61
   3  -6 -14   20.77    6.64
  -3  -6 -14   29.44    8.72
   3  -6 -14   15.03    7.12
  -3  -6  14   24.50    7.13
  -3  -6  14   40.61   11.41
  -3   6 -15   53.04    9.88
   3   6 -15   37.00   12.22
  -3  -6 -15   35.56   13.61
   3  -6 -15   42.69    9.07
  -3  -6 -15   57.18   15.55
   3  -6 -15   27.53    9.02
  -3  -6  15   52.94   11.84
  -3   6 -16   14.67    6.40
   3   6 -16   17.67    6.12
  -3  -6 -16   18.09    6.04
   3  -6 -16   27.03    7.81
  -3  -6 -16   19.39    9.25
  -3  -6  16   28.86    8.21
  -3   6 -17   27.59   10.59
   3   6 -17   31.67    6.90
  -3  -6 -17   33.26    8.65
   3  -6 -17   36.54    8.06
  -3  -6 -17   28.85    8.10
  -3  -6  17   35.80   14.97
  -3   6 -18   13.26    5.95
   3   6 -18    5.50    5.20
  -3  -6 -18    8.12    3.79
   3  -6 -18   20.69    9.29
  -3  -6 -18    8.44    4.47
  -3  -6  18   21.60    4.93
  -3   6 -19   21.68    4.44
   3   6 -19    7.09    5.25
  -3  -6 -19   20.02    7.73
   3  -6 -19   11.95    7.55
  -3  -6  19   18.85    6.20
   3   7   0    7.65    1.86
  -3   7   0    5.10    2.34
  -3  -7   0    5.59    1.77
  -3  -7   0    9.79    3.33
   3  -7   0   14.21    5.04
  -3  -7   0   10.19    3.03
   3  -7   0    9.25    2.00
   3   7   1   69.88    8.38
  -3   7   1   64.02   13.30
   3   7  -1   70.02    7.60
  -3   7  -1   76.57   11.13
  -3  -7  -1   58.63    7.85
  -3  -7   1   60.04    6.85
  -3  -7  -1   75.06   14.97
  -3  -7   1   64.67   11.57
   3  -7  -1   68.24   13.32
   3  -7   1   75.74   14.42
   3  -7  -1   69.56    5.63
  -3  -7  -1   68.60    7.51
  -3  -7   1   65.81   12.38
   3  -7   1   70.26    9.55
  -3   7   2  100.32   16.12
  -3  -7  -2   97.74   10.55
  -3   7  -2  119.11   18.46
   3   7  -2  109.37    8.06
  -3  -7   2  100.63   11.14
  -3  -7  -2  113.92    7.64
  -3  -7  -2  112.71   23.49
  -3  -7   2  134.83   27.45
   3  -7  -2  134.56   25.72
  -3  -7  -2  120.30   15.85
  -3  -7   2  127.56   21.89
   3  -7   2  118.95   11.37
  -3   7   3  406.26   21.53
  -3  -7  -3  354.32   17.63
  -3   7  -3  378.11   27.20
   3   7  -3  405.19   21.00
  -3  -7   3  340.07   16.70
  -3  -7  -3  401.17   21.04
  -3  -7  -3  312.13   19.57
  -3  -7   3  418.35   22.07
   3  -7  -3  352.35   21.90
  -3  -7   3  359.08   18.94
  -3   7   3  382.25   17.86
   3  -7   3  400.26   20.18
  -3   7   4  190.79   21.58
  -3   7  -4  211.12   24.69
   3   7  -4  161.57   10.35
  -3  -7  -4  185.17   11.88
  -3  -7  -4  185.87   27.83
  -3  -7   4  169.51   12.38
   3  -7  -4  177.83   17.51
  -3  -7   4  159.11   12.84
   3  -7   4  186.26   15.47
  -3   7  -5  131.41   24.00
   3   7  -5  150.47    7.72
   3  -7  -5  168.43   17.71
  -3  -7   5  139.59   15.74
   3  -7  -5  145.60   12.71
  -3   7   5  124.50    4.51
  -3  -7   5  152.52   13.46
  -3   7  -6   70.73   12.74
   3   7  -6   61.96   14.58
   3  -7  -6   82.98   14.31
  -3  -7  -6   86.01   14.51
   3  -7  -6   73.64   11.80
  -3  -7   6   69.54   17.65
  -3  -7   6   73.99   15.35
  -3   7  -7   44.75    7.93
   3   7  -7   42.25    6.82
  -3  -7  -7   47.44    9.61
   3  -7  -7   37.73    9.61
  -3  -7  -7   56.47   16.07
   3  -7  -7   36.92    8.99
  -3  -7   7   43.92    8.20
  -3   7  -8   35.64    6.80
   3   7  -8   31.92    7.00
  -3  -7  -8   22.46    5.53
   3  -7  -8   39.82   11.19
  -3  -7  -8   43.44    9.28
   3  -7  -8   36.74    9.66
  -3  -7   8   42.27    7.02
  -3  -7   8   31.49    9.73
  -3   7  -9  220.39   18.81
   3   7  -9  218.42   22.25
  -3  -7  -9  210.30   28.23
   3  -7  -9  226.35   42.43
  -3  -7  -9  237.45   27.17
   3  -7  -9  216.92   32.22
  -3  -7   9  213.48   32.40
  -3  -7   9  246.22   34.16
  -3   7 -10   48.76   10.17
   3   7 -10   38.61    7.54
  -3  -7 -10   39.61    9.81
   3  -7 -10   58.34   12.67
  -3  -7 -10   41.20    9.88
   3  -7 -10   33.53   11.64
  -3  -7  10   40.48    7.58
  -3  -7  10   47.26   10.72
  -3   7 -11   93.40   15.09
   3   7 -11   63.23   13.54
  -3  -7 -11   63.76   16.18
   3  -7 -11   79.21   17.43
  -3  -7 -11   75.67   19.18
   3  -7 -11   86.75    8.37
  -3  -7  11   64.53   15.02
  -3  -7  11   94.68   14.89
  -3   7 -12   10.86    4.47
   3   7 -12    7.95    3.43
  -3  -7 -12    6.17    4.97
   3  -7 -12    9.85    6.05
  -3  -7 -12   10.05    3.95
   3  -7 -12    6.16    2.60
  -3  -7  12    3.40    2.61
  -3  -7  12    7.68    5.54
  -3   7 -13   69.62   19.11
   3   7 -13   56.15   16.77
  -3  -7 -13   53.07   12.46
   3  -7 -13   74.66   13.21
  -3  -7 -13   59.15    9.91
   3  -7 -13   58.30   18.06
  -3  -7  13   45.37   12.56
  -3  -7  13   71.44   15.56
  -3   7 -14   38.07    8.54
   3   7 -14   32.50    6.68
  -3  -7 -14   19.16    4.51
   3  -7 -14   42.38   11.12
  -3  -7 -14   27.18    7.57
   3  -7 -14   31.95    6.71
  -3  -7  14   24.21    6.83
  -3  -7  14   39.04    9.85
  -3   7 -15   22.59    9.43
   3   7 -15   29.99    6.80
  -3  -7 -15   41.51   11.41
   3  -7 -15   28.75    6.52
  -3  -7 -15   26.62    8.48
   3  -7 -15   15.65    5.48
  -3  -7  15   41.70   12.41
  -3   7 -16   19.34    6.03
   3   7 -16   18.61    7.78
  -3  -7 -16    6.53    3.97
   3  -7 -16   12.39    6.39
  -3  -7 -16   21.56    5.38
  -3  -7  16   14.91    5.68
  -3   7 -17    4.33    3.40
   3   7 -17    8.73    3.93
  -3  -7 -17    8.74    5.31
   3  -7 -17    8.17    3.61
  -3  -7 -17    3.91    3.42
  -3  -7  17   10.24    4.58
  -3   7 -18   11.12    5.62
   3   7 -18    7.76    3.59
  -3  -7 -18   12.18    6.71
   3  -7 -18   10.58    4.73
  -3  -7 -18   12.27    4.74
  -3  -7  18    8.20    5.34
   3   7 -19   11.78    3.88
  -3  -7 -19   14.69    6.00
   3  -7 -19   14.13    4.87
  -3  -7 -19    4.09    2.90
  -3  -7  19   10.29    3.38
   3   8   0   99.50   10.26
  -3   8   0  109.73   20.03
  -3  -8   0   83.86    7.59
  -3  -8   0  108.65   20.81
   3  -8   0   94.80   24.14
  -3  -8   0   93.35   19.02
   3  -8   0  110.02   12.31
   3   8   1   49.50    8.70
  -3   8   1   38.77    7.62
   3   8  -1   43.53    7.82
  -3   8  -1   55.89   11.88
  -3  -8  -1   33.02    6.99
  -3  -8   1   28.99    7.67
  -3  -8  -1   49.97   12.09
  -3  -8   1   53.70   15.39
   3  -8  -1   51.94    8.47
   3  -8   1   36.68    8.48
   3  -8  -1   49.08    5.95
  -3  -8  -1   46.14    8.10
  -3  -8   1   48.29    9.21
   3  -8   1   45.01    5.08
  -3   8   2  185.53   15.44
  -3   8  -2  217.19   22.79
   3   8  -2  213.16   21.11
  -3  -8  -2  201.48   13.17
  -3  -8  -2  212.95   13.65
  -3  -8  -2  247.18   35.98
  -3  -8   2  195.34   17.23
   3  -8  -2  197.96   18.50
   3  -8   2  218.07   36.90
  -3  -8  -2  234.32   18.84
  -3  -8   2  187.37   27.92
   3  -8   2  217.34   15.02
  -3   8   3  201.67   19.61
  -3   8  -3  205.79   21.46
   3   8  -3  225.75   14.41
  -3  -8  -3  185.00   14.94
  -3  -8  -3  198.25   19.14
  -3  -8   3  189.51   20.80
   3  -8  -3  219.86   33.26
  -3  -8   3  204.69   15.54
  -3   8   3  183.98   11.17
   3  -8   3  218.38   21.09
  -3   8   4  208.57   33.21
  -3   8  -4  209.89   32.61
   3   8  -4  209.23   23.51
  -3  -8  -4  196.34   13.30
  -3  -8  -4  210.54   36.38
  -3  -8   4  182.58   13.84
   3  -8  -4  199.98   17.09
  -3  -8   4  217.68   35.80
  -3   8   4  173.43   10.85
   3  -8   4  203.56   20.12
  -3   8  -5  169.32   20.06
   3   8  -5  137.27   12.01
  -3  -8  -5  126.62    6.01
   3  -8  -5  133.71   19.45
  -3  -8  -5  156.91   21.87
  -3  -8   5  168.84   28.42
   3  -8  -5  155.20   18.97
  -3   8   5  119.74    3.79
  -3  -8   5  156.53   26.59
   3  -8   5  139.53   11.30
  -3   8  -6  179.89   20.09
   3   8  -6  164.18   11.89
   3  -8  -6  156.22   33.18
  -3  -8  -6  161.60   18.86
   3  -8  -6  138.81   21.79
  -3  -8   6  141.08   32.93
  -3   8   6  137.55    9.47
  -3  -8   6  168.37   24.18
   3  -8   6  186.74   17.47
  -3   8  -7  116.84   24.96
   3   8  -7   92.48   13.81
  -3  -8  -7   84.33   19.68
   3  -8  -7   93.94   17.03
  -3  -8  -7  132.51   22.48
   3  -8  -7   77.79   16.58
  -3  -8   7   94.96   19.98
  -3   8   7   76.64    7.58
  -3  -8   7  101.25   19.32
   3  -8   7   93.24   20.38
  -3   8  -8    6.18    3.51
   3   8  -8   22.04    6.66
  -3  -8  -8   17.73    6.69
   3  -8  -8   17.14    5.19
  -3  -8  -8   18.13    8.65
   3  -8  -8   20.17    5.75
  -3  -8   8   23.56    7.35
  -3   8  -9   71.91   12.86
   3   8  -9   84.31   19.90
  -3  -8  -9   59.89   16.45
   3  -8  -9   63.95   11.95
  -3  -8  -9   73.72   13.40
   3  -8  -9   57.20   12.49
  -3  -8   9   78.86   14.17
  -3   8 -10  117.05   16.28
   3   8 -10   92.87   22.01
  -3  -8 -10   82.32   14.85
   3  -8 -10   90.45   22.76
  -3  -8 -10   97.99   23.04
   3  -8 -10  100.57   18.43
  -3  -8  10   99.80   26.12
  -3  -8  10  107.99   18.34
  -3   8 -11   10.25    5.47
   3   8 -11   10.27    3.57
  -3  -8 -11    4.55    2.58
   3  -8 -11   14.13    3.38
  -3  -8 -11   16.32    5.96
   3  -8 -11    9.28    5.06
  -3  -8  11    7.81    4.62
  -3  -8  11    9.82    4.53
  -3   8 -12    7.23    5.22
   3   8 -12    8.70    4.62
  -3  -8 -12    8.55    4.01
   3  -8 -12   19.16    7.01
  -3  -8 -12   26.81    7.97
   3  -8 -12   21.40    6.71
  -3  -8  12   10.60    4.77
  -3  -8  12   18.25    9.02
  -3   8 -13   24.95    7.14
   3   8 -13   35.04    7.54
  -3  -8 -13   26.36    6.95
   3  -8 -13   20.76    7.21
  -3  -8 -13   29.47   10.09
   3  -8 -13   30.78    7.71
  -3  -8  13   29.40    8.42
  -3  -8  13   34.48   12.70
  -3   8 -14   13.85    4.63
   3   8 -14   27.00    6.51
  -3  -8 -14   29.52    6.72
   3  -8 -14   29.66   13.45
  -3  -8 -14   29.24    5.55
   3  -8 -14   12.76    4.45
  -3  -8  14   20.71    7.61
  -3  -8  14   12.27    5.38
  -3   8 -15   10.75    4.33
   3   8 -15   15.78    4.60
  -3  -8 -15   21.00    4.91
   3  -8 -15   13.64    6.29
  -3  -8 -15   23.60    8.81
   3  -8 -15   12.23    5.85
  -3  -8  15   23.84    9.68
  -3   8 -16    7.61    5.42
   3   8 -16    8.01    4.11
  -3  -8 -16    2.44    2.49
   3  -8 -16   14.18    4.27
  -3  -8 -16    7.14    3.00
  -3  -8  16    9.81    5.05
  -3   8 -17   22.21    5.99
   3   8 -17   25.57    4.09
  -3  -8 -17   21.92    8.33
   3  -8 -17   11.08    6.25
  -3  -8 -17   15.83    7.49
  -3  -8  17   24.03    5.95
  -3   8 -18   23.14    7.67
   3   8 -18   18.45    7.58
  -3  -8 -18   16.67    7.68
   3  -8 -18   12.49    4.16
  -3  -8 -18   10.27    3.89
  -3  -8  18   19.63    6.15
   3   9   0  253.04   22.73
  -3   9   0  228.61   21.68
  -3  -9   0  234.46   30.37
   3  -9   0  269.95   34.10
  -3  -9   0  245.27   20.41
   3  -9   0  243.70   15.09
   3   9   1   37.23    7.68
  -3   9   1   33.87    7.09
   3   9  -1   23.15    5.60
  -3   9  -1   24.30    5.95
  -3  -9  -1   30.73    7.41
  -3  -9   1   38.21    7.74
   3  -9  -1   37.07   10.22
   3  -9   1   31.12    7.05
   3  -9  -1   32.04    6.97
  -3  -9  -1   23.83    5.08
  -3  -9   1   38.45    8.16
   3  -9   1   27.99    6.68
  -3   9   2  206.02   18.15
   3   9  -2  202.18   14.12
  -3   9  -2  223.99   26.09
  -3  -9  -2  211.35   15.55
  -3  -9  -2  234.07   41.16
  -3  -9   2  239.59   42.92
   3  -9  -2  205.55   34.68
   3  -9   2  214.63   44.17
  -3  -9  -2  212.32   21.38
  -3  -9   2  190.20   15.41
   3  -9   2  217.81   21.30
  -3   9   3  112.57    8.61
  -3   9  -3  131.77   25.30
   3   9  -3  116.62   11.20
  -3  -9  -3  119.05   28.85
  -3  -9  -3  138.24   25.16
  -3  -9   3  159.84   30.84
   3  -9  -3  163.42   26.58
   3  -9   3  145.42   25.58
  -3  -9   3  122.28   24.86
   3  -9   3  130.02   11.52
  -3   9   3   97.53    7.87
  -3   9   4  101.95   23.30
  -3   9  -4   95.18   16.77
   3   9  -4  101.97    8.29
  -3  -9  -4   99.45   19.82
  -3  -9  -4  105.44   22.13
  -3  -9   4   97.27   14.42
   3  -9  -4   87.64   12.40
  -3  -9   4   97.76   12.49
  -3   9   4   79.18    5.50
   3  -9   4  105.83   16.89
  -3   9  -5   81.49   12.19
   3   9  -5   81.42   18.17
  -3  -9  -5   78.83   14.82
   3  -9  -5   95.63   14.00
  -3  -9  -5   78.15   17.00
  -3  -9   5   84.04   12.93
   3  -9  -5   76.26   14.52
  -3   9   5   72.84    3.76
  -3  -9   5   96.90   17.42
   3  -9   5   93.39   19.94
  -3   9  -6   92.33   17.23
   3   9  -6   60.61   13.80
   3  -9  -6   83.95   14.71
  -3  -9  -6   75.00   18.63
   3  -9  -6   67.63   14.71
  -3  -9   6   74.64   11.06
  -3   9   6   40.26    8.77
  -3  -9   6   85.71   15.55
   3  -9   6   74.85   14.24
  -3   9  -7   21.26    6.73
   3   9  -7   28.26    7.31
  -3  -9  -7   29.79    8.89
   3  -9  -7   34.12    7.53
  -3  -9  -7   27.38    6.98
   3  -9  -7   18.44    7.23
  -3  -9   7   32.55   10.32
  -3   9   7   18.31    5.32
  -3  -9   7   25.03    6.71
   3  -9   7   27.43    8.44
  -3   9  -8   36.77    8.52
   3   9  -8   35.91    6.05
  -3  -9  -8   39.74    8.11
   3  -9  -8   40.24    9.48
  -3  -9  -8   37.81    8.78
   3  -9  -8   33.68    7.60
  -3  -9   8   45.68   13.83
  -3  -9   8   41.21    9.79
   3  -9   8   40.06    8.09
  -3   9  -9   95.55   16.59
   3   9  -9  108.02   21.43
  -3  -9  -9   89.61   23.78
   3  -9  -9   93.86    9.14
  -3  -9  -9  119.34   23.65
   3  -9  -9   73.09   19.21
  -3  -9   9   99.30   15.72
   3  -9   9  129.00   19.98
  -3   9 -10   18.59    4.93
   3   9 -10    9.41    3.18
  -3  -9 -10   15.09    4.76
   3  -9 -10   13.83    5.64
  -3  -9 -10   16.98    5.32
   3  -9 -10    4.82    5.42
  -3  -9  10    5.64    2.86
   3  -9  10   17.73    4.82
  -3   9 -11   49.32   11.72
   3   9 -11   38.58    8.23
  -3  -9 -11   44.66   15.09
   3  -9 -11   45.79    8.62
  -3  -9 -11   55.92   13.12
   3  -9 -11   37.63   15.32
  -3  -9  11   49.42    9.34
  -3  -9  11   67.38   17.54
   3  -9  11   57.48   11.37
  -3   9 -12   49.62   12.81
   3   9 -12   37.81   13.79
  -3  -9 -12   45.15   14.29
   3  -9 -12   42.96   12.25
  -3  -9 -12   42.17    8.43
   3  -9 -12   44.17   13.15
  -3  -9  12   43.33   10.42
  -3  -9  12   39.84   10.41
   3  -9  12   62.43   12.48
   3   9 -13    8.68    5.39
  -3  -9 -13    9.20    4.55
   3  -9 -13   10.12    5.95
  -3  -9 -13   12.27    3.73
   3  -9 -13   14.60    4.30
  -3  -9  13    7.27    3.34
  -3  -9  13   18.63    4.77
   3  -9  13    8.22    4.36
  -3   9 -14   36.21   11.19
   3   9 -14   14.99    5.43
  -3  -9 -14   25.49    6.86
   3  -9 -14   23.96    7.45
  -3  -9 -14   21.80    8.02
   3  -9 -14   23.62    6.24
  -3  -9  14   13.74    5.31
  -3  -9  14   34.38   12.71
   3  -9  14   24.97    7.12
  -3   9 -15   19.19    5.34
   3   9 -15   13.53    4.56
  -3  -9 -15   12.30    4.95
   3  -9 -15   21.04    7.56
  -3  -9 -15   24.13    6.26
   3  -9 -15   13.49    6.50
  -3  -9  15   17.85   10.27
   3  -9  15    7.93    5.58
  -3   9 -16   18.76    6.55
   3   9 -16   21.56    6.30
  -3  -9 -16   19.56    6.01
   3  -9 -16   15.23    4.72
  -3  -9 -16   19.48    5.57
  -3  -9  16   27.40    7.25
   3  -9  16   18.42    6.76
  -3   9 -17   10.15    5.63
   3   9 -17    9.52    3.92
  -3  -9 -17   17.44    3.95
   3  -9 -17   13.64    6.23
  -3  -9 -17    8.98    3.48
  -3  -9  17   17.86    6.56
   3  -9  17    9.35    7.32
  -3   9 -18    7.33    6.04
   3   9 -18    5.73    3.55
  -3  -9 -18    1.96    4.54
   3  -9 -18    9.79    4.49
  -3  -9 -18    4.64    2.61
  -3  -9  18    2.37    4.18
   3  -9  18    1.78    2.46
   3  10   0   12.71    2.90
  -3  10   0   18.49    4.26
  -3 -10   0    6.13    3.51
   3 -10   0   13.97    5.62
  -3 -10   0    5.63    3.47
   3 -10   0    7.23    1.75
   3  10   1   50.99    9.62
  -3  10   1   54.49   10.90
   3  10  -1   43.84    8.98
  -3  10  -1   52.68   12.57
  -3 -10  -1   52.29   11.65
  -3 -10   1   51.77   10.21
   3 -10  -1   67.32   14.06
   3 -10   1   57.07    9.82
   3 -10  -1   58.09    6.72
  -3 -10  -1   51.96    7.57
  -3 -10   1   62.63   10.00
   3 -10   1   37.33    8.58
  -3  10   2   57.11   14.80
   3  10  -2   54.14   13.60
  -3  10  -2   61.29   14.32
  -3 -10  -2   57.46    9.75
  -3 -10  -2   55.06   15.18
  -3 -10   2   74.30   15.97
   3 -10  -2   58.21   12.19
   3 -10   2   63.75   15.20
  -3 -10  -2   53.26    8.13
  -3 -10   2   61.05   15.84
   3 -10   2   43.89   12.03
  -3  10   3   18.99    6.09
  -3  10  -3   25.92    6.56
   3  10  -3   27.77    7.68
  -3 -10  -3   13.70    4.71
  -3 -10  -3   22.65    7.63
  -3 -10   3   21.43    5.28
   3 -10  -3   24.53   10.40
   3 -10   3   21.48    8.24
  -3 -10   3   29.26    8.62
   3 -10   3   19.08    5.32
  -3  10   3   12.94    3.70
  -3  10   4  343.47   28.04
  -3  10  -4  325.51   21.86
   3  10  -4  367.16   81.73
  -3 -10  -4  336.69    9.83
  -3 -10  -4  344.92   14.13
   3 -10  -4  300.64   46.92
   3 -10   4  344.44   55.02
  -3 -10   4  334.68   10.75
   3 -10   4  346.37    9.30
  -3  10  -5   48.91   11.56
   3  10  -5   73.28   18.55
  -3 -10  -5   74.69   10.75
   3 -10  -5   51.73    9.96
  -3 -10  -5   92.72   26.61
  -3 -10   5   68.38   14.40
   3 -10  -5   57.23   11.04
   3 -10   5   72.30   17.31
  -3 -10   5   61.02   10.93
  -3  10   5   53.93    4.23
   3 -10   5   70.66   17.25
  -3  10  -6    3.82    2.82
   3  10  -6    5.91    2.50
   3 -10  -6   16.20    9.45
  -3 -10  -6    6.59    5.63
   3 -10  -6    5.19    4.06
  -3 -10   6    4.03    5.92
   3 -10   6   10.54    4.64
  -3  10   6    0.58    1.18
  -3 -10   6    7.40    3.54
   3 -10   6    5.57    3.88
  -3  10  -7   34.58    8.85
   3  10  -7   38.10    7.95
   3 -10  -7   45.46   10.11
  -3 -10  -7   37.36    9.24
   3 -10  -7   41.95    8.61
  -3 -10   7   22.09    5.52
  -3 -10   7   40.30    9.67
   3 -10   7   42.82    9.59
  -3  10  -8  278.54   40.77
   3  10  -8  282.21   10.09
  -3 -10  -8  271.68   10.45
   3 -10  -8  265.18   32.33
  -3 -10  -8  273.72   27.08
   3 -10  -8  267.11   21.58
  -3 -10   8  283.69   34.10
  -3 -10   8  248.44   19.75
   3 -10   8  292.41   36.14
  -3  10  -9   20.38    5.86
   3  10  -9   16.44    5.09
  -3 -10  -9   10.65    5.26
   3 -10  -9   14.38    4.04
  -3 -10  -9   14.49    4.65
   3 -10  -9   19.44    5.56
  -3 -10   9   14.89    6.02
  -3 -10   9   25.68    6.64
   3 -10   9   14.71    3.92
  -3  10 -10   30.06    7.61
   3  10 -10   23.95    6.40
  -3 -10 -10   31.92    8.19
   3 -10 -10   31.83   12.65
  -3 -10 -10   26.97    9.08
   3 -10 -10   34.38    9.19
  -3 -10  10   16.26    7.07
  -3 -10  10   27.10    5.40
   3 -10  10   32.03    7.27
  -3  10 -11   32.39    8.04
   3  10 -11   34.63   10.67
  -3 -10 -11   19.18    7.99
   3 -10 -11   26.79   12.12
  -3 -10 -11   34.14    8.53
   3 -10 -11   31.24   10.66
  -3 -10  11   37.10    7.24
   3 -10  11   27.69   10.02
  -3  10 -12   16.94    6.52
   3  10 -12    4.98    2.20
  -3 -10 -12    5.78    2.99
   3 -10 -12   13.02    4.95
  -3 -10 -12   18.72    6.81
   3 -10 -12   10.59    4.68
  -3 -10  12    7.36    2.85
  -3 -10  12   17.85    6.69
   3 -10  12   18.94    8.90
  -3  10 -13   20.11    8.25
   3  10 -13   16.63    7.09
  -3 -10 -13   22.91    6.78
   3 -10 -13    9.99    4.98
  -3 -10 -13   10.27    5.87
   3 -10 -13   14.75    5.31
  -3 -10  13    7.15    5.10
  -3 -10  13   10.12    6.62
   3 -10  13   19.88    5.84
   3  10 -14    1.78    2.42
  -3 -10 -14    7.28    2.44
   3 -10 -14    7.09    6.69
  -3 -10 -14    4.34    3.57
   3 -10 -14    7.04    2.28
  -3 -10  14    9.58    4.34
   3 -10  14   16.63    8.54
  -3  10 -15   16.14    7.05
   3  10 -15   16.16    4.34
  -3 -10 -15    6.51    3.56
   3 -10 -15   16.04    8.90
  -3 -10 -15    7.01    3.48
   3 -10 -15   10.42    3.61
  -3 -10  15   13.10    7.25
   3 -10  15   14.09    5.80
  -3  10 -16   32.76    8.08
   3  10 -16   34.18    7.72
  -3 -10 -16   32.87    7.62
   3 -10 -16   18.54    8.90
  -3 -10 -16   30.03    9.79
  -3 -10  16   38.39   13.36
   3 -10  16   46.75   13.28
  -3  10 -17   29.96    5.43
   3  10 -17   14.43    5.84
  -3 -10 -17    9.31    5.70
   3 -10 -17   29.33    6.71
  -3 -10  17   18.14   11.69
   3 -10  17   11.98    9.84
   3  11   0  156.12    9.73
  -3  11   0  148.44   21.93
  -3 -11   0  181.54   28.17
   3 -11   0  152.72   27.17
  -3 -11   0  151.36   24.14
   3 -11   0  159.08   13.38
   3  11   1    9.09    3.66
  -3  11   1   21.53    6.54
   3  11  -1   20.45    6.49
  -3  11  -1    3.22    2.93
  -3 -11  -1   29.06    6.50
  -3 -11   1   21.95   10.41
   3 -11  -1   11.39    5.97
   3 -11   1   20.54    8.85
   3 -11  -1    9.55    3.08
  -3 -11  -1   20.87    6.31
  -3 -11   1    9.74    4.38
   3 -11   1    9.66    3.74
  -3  11   2   58.32   12.49
   3  11  -2   53.67   11.87
  -3  11  -2   55.39   13.75
  -3 -11  -2   52.84   12.97
  -3 -11  -2   58.00   11.77
  -3 -11   2   68.41   13.26
   3 -11  -2   78.14   18.59
   3 -11   2   31.89   13.10
  -3 -11  -2   69.12   10.57
  -3 -11   2   54.85   10.98
   3 -11   2   56.31   12.23
  -3  11   3    8.62    4.10
   3  11  -3   15.45    5.42
  -3  11  -3   27.99    6.82
  -3 -11  -3   20.72    6.34
  -3 -11  -3   32.76    8.56
  -3 -11   3   30.66    8.39
   3 -11  -3   30.95    8.41
   3 -11   3   27.65    9.12
  -3 -11   3   23.13    7.28
   3 -11   3   18.98    6.08
  -3  11   3    9.44    3.24
  -3  11   4    7.28    5.00
  -3  11  -4    9.70    5.09
   3  11  -4   12.36    4.34
  -3 -11  -4    9.38    3.87
  -3 -11  -4   16.27    7.78
  -3 -11   4    9.30    6.25
   3 -11  -4    7.73    6.54
   3 -11   4   15.25    5.41
  -3 -11   4   11.60    3.69
   3 -11   4    6.30    2.79
  -3  11   4    5.10    2.02
  -3  11  -5   48.48   10.74
   3  11  -5   41.17   11.72
  -3 -11  -5   43.44    7.65
   3 -11  -5   37.69    8.63
  -3 -11  -5   44.83    7.74
  -3 -11   5   62.46   12.71
   3 -11  -5   71.78   11.64
   3 -11   5   55.37   14.77
  -3 -11   5   52.34    9.59
   3 -11   5   41.49    9.81
  -3  11  -6   66.79   11.54
   3  11  -6   68.29   13.78
   3 -11  -6   54.11    8.97
  -3 -11  -6   86.41   13.38
   3 -11  -6   66.97   11.95
  -3 -11   6   72.22   12.84
   3 -11   6   74.02   13.95
  -3 -11   6   77.46   12.77
   3 -11   6   68.22   13.18
  -3  11  -7   68.38   12.56
   3  11  -7   49.60   15.75
   3 -11  -7   57.87   14.42
  -3 -11  -7   65.86   17.74
   3 -11  -7   60.32   12.77
  -3 -11   7   62.47   14.10
   3 -11   7   76.43   18.68
  -3 -11   7   76.63   12.59
   3 -11   7   63.15   13.57
  -3  11  -8   52.29   12.46
   3  11  -8   49.45   14.89
  -3 -11  -8   39.51    8.35
   3 -11  -8   64.75   12.98
  -3 -11  -8   46.14   12.57
   3 -11  -8   31.17   10.23
  -3 -11   8   57.24   10.91
   3 -11   8   59.59   15.90
  -3 -11   8   43.37    9.33
   3 -11   8   37.65   11.32
  -3  11  -9    9.02    3.68
   3  11  -9    6.00    4.47
  -3 -11  -9   -0.47    3.66
   3 -11  -9    7.93    9.56
  -3 -11  -9    8.87    4.63
   3 -11  -9    7.90    4.76
  -3 -11   9    6.07    4.01
   3 -11   9    6.53    3.57
  -3 -11   9   15.58    6.16
   3 -11   9    8.24    3.54
  -3  11 -10    8.92    4.72
   3  11 -10   25.78    7.70
  -3 -11 -10   17.99    6.74
   3 -11 -10   17.90    5.25
  -3 -11 -10   27.75    5.92
   3 -11 -10   24.46    7.31
  -3 -11  10   12.17    3.26
  -3 -11  10   13.44    6.67
   3 -11  10   17.98    8.79
  -3  11 -11    8.01    3.05
   3  11 -11    1.84    2.86
  -3 -11 -11    3.30    2.87
   3 -11 -11    8.58    4.05
  -3 -11 -11    3.06    3.79
   3 -11 -11    9.00    4.34
  -3 -11  11    4.02    3.45
  -3 -11  11   12.62    7.51
   3 -11  11    2.36    2.66
  -3  11 -12   43.17   14.47
   3  11 -12   38.73    9.26
  -3 -11 -12   46.56   16.75
   3 -11 -12   48.94   15.15
  -3 -11 -12   63.13   17.71
   3 -11 -12   35.89   10.25
  -3 -11  12   71.26   16.06
   3 -11  12   64.36   16.21
  -3  11 -13   16.85    6.04
   3  11 -13    8.48    3.28
  -3 -11 -13    7.91    3.97
   3 -11 -13   22.06    6.70
  -3 -11 -13    8.05    5.16
   3 -11 -13   11.28    7.93
  -3 -11  13   17.21    6.42
  -3 -11  13   14.39    6.13
   3 -11  13   15.19   10.33
  -3  11 -14   19.37   10.22
   3  11 -14   10.82    5.33
  -3 -11 -14    7.60    5.19
   3 -11 -14   24.82    8.71
  -3 -11 -14   14.72    5.42
   3 -11 -14    9.67    9.44
  -3 -11  14   24.03    8.42
   3 -11  14   12.28    3.84
  -3  11 -15    7.26    3.88
   3  11 -15    8.72    5.04
  -3 -11 -15    4.11    6.00
   3 -11 -15    8.67    3.38
  -3 -11 -15    4.84    2.18
   3 -11 -15    3.79    3.42
  -3 -11  15    3.21    4.81
   3 -11  15    7.68    3.89
  -3  11 -16    7.56    4.49
  -3 -11 -16   10.98    4.79
   3 -11 -16    5.55    5.43
  -3 -11 -16   18.24    8.27
  -3 -11  16   25.64   10.22
   3 -11  16   16.92    7.75
   3  12   0    3.79    1.75
  -3  12   0    8.09    5.54
  -3 -12   0   -3.43    6.65
   3 -12   0   12.90    6.12
   3 -12   0    1.36    1.00
  -3 -12   0    3.55    3.07
   3  12   1   66.36   13.50
  -3  12   1   63.94    9.30
   3  12  -1   63.65   12.50
  -3  12  -1   65.85   15.34
  -3 -12  -1   71.71   11.42
  -3 -12   1   72.36   11.49
   3 -12  -1   72.71   15.18
   3 -12   1   50.27   10.88
   3 -12  -1   58.98    8.86
  -3 -12  -1   58.04    9.18
  -3 -12   1   63.61   10.24
   3 -12   1   58.72   10.25
  -3  12   2  286.51   38.21
   3  12  -2  276.18    8.47
  -3  12  -2  303.36   15.91
  -3 -12  -2  276.80   32.97
  -3 -12  -2  316.53   39.74
  -3 -12   2  295.31   48.78
   3 -12  -2  296.63   33.10
   3 -12   2  282.94   38.21
  -3 -12  -2  339.05   18.44
  -3 -12   2  300.93   29.83
   3 -12   2  286.41   10.52
  -3  12   3    7.99    3.07
   3  12  -3    3.88    2.69
  -3  12  -3   11.31    3.91
  -3 -12  -3    7.39    4.09
  -3 -12  -3    8.24    4.13
  -3 -12   3   12.12    5.34
   3 -12  -3    4.42    5.88
   3 -12   3    7.13    6.25
  -3 -12   3    4.38    2.48
   3 -12   3    8.81    3.48
  -3  12   4   10.54    3.25
   3  12  -4   11.40    3.53
  -3  12  -4   11.23    5.16
  -3 -12  -4    8.23    2.30
  -3 -12  -4    9.06    5.35
  -3 -12   4    7.64    4.25
   3 -12  -4    8.88    9.53
   3 -12   4   19.02    7.89
  -3 -12   4    6.83    2.55
   3 -12   4    6.58    3.42
  -3  12  -5   92.99   18.21
   3  12  -5  112.42   11.12
  -3 -12  -5   95.71   21.51
   3 -12  -5   85.54   18.78
  -3 -12  -5  129.25   35.83
  -3 -12   5  119.80   28.07
   3 -12  -5   93.72   16.91
   3 -12   5   95.80   16.74
  -3 -12   5   94.17   19.78
   3 -12   5  100.88   22.35
  -3  12  -6   16.79    5.81
   3  12  -6    7.63    3.10
   3 -12  -6    8.55    5.05
  -3 -12  -6    6.39    6.13
   3 -12  -6   16.85    7.03
  -3 -12   6    9.14    5.21
   3 -12   6   13.69    5.79
  -3 -12   6   13.19    7.57
   3 -12   6    9.01    4.98
  -3  12  -7  137.49   24.66
   3  12  -7  114.81   25.46
   3 -12  -7  131.34   24.39
  -3 -12  -7  134.30   29.43
   3 -12  -7  141.86   23.04
  -3 -12   7  122.78   23.84
   3 -12   7  142.66   29.63
  -3 -12   7  114.59   15.00
   3 -12   7  136.87   13.92
  -3  12  -8    2.84    2.04
   3  12  -8   -0.06    2.88
  -3 -12  -8   12.21    3.64
   3 -12  -8    3.02    3.11
  -3 -12  -8    3.34    2.99
   3 -12  -8    5.55    3.40
  -3 -12   8    6.93    4.19
   3 -12   8   13.38    7.21
  -3 -12   8    6.59    4.10
   3 -12   8    5.84    2.94
   3  12  -9   10.96    4.03
  -3 -12  -9    4.17    2.35
   3 -12  -9    5.45    2.69
  -3 -12  -9    7.57    6.09
   3 -12  -9   14.77    7.87
  -3 -12   9    8.18    3.62
   3 -12   9   18.19    6.49
  -3 -12   9    9.31    3.39
   3 -12   9    5.20    6.30
  -3  12 -10  106.97   13.61
   3  12 -10   80.72   16.71
  -3 -12 -10  106.80   18.79
   3 -12 -10   80.49   15.00
  -3 -12 -10  114.51   20.45
   3 -12 -10   87.17   18.41
  -3 -12  10   85.57   18.05
   3 -12  10  114.67   19.26
  -3 -12  10   87.30   23.26
   3 -12  10   98.77   22.62
  -3  12 -11   20.49    6.56
   3  12 -11   23.42    5.83
  -3 -12 -11   13.84    4.26
   3 -12 -11   18.55    6.73
  -3 -12 -11   25.62    8.99
   3 -12 -11   12.09    6.21
  -3 -12  11   17.45    6.49
   3 -12  11   25.17    9.40
  -3 -12  11   23.59    7.67
   3 -12  11   11.61    4.68
  -3  12 -12   10.98    4.93
   3  12 -12    2.12    3.04
  -3 -12 -12    6.94    3.54
   3 -12 -12    3.64    3.17
  -3 -12 -12   16.02    6.93
   3 -12 -12    6.46    5.74
  -3 -12  12    6.49    3.92
   3 -12  12    5.56    3.39
  -3 -12  12    3.32    3.38
   3 -12  12    4.77    3.84
  -3  12 -13   13.38    5.85
   3  12 -13   11.18    3.90
  -3 -12 -13   10.65    5.18
   3 -12 -13   17.14    6.46
  -3 -12 -13   12.57    5.55
   3 -12 -13   14.08    5.02
   3 -12  13   20.29    7.70
  -3 -12  13   11.51    8.21
   3 -12  13   21.62    5.75
  -3  12 -14   21.36    6.47
   3  12 -14   25.71    8.14
  -3 -12 -14   29.94   10.33
   3 -12 -14   44.67   10.29
  -3 -12 -14   47.98    7.23
   3 -12 -14   17.51   10.24
   3 -12  14   28.51    8.67
  -3 -12  14   31.85    8.41
   3 -12  14   40.77   13.06
  -3  12 -15    3.86    2.72
   3  12 -15    3.60    3.32
  -3 -12 -15    3.00    3.74
   3 -12 -15    4.12    4.08
  -3 -12 -15    8.19    5.63
   3 -12 -15    3.58    1.94
   3 -12  15   10.73    5.71
  -3 -12  15    7.08    3.93
   3 -12  15    8.66    5.08
   3  13   0    4.15    2.20
  -3  13   0    6.04    4.14
  -3 -13   0    4.72    3.74
   3 -13   0    9.74    9.20
   3 -13   0    3.52    0.74
  -3 -13   0    6.91    3.86
   3  13   1   49.08   15.82
   3  13  -1   69.82   17.65
  -3  13   1   73.18   17.32
  -3  13  -1   72.44    9.21
  -3 -13  -1   72.73   13.64
  -3 -13   1   78.05   14.25
   3 -13  -1   59.63   10.74
   3 -13   1   64.31   12.78
  -3 -13  -1   64.87   10.46
  -3 -13   1   75.86   13.88
   3 -13   1   69.67    7.36
  -3  13   2   52.65    7.91
   3  13  -2   58.08   12.01
  -3  13  -2   56.83    8.67
  -3 -13  -2   33.76   10.43
  -3 -13  -2   61.62   13.37
  -3 -13   2   60.06   15.31
   3 -13  -2   57.90   13.36
   3 -13   2   42.35   10.88
  -3 -13  -2   61.85    9.83
  -3 -13   2   47.22   14.99
   3 -13   2   31.67    7.81
  -3  13   3   27.45    7.89
   3  13  -3   15.40    5.73
  -3  13  -3   21.95    4.97
  -3 -13  -3   19.01    4.48
  -3 -13  -3   37.30    8.37
  -3 -13   3   22.57    6.84
   3 -13  -3   35.58    8.47
   3 -13   3   20.68    5.49
  -3 -13   3   27.82    7.03
   3 -13   3   17.02    4.27
  -3  13   4   99.83   15.82
   3  13  -4   82.76   18.94
  -3  13  -4  104.45   13.88
  -3 -13  -4   84.15   18.82
  -3 -13  -4  106.71   13.67
  -3 -13   4  106.61   17.37
   3 -13  -4   76.52   15.45
   3 -13   4   90.69   15.89
  -3 -13   4   86.84   19.16
   3 -13   4   80.17   18.88
   3  13  -5    7.12    4.28
  -3  13  -5   19.03    6.41
  -3 -13  -5   12.07    4.64
   3 -13  -5    9.16    3.92
  -3 -13  -5    9.88    4.51
  -3 -13   5    8.88    4.78
   3 -13  -5   10.95    3.41
   3 -13   5    4.69    2.82
  -3 -13   5    2.11    4.99
   3 -13   5   -0.12    2.23
  -3  13  -6    4.38    3.01
   3  13  -6    3.86    2.17
   3 -13  -6    8.29    4.29
  -3 -13  -6    3.48    4.59
   3 -13  -6   11.58    3.91
  -3 -13   6    6.84    4.83
   3 -13   6   -0.05    4.50
  -3 -13   6    6.45    2.77
   3 -13   6    0.92    1.34
  -3  13  -7   -1.42    2.96
   3  13  -7    5.26    3.39
   3 -13  -7   13.18    5.26
  -3 -13  -7    6.67    5.19
   3 -13  -7   10.97    5.30
  -3 -13   7    4.16    3.49
   3 -13   7   20.49    9.69
  -3 -13   7    5.70    2.99
   3 -13   7    4.32    2.15
  -3  13  -8   28.76    8.49
   3  13  -8   21.95    9.52
  -3 -13  -8   19.61    5.72
   3 -13  -8   28.70    9.31
  -3 -13  -8   35.51   12.08
   3 -13  -8   32.31    7.85
  -3 -13   8   28.53    8.48
   3 -13   8   30.13   10.19
  -3 -13   8   34.27    9.88
   3 -13   8   23.69    9.22
  -3  13  -9   12.91    6.74
   3  13  -9   11.38    5.48
  -3 -13  -9    5.43    2.16
   3 -13  -9    5.78    4.32
  -3 -13  -9    9.56    6.57
   3 -13  -9   10.52    6.91
  -3 -13   9    1.90    2.01
   3 -13   9   -1.31    6.99
  -3 -13   9   10.77    4.56
   3 -13   9   17.05    4.46
  -3  13 -10   21.50    8.63
   3  13 -10   16.13    7.64
  -3 -13 -10   17.90    6.60
   3 -13 -10   26.90    9.72
  -3 -13 -10   20.22    6.75
   3 -13 -10   26.06    7.82
  -3 -13  10   10.49    5.05
   3 -13  10   23.65    9.33
  -3 -13  10   17.60    7.70
   3 -13  10   25.08    7.64
  -3  13 -11   28.42    8.31
   3  13 -11   21.20    9.38
  -3 -13 -11   22.19    6.18
   3 -13 -11   30.21    9.85
  -3 -13 -11   29.90   10.70
   3 -13 -11   25.00    8.94
  -3 -13  11   25.27    8.54
   3 -13  11   34.11   14.45
  -3 -13  11   30.34   11.91
   3 -13  11   33.76   10.42
  -3  13 -12    4.97    2.69
   3  13 -12   11.47    3.50
  -3 -13 -12   12.81    4.70
   3 -13 -12   23.89    8.58
  -3 -13 -12   16.48    6.79
   3 -13 -12    4.70    5.34
  -3 -13  12    7.67    5.28
   3 -13  12    7.49    5.81
  -3 -13  12   15.06    5.19
   3 -13  12   12.57    5.39
  -3  13 -13   19.11    7.48
   3  13 -13   14.59    6.70
  -3 -13 -13    7.11    2.49
   3 -13 -13   19.73    7.14
  -3 -13 -13   21.77    5.85
   3 -13 -13   14.02    7.22
  -3 -13  13   17.31    6.17
   3 -13  13   20.41    7.58
  -3 -13  13   11.76    7.81
   3 -13  13   30.88    8.58
  -3  13 -14    6.06    3.62
   3  13 -14    4.97    2.64
  -3 -13 -14    7.57    3.28
   3 -13 -14    0.34    3.55
  -3 -13 -14   11.92    5.14
   3 -13 -14    7.82    4.15
   3 -13  14    8.54    6.36
  -3 -13  14   18.46    8.47
   3 -13  14    3.15    6.11
   3  14   0   11.28    4.24
  -3  14   0   22.55    6.99
  -3 -14   0   18.84    6.65
   3 -14   0   31.75    9.60
  -3 -14   0   20.51    6.62
   3  14  -1   45.03   10.93
  -3  14   1   53.20    8.94
  -3  14  -1   45.55    8.58
  -3 -14  -1   51.11   13.65
  -3 -14   1   51.54   13.67
   3 -14  -1   49.38   12.50
   3 -14   1   55.56   19.04
  -3 -14  -1   51.81    8.86
  -3 -14   1   52.32   10.61
   3 -14   1   44.45    9.05
  -3  14   2    9.63    4.40
   3  14  -2    3.23    2.65
  -3  14  -2    4.88    3.25
  -3 -14  -2    0.75    2.22
  -3 -14  -2   11.03    4.46
  -3 -14   2   16.06    4.61
   3 -14  -2    4.67    7.15
   3 -14   2    8.73    4.97
  -3 -14  -2    6.23    2.88
  -3 -14   2    2.08    1.14
   3 -14   2    4.78    2.08
  -3  14   3   10.17    4.83
   3  14  -3    6.65    2.22
  -3  14  -3   11.12    3.85
  -3 -14  -3    6.80    3.31
  -3 -14  -3    7.84    4.76
  -3 -14   3    5.31    6.26
   3 -14  -3    3.48    4.20
   3 -14   3    4.43    3.81
  -3 -14   3   15.20    4.38
   3 -14   3    7.12    2.24
  -3  14   4   23.31    6.68
   3  14  -4   24.90    6.53
  -3  14  -4   24.85    6.67
  -3 -14  -4   19.27    4.29
  -3 -14  -4   25.23    7.74
  -3 -14   4   16.73    5.23
   3 -14  -4   31.39   11.21
   3 -14   4   23.14   11.59
  -3 -14   4   23.04    7.03
   3  14  -5   70.92   16.53
  -3  14  -5   82.46   18.50
  -3 -14  -5   69.88   17.24
   3 -14  -5   76.38   19.22
  -3 -14  -5  104.41   27.13
  -3 -14   5   82.11   26.56
   3 -14  -5   64.86   16.06
   3 -14   5  103.42   24.74
  -3 -14   5   62.53   15.03
   3 -14   5   65.32   15.80
   3  14  -6    3.62    2.75
  -3  14  -6    4.36    2.39
  -3 -14  -6    2.27    2.73
   3 -14  -6    8.99    4.82
  -3 -14  -6   10.65    7.54
   3 -14  -6   12.96    7.01
  -3 -14   6    0.74    3.00
   3 -14   6   12.56    7.08
  -3 -14   6    4.23    3.20
   3 -14   6    3.04    2.68
  -3  14  -7   17.82    6.58
   3  14  -7   16.77    6.65
   3 -14  -7   16.47    6.25
  -3 -14  -7   22.74    8.04
   3 -14  -7   20.12    4.60
  -3 -14   7   25.63    9.87
   3 -14   7   43.86   10.67
  -3 -14   7   23.69    9.26
   3 -14   7   17.12    5.24
  -3  14  -8   38.41   13.61
   3  14  -8   36.43   10.33
   3 -14  -8   35.89   10.76
  -3 -14  -8   60.99   11.89
   3 -14  -8   33.97    8.83
  -3 -14   8   30.18   16.04
   3 -14   8   47.62   16.17
  -3 -14   8   33.71   10.78
   3 -14   8   40.56   11.45
  -3  14  -9   13.80    4.98
   3  14  -9    8.68    4.82
  -3 -14  -9    5.29    2.79
   3 -14  -9    6.57    4.71
  -3 -14  -9   20.11    6.99
   3 -14  -9   11.23    4.63
  -3 -14   9   15.10    6.82
   3 -14   9   25.14    5.57
  -3 -14   9   16.57    4.59
   3 -14   9   15.31    6.43
  -3  14 -10    6.44    3.03
   3  14 -10    3.44    1.48
  -3 -14 -10    4.67    2.38
   3 -14 -10    9.04    4.43
  -3 -14 -10   17.07    8.87
   3 -14 -10    7.32    4.01
  -3 -14  10   10.38    5.49
   3 -14  10   13.93    6.53
  -3 -14  10   -0.21    3.99
   3 -14  10    5.93    5.02
  -3  14 -11   11.67    3.83
   3  14 -11   17.41   11.88
  -3 -14 -11   11.51    4.41
   3 -14 -11    8.82    5.47
  -3 -14 -11   13.72    5.89
   3 -14 -11    8.98    5.13
  -3 -14  11   25.74    7.72
   3 -14  11   21.41   10.38
  -3 -14  11   17.87    7.16
   3 -14  11   12.63    5.99
  -3  14 -12   24.84    6.80
   3  14 -12    8.22    3.32
  -3 -14 -12   12.63    7.02
   3 -14 -12   14.23    3.72
  -3 -14 -12   22.23    8.47
   3 -14 -12   17.34    6.04
  -3 -14  12   17.55    5.84
   3 -14  12   21.85    6.52
  -3 -14  12   19.83    7.59
   3 -14  12   14.12    5.78
  -3  14 -13    5.94    3.11
   3  14 -13   10.86    5.34
  -3 -14 -13   -1.70    3.92
   3 -14 -13    8.21    5.12
  -3 -14 -13   12.06    4.19
   3 -14 -13    9.00    4.24
  -3 -14  13    3.20    2.98
   3 -14  13   11.39    6.94
  -3 -14  13   10.21    7.83
   3 -14  13    8.29    4.20
   3  15   0   16.69    6.29
  -3  15   0   22.05    6.69
  -3 -15   0   20.09    5.77
   3 -15   0   25.48    6.42
  -3 -15   0   34.07    9.70
   3  15  -1    7.14    3.16
  -3  15   1    5.44    3.86
  -3  15  -1    6.88    3.64
  -3 -15  -1    4.75    3.12
  -3 -15  -1   12.43    5.81
  -3 -15   1    4.66    8.26
   3 -15  -1   11.87    6.08
   3 -15   1   -0.66    6.49
  -3 -15  -1    5.83    3.20
  -3 -15   1   11.01    4.21
  -3  15   2   13.31    3.99
   3  15  -2   10.85    4.96
  -3  15  -2   14.11    4.69
  -3 -15  -2    7.08    2.41
  -3 -15  -2   19.80    7.16
  -3 -15   2   12.79    5.22
   3 -15  -2   11.50    4.28
   3 -15   2    6.75    4.94
  -3 -15   2   15.13    4.09
  -3  15   3    8.51    4.31
   3  15  -3    6.93    2.67
  -3  15  -3   17.90    6.21
  -3 -15  -3    6.11    3.58
  -3 -15  -3   22.25    8.89
  -3 -15   3   12.25    5.74
   3 -15  -3   15.09    5.52
   3 -15   3   22.29   10.09
  -3 -15   3   20.36    5.23
   3  15  -4    6.93    4.52
  -3  15  -4   20.97    6.73
  -3 -15  -4    4.22    2.02
   3 -15  -4    7.70    4.29
  -3 -15  -4    5.94    4.75
  -3 -15   4   14.69    6.38
   3 -15  -4    9.45    5.11
   3 -15   4   11.43    7.44
  -3 -15   4   17.76    7.38
   3 -15   4   15.36    5.10
   3  15  -5   12.31    5.25
  -3  15  -5   16.83    4.48
  -3 -15  -5   12.20    6.88
   3 -15  -5   21.79    7.29
  -3 -15  -5   17.97    8.17
  -3 -15   5   13.99    6.43
   3 -15  -5   15.33    9.44
   3 -15   5    6.96    5.10
  -3 -15   5   23.54    7.81
   3 -15   5   15.43    3.80
   3  15  -6    3.88    3.48
  -3  15  -6    6.12    3.89
  -3 -15  -6    2.93    2.39
   3 -15  -6    3.91    2.31
  -3 -15  -6   11.11    5.14
   3 -15  -6   -1.72    5.58
  -3 -15   6    2.64    3.22
   3 -15   6   10.58    6.76
  -3 -15   6    1.56    3.07
   3 -15   6    5.06    2.54
   3  15  -7   15.56    5.46
  -3  15  -7   18.60    7.96
   3 -15  -7   18.65    7.79
  -3 -15  -7   15.89    6.11
   3 -15  -7   18.69    7.27
  -3 -15   7   26.66    8.72
   3 -15   7   33.61   11.68
  -3 -15   7   15.08    5.67
   3 -15   7    8.03    6.53
  -3  15  -8    6.55    3.90
   3  15  -8    7.86    3.65
   3 -15  -8    5.99    3.20
  -3 -15  -8    6.73    4.96
   3 -15  -8   12.25    5.75
  -3 -15   8    8.92    4.91
   3 -15   8    1.16    3.83
  -3 -15   8    2.65    2.58
   3 -15   8    5.85    2.04
  -3  15  -9    9.04    4.06
   3  15  -9   15.85    4.57
  -3 -15  -9   15.43    6.14
   3 -15  -9   12.51    6.98
  -3 -15  -9   22.69    9.08
   3 -15  -9   17.72    5.81
  -3 -15   9   12.66    7.76
   3 -15   9   22.33    8.10
  -3 -15   9    3.88    4.71
   3 -15   9   10.08    4.03
  -3  15 -10    7.51    3.75
   3  15 -10    3.33    3.42
  -3 -15 -10   10.59    2.91
   3 -15 -10    6.37    3.64
  -3 -15 -10   16.83    6.25
   3 -15 -10   15.33    6.89
  -3 -15  10   15.72    5.00
   3 -15  10   13.27    5.71
  -3 -15  10    3.27    4.20
   3 -15  10    5.76    3.08
  -3  15 -11   -0.73    3.66
   3  15 -11    7.54    4.85
  -3 -15 -11    3.77    2.50
   3 -15 -11   15.83    6.08
  -3 -15 -11    2.96    3.56
   3 -15 -11    6.98    7.23
  -3 -15  11    6.73    2.93
   3 -15  11   21.57    8.33
  -3 -15  11    7.51    4.70
   3 -15  11    6.71    4.20
  -3  16   0    8.06    4.93
  -3 -16   0   11.03    6.73
   3 -16   0    9.95    4.43
  -3 -16   0    7.72    4.49
  -3  16   1   44.48   10.43
  -3  16  -1   58.93   16.84
  -3 -16  -1   33.13    9.77
  -3 -16  -1   44.99   18.45
  -3 -16   1   52.76   19.30
   3 -16  -1   43.88   10.62
   3 -16   1   63.74   17.70
  -3 -16  -1   40.44    8.80
  -3 -16   1   57.63   13.12
  -3  16   2    3.16    3.56
  -3  16  -2    6.54    5.65
  -3 -16  -2    2.32    3.33
  -3 -16  -2   13.78    6.59
  -3 -16   2    7.45    3.76
   3 -16  -2   10.40    5.83
   3 -16   2    9.52    6.96
  -3 -16   2    5.84    2.51
  -3  16   3    7.79    4.35
  -3  16  -3    8.72    4.03
  -3 -16  -3    4.52    2.09
  -3 -16  -3   10.97    5.75
  -3 -16   3    6.58    6.49
   3 -16  -3    5.08    5.03
   3 -16   3    8.65    6.75
  -3 -16   3    3.21    2.15
   3  16  -4    5.14    2.64
  -3  16  -4   13.43    4.93
  -3 -16  -4    6.72    2.98
   3 -16  -4    3.67    3.47
  -3 -16  -4   15.95    6.80
  -3 -16   4    4.02    4.28
   3 -16  -4    7.33    5.58
   3 -16   4   -1.39    6.38
  -3 -16   4   11.47    3.57
  -3  16  -5   13.87    9.03
   3 -16  -5   16.77    6.66
  -3 -16  -5   22.07    7.22
  -3 -16   5    6.45    4.79
   3 -16  -5   13.98    6.47
   3 -16   5   12.28    6.54
  -3 -16   5   19.21    5.50
  -3  16  -6   20.76    7.78
   3 -16  -6   14.92    4.80
  -3 -16  -6   16.01    9.61
   3 -16  -6   30.00    9.07
  -3 -16   6   24.44    8.56
   3 -16   6   20.23    6.58
  -3 -16   6   13.28    9.56
  -3  16  -7    8.96    3.03
   3 -16  -7    5.28    4.37
  -3 -16  -7   13.15    4.54
   3 -16  -7   13.38    4.82
  -3 -16   7   12.65    4.99
   3 -16   7   20.01    7.17
  -3 -16   7   18.28    6.03
  -3  16  -8    4.61    4.48
   3 -16  -8    5.22    3.79
  -3 -16  -8    8.09    4.47
   3 -16  -8    0.75    2.27
  -3 -16   8    8.08    3.29
   3 -16   8   13.84    8.15
  -3 -16   8    5.28    3.84
  -3  16  -9    9.82    4.18
   3 -16  -9    5.61    4.26
  -3 -16  -9   15.77    4.29
   3 -16  -9    2.83    3.47
  -3 -16   9    9.16    5.09
   3 -16   9   14.97    8.19
  -3 -16   9    9.15    3.65
   3 -16   9    3.36    1.63
  -3  16 -10    6.20    3.43
   3 -16 -10   12.21    3.91
  -3 -16 -10    6.40    2.54
   3 -16 -10   10.12    7.85
  -3 -16  10    7.14    3.75
   3 -16  10   20.28    9.05
  -3 -16  10    4.00    3.36
   3 -16  10    6.28    2.36
  -3  17   0   41.92   16.42
  -3 -17   0   25.19   11.11
   3 -17   0   59.43   13.54
  -3 -17   0   41.71    9.23
  -3  17   1    5.62    3.40
  -3  17  -1    7.11    3.49
  -3 -17  -1   14.78    6.05
  -3 -17   1   32.74   20.36
   3 -17  -1    8.39    6.20
   3 -17   1   -0.28    6.34
  -3 -17   1    6.60    3.00
  -3  17   2    7.13    4.98
  -3  17  -2    4.98    3.90
  -3 -17  -2   11.46    7.14
  -3 -17   2    6.06    4.65
   3 -17  -2   11.75   11.41
   3 -17   2   -7.92    6.50
  -3 -17   2    7.29    2.74
  -3  17   3   10.75    4.06
  -3  17  -3   22.62    7.55
  -3 -17  -3   16.93    4.84
  -3 -17   3   24.04    8.99
   3 -17  -3   13.84    8.51
   3 -17   3   15.64    7.07
  -3 -17   3   22.45    4.66
  -3  17  -4    3.52    3.83
   3 -17  -4   10.28    5.55
  -3 -17  -4    7.75    6.18
  -3 -17   4    9.00    3.38
   3 -17  -4   15.51    5.60
   3 -17   4   24.01   12.14
  -3 -17   4    6.81    3.72
  -3  17  -5   10.11    3.51
   3 -17  -5   24.92    8.59
  -3 -17  -5   10.12    7.06
  -3 -17   5   16.53    4.51
   3 -17  -5    6.16    4.18
   3 -17   5   19.94    7.52
  -3 -17   5    7.93    3.02
  -3  17  -6    7.32    4.29
   3 -17  -6    7.93    3.20
  -3 -17  -6   13.56    6.76
   3 -17  -6    1.69    3.40
  -3 -17   6    5.89    3.95
   3 -17   6   12.90    5.94
  -3 -17   6    2.14    3.13
  -3  17  -7   13.42    5.40
   3 -17  -7   18.23    8.09
  -3 -17  -7   12.61   11.17
   3 -17  -7   11.03    5.20
  -3 -17   7    7.51    7.34
   3 -17   7   39.98   12.96
  -3 -17   7    5.90    4.44
  -3  18   0   14.61    7.31
  -3 -18   0   25.32    8.27
   3 -18   0   16.54    8.83
  -3 -18   0    7.43    1.49
  -3  18   1    6.26    3.48
  -3  18  -1   11.09    4.02
  -3 -18  -1    6.83    3.51
  -3 -18   1    3.79    6.10
   3 -18  -1    4.23    3.80
   3 -18   1    5.27    5.34
  -3 -18   1    3.07    3.34
  -3  18   2    1.57    3.15
  -3  18  -2    5.54    3.36
  -3 -18  -2    9.11    6.02
  -3 -18   2    6.63    4.18
   3 -18  -2   20.37   10.19
   3 -18   2    9.06    9.25
  -3 -18   2    4.50    2.75
  -3  18  -3    3.67    2.36
   3 -18  -3    7.25    4.85
  -3 -18  -3   12.37    4.12
  -3 -18   3    2.22    3.28
   3 -18  -3    8.33    4.71
   3 -18   3    3.12    3.35
  -3 -18   3   -0.84    2.95
  -3  18  -4   16.64    5.07
   3 -18  -4    8.73    4.19
  -3 -18  -4   11.93    6.21
  -3 -18   4   14.17    8.21
   3 -18  -4    7.25    4.77
   3 -18   4   10.93    5.43
  -3 -18   4    7.22    2.60
   4   0   0   31.10    6.04
  -4   0   0   51.44   10.27
   4   0   0   38.43    5.78
  -4   0   0   49.40   10.56
   4   0   0   29.95    5.99
   4   0  -1  803.17   17.93
   4   0   1  795.86   17.67
  -4   0  -1  839.92   19.45
   4   0  -1  814.40   18.15
   4   0   1  803.51   18.51
   4   0   1  756.91   17.32
  -4   0   1  822.39   18.68
   4   0  -1  804.07   18.30
   4   0  -2  547.89   13.03
   4   0   2  517.30   12.25
   4   0  -2  541.56   13.25
  -4   0   2  569.37   13.01
  -4   0  -2  566.92   14.34
   4   0  -2  542.58   12.37
   4   0   2  538.41   13.55
  -4   0   2  554.15   13.46
   4   0  -2  527.58   12.79
   4   0  -3  621.47   14.80
  -4   0  -3  628.34   15.16
   4   0   3  595.78   14.35
   4   0  -3  658.58   16.49
  -4   0   3  634.81   13.93
  -4   0  -3  624.50   15.70
   4   0  -3  629.17   13.76
  -4   0   3  619.59   15.69
   4   0  -3  617.07   14.87
  -4   0  -4    4.38    2.25
   4   0   4    2.68    1.76
   4   0  -4    2.86    2.63
  -4   0   4    2.76    2.65
  -4   0  -4    2.94    1.67
   4   0  -4    3.03    0.79
  -4   0   4    4.06    3.50
   4   0  -4    4.47    1.44
  -4   0  -5    6.07    3.28
   4   0  -5    8.81    4.40
  -4   0  -5   10.20    2.58
  -4   0   5    6.69    2.89
  -4   0  -6  225.79   16.65
   4   0  -6  230.87   25.97
  -4   0  -6  220.05   15.48
  -4   0   6  190.21   13.38
  -4   0  -7   64.64   12.58
   4   0  -7   60.06   11.51
  -4   0  -7   68.30   13.20
  -4   0   7   78.44   15.50
  -4   0  -8    8.80    3.42
   4   0  -8   12.09    4.29
  -4   0  -8   13.90    4.22
  -4   0   8   14.45    3.73
  -4   0  -9   24.60    4.82
   4   0  -9   18.57    4.94
  -4   0  -9   14.14    3.82
  -4   0   9   16.50    4.13
  -4   0 -10   45.42    9.64
   4   0 -10   30.00    6.92
  -4   0 -10   41.30    9.85
  -4   0  10   42.43    8.44
  -4   0 -11  321.01   25.10
   4   0 -11  360.96   50.63
  -4   0 -11  366.39   35.44
  -4   0  11  348.61   23.78
  -4   0 -12    6.96    3.76
   4   0 -12    7.27    4.32
  -4   0 -12    7.81    3.77
  -4   0  12    5.88    3.36
  -4   0 -13  104.38   19.87
   4   0 -13   92.19   19.17
  -4   0 -13  109.22   12.01
  -4   0 -14   15.60    5.55
   4   0 -14   12.07    5.14
  -4   0 -14   19.97    3.83
  -4   0  14   13.50    4.37
  -4   0 -15   59.28   14.95
   4   0 -15   52.19   15.04
  -4   0 -15   48.88   11.39
  -4   0  15   53.02    9.86
  -4   0 -16   14.39    5.93
   4   0 -16    4.28    6.27
  -4   0 -16    4.07    1.58
  -4   0  16    6.05    6.32
  -4   0 -17   24.39    6.84
   4   0 -17   36.28    9.51
  -4   0 -17   24.46    7.32
  -4   0  17   17.50    6.75
  -4   0 -18   12.96    5.62
   4   0 -18    1.79    4.64
  -4   0 -18    9.81    3.01
  -4   0  18   13.50    6.19
  -4   0 -19    3.02    2.88
   4   0 -19   -0.34    6.12
  -4   0 -19    2.73    2.56
  -4   0  19    2.85    3.41
  -4   0 -20    7.93    4.13
   4   0 -20   12.34    4.27
  -4   0 -20    3.87    3.16
  -4   0  20    8.05    4.21
  -4  -1   0   17.39    4.82
  -4   1   0   20.24    4.71
   4  -1   0   20.20    4.20
   4   1   0   16.53    3.78
  -4   1   0   18.93    3.61
   4  -1   0   16.91    3.16
  -4  -1   0   21.09    3.89
   4   1   0   17.16    3.09
  -4  -1   0   22.07    4.62
   4  -1   0   16.72    4.36
   4   1   0   15.15    4.85
  -4   1   1   91.99    8.98
   4   1  -1   99.85    8.20
   4  -1  -1   89.70   13.34
  -4   1  -1   93.72    8.29
  -4  -1  -1   98.19    8.15
   4  -1   1   91.25    7.88
   4   1   1   92.08    7.61
   4   1  -1   97.62    8.21
  -4   1  -1  106.82   15.50
   4  -1  -1   97.34    8.29
   4  -1   1   89.11   12.16
  -4  -1  -1  101.44    9.81
   4   1   1  102.11    9.42
   4   1  -1   99.51    8.36
  -4  -1  -1  100.62    8.90
   4  -1   1   91.63    7.72
   4   1   1   81.64    9.54
  -4  -1   1   97.29    8.61
   4  -1  -1   96.51    8.45
   4   1  -1   87.69   15.42
  -4   1   2  243.33    7.36
   4   1  -2  234.62    6.35
   4  -1  -2  275.62    8.13
  -4   1  -2  275.69    9.84
  -4  -1  -2  251.74    6.89
   4   1   2  253.51    6.76
   4   1  -2  250.37    7.12
  -4  -1   2  272.29    7.05
  -4  -1  -2  245.82    7.81
   4   1  -2  253.91    6.72
  -4  -1   2  271.16    8.41
   4   1  -2  232.81    7.16
   4  -1  -2  265.90    7.08
   4  -1  -3  108.52    9.40
  -4   1  -3  104.68   11.70
   4  -1   3   79.85    9.48
   4   1   3  115.30    9.75
   4   1  -3  113.22   13.31
   4  -1  -3  130.88   16.18
  -4  -1   3  102.83    8.68
   4  -1  -3  112.46    9.20
  -4   1  -3   91.16   11.84
  -4  -1   3  111.99    9.22
  -4  -1  -3  110.66   12.32
   4   1  -3  102.46    8.49
  -4  -1   3  124.90   11.04
   4   1  -3   96.38   12.06
   4  -1  -3  105.67    8.90
  -4   1  -4  130.90    9.65
   4   1   4  122.46   10.20
   4   1  -4  146.02   10.41
   4  -1  -4  149.31   22.96
  -4  -1   4  130.16   14.23
   4  -1  -4  156.27   10.27
  -4   1  -4  164.88   16.82
  -4  -1   4  144.30    9.48
  -4  -1  -4  163.16   21.71
   4   1  -4  145.51    9.60
  -4  -1   4  154.73   12.20
  -4   1  -5  137.83   10.21
  -4  -1  -5  133.68   12.50
   4   1  -5  131.38    9.88
   4  -1  -5  135.60   10.83
   4  -1  -5  136.11    9.01
  -4   1  -5  136.73   11.42
  -4  -1  -5  143.73   17.71
   4  -1  -5  131.25    9.16
  -4  -1   5  138.68   14.90
  -4   1  -6  439.53   21.31
  -4  -1  -6  455.97   21.77
   4   1  -6  435.31   21.12
   4  -1  -6  430.43   24.12
   4  -1  -6  429.99   18.85
  -4   1  -6  396.82   19.17
  -4  -1  -6  420.65   20.36
   4  -1  -6  435.80   19.23
  -4  -1   6  430.95   20.68
  -4   1   6  442.48   20.95
  -4   1  -7  454.85   23.09
  -4  -1  -7  398.03   20.37
   4   1  -7  366.99   19.04
   4  -1  -7  418.69   21.82
  -4   1  -7  430.81   21.97
  -4  -1  -7  398.88   20.36
   4  -1  -7  411.78   18.89
  -4  -1   7  428.57   22.12
  -4   1   7  404.77   20.87
  -4   1  -8   93.78   21.39
  -4  -1  -8  110.09   23.59
   4   1  -8   94.76   11.85
   4  -1  -8  103.12   16.03
  -4   1  -8   84.72   11.81
   4  -1  -8   91.63    5.27
  -4  -1  -8   97.82   12.98
  -4  -1   8  102.88   17.35
  -4   1   8   99.96   17.38
  -4   1  -9  288.43   19.73
  -4  -1  -9  276.69   18.48
   4   1  -9  324.30   34.41
   4  -1  -9  332.15   42.59
  -4   1  -9  292.25   19.00
  -4  -1  -9  290.31   19.00
  -4  -1   9  297.56   25.13
  -4   1   9  326.00   21.26
  -4   1 -10    5.46    2.96
  -4  -1 -10   10.86    4.58
   4   1 -10    6.50    3.31
   4  -1 -10   12.35    7.60
   4  -1 -10    6.51    1.40
  -4   1 -10    8.17    2.53
  -4  -1 -10   18.21    4.36
  -4  -1  10    8.90    4.53
  -4   1  10   15.32    4.43
  -4   1 -11   29.11    5.92
  -4  -1 -11   27.29    7.20
   4   1 -11   22.26    6.63
   4  -1 -11   18.32    5.42
   4  -1 -11   18.07    3.81
  -4   1 -11   23.01    8.66
  -4  -1 -11   26.93    8.32
  -4  -1  11   28.18   10.18
  -4   1 -12  144.36   27.69
  -4  -1 -12  152.15   24.99
   4   1 -12  166.37   34.40
   4  -1 -12  163.44   35.97
  -4   1 -12  159.55   25.50
  -4  -1 -12  149.41   17.01
  -4  -1  12  151.67   26.78
  -4   1 -13   18.04    5.89
  -4  -1 -13    8.26    3.87
   4   1 -13   10.88    3.97
   4  -1 -13   36.33    7.64
  -4   1 -13   14.72    3.59
  -4  -1 -13   18.90    4.03
  -4  -1  13   15.36    5.16
  -4   1 -14   21.78    6.66
  -4  -1 -14   15.00    3.89
   4   1 -14   29.58    9.72
   4  -1 -14   28.38    7.35
  -4   1 -14   29.80    5.77
  -4  -1 -14   32.58    5.59
  -4  -1  14   25.56    6.43
  -4   1 -15   21.80    5.98
  -4  -1 -15   20.80    7.53
   4   1 -15   15.86    4.50
   4  -1 -15   10.60    8.26
  -4   1 -15   25.64    6.25
  -4  -1 -15   20.54    8.85
  -4  -1  15   21.32    6.17
  -4   1 -16   33.05    8.93
  -4  -1 -16   29.08    6.71
   4   1 -16   30.95   11.25
   4  -1 -16   31.96   10.27
  -4   1 -16   21.85    5.88
  -4  -1 -16   30.43    7.89
  -4  -1  16   21.57    8.15
  -4   1  16   20.83    5.51
  -4   1 -17    4.83    5.33
  -4  -1 -17   15.91    4.18
   4   1 -17   15.20    4.80
   4  -1 -17   15.69    5.64
  -4   1 -17   12.96    2.98
  -4  -1 -17   10.86    4.46
  -4  -1  17   20.38    6.65
  -4   1  17   20.19    6.46
  -4  -1 -18   15.09    6.59
   4   1 -18   32.52    7.45
   4  -1 -18   11.69    3.85
  -4   1 -18   20.71    4.46
  -4  -1 -18   22.76    4.95
  -4  -1  18   17.79    4.77
  -4   1  18   13.44    5.49
  -4   1 -19   27.30    9.18
  -4  -1 -19   22.07    6.87
   4   1 -19   20.72    6.44
   4  -1 -19   23.18    7.03
  -4   1 -19   15.41    4.08
  -4  -1 -19   20.67    4.30
  -4  -1  19   18.78    6.21
  -4   1  19    9.22    3.61
  -4   1 -20    5.43    4.01
  -4  -1 -20    7.63    3.69
   4   1 -20    5.92    3.58
   4  -1 -20    7.20    7.16
  -4   1 -20    8.76    4.86
  -4  -1 -20    3.61    1.41
  -4  -1  20    6.83    5.10
  -4   1  20    2.88    3.31
  -4  -2   0  236.33    5.50
  -4   2   0  237.86    9.52
   4  -2   0  228.07    7.60
   4   2   0  230.57    5.30
   4  -2   0  211.50    6.57
  -4  -2   0  238.02    7.39
   4   2   0  233.67    7.18
   4  -2   0  222.65    5.84
  -4  -2   0  230.65    7.54
  -4   2   1  113.54   12.43
   4   2  -1  119.32    9.56
   4  -2  -1  126.68   10.87
  -4   2  -1  124.04   10.71
  -4  -2  -1  115.77    9.27
   4  -2   1  111.29   10.00
   4   2   1  123.32    9.88
   4   2  -1  117.18    9.64
  -4   2  -1  125.59   10.77
   4  -2  -1  109.15    9.16
   4  -2   1   90.52   15.90
  -4  -2  -1  120.25   10.35
   4   2   1  122.47   10.55
   4   2  -1  106.41   15.97
  -4  -2  -1  123.83   10.74
  -4   2   1  119.00    9.75
  -4  -2   1  131.97   12.81
   4  -2  -1  133.74   10.92
  -4   2   2   47.60    8.35
  -4   2  -2   54.18   12.42
  -4  -2  -2   47.04    4.55
   4   2   2   50.68    6.39
   4   2  -2   40.13    5.88
  -4  -2   2   51.08    5.99
   4  -2  -2   38.92    8.25
  -4   2  -2   43.96    7.44
  -4  -2  -2   49.88    9.08
  -4  -2   2   54.23    8.79
   4   2  -2   44.49    4.32
  -4   2   2   43.46    4.00
  -4  -2   2   52.95   10.51
   4  -2  -2   49.58    6.49
  -4   2  -3  281.86    8.57
  -4  -2  -3  257.87    7.21
   4   2   3  265.75    7.17
   4   2  -3  249.04    7.11
  -4  -2   3  272.08    7.39
   4  -2  -3  291.70    9.53
  -4  -2  -3  253.92    8.12
  -4  -2   3  284.60    8.67
   4   2  -3  260.25    6.91
  -4   2   3  257.61    7.06
   4  -2  -3  271.37    7.16
  -4   2  -4  417.15   19.95
   4   2   4  389.75   18.08
   4   2  -4  376.30   17.57
  -4  -2   4  373.38   17.29
   4  -2  -4  437.68   21.22
  -4   2  -4  411.48   19.63
  -4  -2  -4  378.61   18.18
  -4  -2   4  404.35   18.00
   4   2  -4  379.67   17.68
   4  -2  -4  395.13   18.96
  -4  -2   4  422.14   19.99
  -4   2   4  418.30   19.17
  -4   2  -5  365.43   21.30
   4   2  -5  338.37   16.35
   4  -2  -5  410.32   20.30
  -4   2  -5  380.49   18.52
  -4  -2  -5  341.92   16.91
  -4  -2   5  377.85   16.70
   4  -2  -5  377.11   17.27
   4   2  -5  338.39   15.22
  -4  -2   5  372.48   18.33
  -4   2   5  386.65   17.99
  -4   2  -6  122.62   25.85
  -4  -2  -6  131.98    9.91
   4   2  -6  108.78   14.70
   4  -2  -6  151.66   29.16
  -4   2  -6  118.59    9.57
  -4  -2  -6  124.41    9.55
  -4  -2   6  112.92    7.34
   4  -2  -6  119.83    8.32
  -4  -2   6  153.71   27.03
  -4   2  -7  505.48   26.77
  -4  -2  -7  523.23   25.95
   4   2  -7  528.88   26.23
   4  -2  -7  521.85   28.11
  -4   2  -7  565.27   42.63
  -4  -2  -7  497.48   24.78
   4  -2  -7  531.39   24.86
  -4  -2   7  506.42   31.78
  -4   2  -8  255.34   14.46
  -4  -2  -8  251.58   28.36
   4   2  -8  264.33   14.76
   4  -2  -8  296.59   37.30
  -4   2  -8  296.86   26.31
  -4  -2  -8  249.90   25.28
   4  -2  -8  282.31   13.59
  -4  -2   8  257.50   19.15
  -4   2   8  259.62   17.28
  -4   2  -9  140.56   13.48
  -4  -2  -9  135.93   20.90
   4   2  -9  122.36   18.47
   4  -2  -9  140.69   23.47
  -4   2  -9  131.63   11.91
  -4  -2  -9  118.96   20.75
   4  -2  -9  131.04    3.14
  -4  -2   9  153.23   26.00
  -4   2 -10   15.97    5.41
  -4  -2 -10    3.75    3.05
   4   2 -10   10.33    6.07
   4  -2 -10   10.28    6.56
  -4   2 -10    4.44    1.80
  -4  -2 -10    7.01    3.64
   4  -2 -10    5.07    1.16
  -4  -2  10    8.39    3.47
  -4   2 -11  118.13   17.28
  -4  -2 -11  104.05   21.87
   4   2 -11   90.42   19.29
   4  -2 -11  135.98   15.54
  -4   2 -11  104.84   20.18
  -4  -2 -11   92.42   12.13
   4  -2 -11   98.40    6.44
  -4   2  11   78.71    8.56
  -4  -2  11  120.02   24.39
  -4   2 -12   52.77    9.80
  -4  -2 -12   47.63   10.55
   4   2 -12   64.90    8.77
   4  -2 -12   46.91    8.05
  -4   2 -12   56.31    9.26
   4  -2 -12   39.63    5.89
  -4  -2 -12   56.70   10.61
  -4   2  12   30.26    6.85
  -4  -2  12   57.43   13.73
  -4   2 -13   24.70    6.76
  -4  -2 -13   19.76    4.86
   4   2 -13   20.12    5.06
   4  -2 -13   38.94   11.52
  -4   2 -13   39.86    7.58
   4  -2 -13   21.43    3.64
  -4  -2 -13   26.28    5.98
  -4  -2  13   15.33    4.93
  -4   2 -14    8.80    3.17
  -4  -2 -14    8.89    4.74
   4   2 -14    9.34    5.08
   4  -2 -14    7.83    5.07
  -4   2 -14    3.92    1.79
  -4  -2 -14    3.08    1.77
  -4  -2  14    9.55    3.31
  -4   2 -15   36.47    7.29
  -4  -2 -15   34.33    7.76
   4   2 -15   38.82    6.96
   4  -2 -15   36.19   10.14
  -4   2 -15   37.05    7.71
  -4  -2 -15   40.33   15.00
  -4  -2  15   16.50    9.27
  -4   2 -16   99.44   17.90
  -4  -2 -16   77.04   16.41
   4   2 -16   92.05   14.58
   4  -2 -16   75.37   15.77
  -4   2 -16   84.37    7.94
  -4  -2 -16  105.46   20.35
  -4  -2  16   95.25   23.65
  -4   2 -17   41.51   11.85
  -4  -2 -17   34.49    8.28
   4   2 -17   45.13   10.17
   4  -2 -17   42.05    6.98
  -4   2 -17   39.07   12.83
  -4  -2 -17   54.22    8.52
  -4  -2  17   48.69   10.74
  -4   2 -18    6.83    4.10
  -4  -2 -18    5.29    2.95
   4   2 -18    6.58    4.94
   4  -2 -18    5.87    4.36
  -4  -2 -18    5.12    3.11
  -4  -2  18    5.11    2.94
  -4   2  18    3.26    4.57
  -4   2 -19   25.52   11.63
  -4  -2 -19   38.44    7.67
   4   2 -19   22.76   10.91
   4  -2 -19   30.47    7.85
  -4  -2 -19   17.73    6.62
  -4  -2  19   30.96    8.39
  -4   2  19   22.27   11.80
  -4   2 -20   10.10    6.84
  -4  -2 -20   10.28    4.96
   4   2 -20   10.09    6.83
   4  -2 -20   23.01    8.36
  -4  -2 -20   14.95    7.90
  -4  -2  20   16.17    6.10
  -4   2  20   19.04    6.02
  -4   3   0   34.00    4.86
  -4  -3   0   35.99    7.16
   4   3   0   16.73    3.45
   4  -3   0   26.05    3.80
  -4  -3   0   26.51    6.63
  -4   3  -1  275.58    9.04
  -4  -3  -1  321.59    6.84
   4   3  -1  312.53    8.92
  -4  -3  -1  323.14    9.91
  -4  -3   1  266.07   11.66
  -4   3   2    1.96    1.74
  -4   3  -2    6.15    3.55
  -4  -3  -2    1.05    1.12
   4   3  -2    2.30    1.57
   4   3   2    3.18    1.30
  -4  -3   2    8.02    1.78
  -4  -3  -2    1.16    2.14
   4   3  -2    3.26    1.56
  -4   3   2    2.67    0.86
  -4  -3   2    3.00    1.79
   4  -3  -2    3.21    0.97
  -4   3   3  240.31   16.48
  -4   3  -3  246.49   16.99
  -4  -3  -3  245.28   16.09
   4   3  -3  232.46   16.03
   4   3   3  232.56   16.19
  -4  -3   3  224.73   14.79
  -4  -3  -3  256.23   18.35
  -4  -3   3  255.57   16.91
   4   3  -3  228.88   15.23
  -4  -3   3  266.10   20.11
  -4   3   3  242.67   15.69
  -4   3  -4    6.33    3.25
  -4  -3  -4    3.03    2.13
   4   3  -4    4.62    2.00
   4   3   4    2.36    1.27
  -4  -3   4    5.38    2.07
   4  -3  -4    9.34    3.83
  -4  -3  -4    2.52    2.22
  -4  -3   4    4.25    1.86
   4   3  -4    2.34    1.36
   4  -3  -4    6.08    2.02
  -4  -3   4    5.16    3.88
  -4   3   4    3.69    1.22
  -4   3  -5   22.04    4.18
   4   3  -5   21.00    3.78
   4   3   5   14.75    2.57
  -4  -3   5   14.07    2.93
   4  -3  -5   21.88    7.85
  -4   3  -5   17.61    4.72
  -4  -3  -5   17.12    4.81
  -4  -3   5   19.89    4.26
   4  -3  -5   16.35    3.51
   4   3  -5   12.44    3.11
  -4  -3   5   13.62    3.49
  -4   3   5   17.21    4.36
  -4   3  -6 1168.19  111.92
   4   3  -6 1096.97   51.44
   4  -3  -6 1211.58   54.87
  -4   3  -6 1095.16   51.78
  -4  -3  -6 1116.38   52.82
  -4  -3   6 1199.38  114.08
   4  -3  -6 1175.51  112.05
  -4  -3   6 1176.87   53.10
  -4   3   6 1146.93   53.33
  -4   3  -7   12.83    4.54
  -4  -3  -7   11.03    2.75
   4   3  -7   10.17    2.64
   4  -3  -7   10.38    4.84
  -4   3  -7    8.66    2.57
  -4  -3  -7   11.83    3.11
  -4  -3   7   13.25    2.98
   4  -3  -7   14.75    3.37
  -4  -3   7   17.70    4.48
  -4   3  -8   20.05    5.24
  -4  -3  -8   16.93    4.38
   4   3  -8   27.38    5.38
   4  -3  -8   24.62    8.98
  -4   3  -8   22.95    5.76
  -4  -3   8   15.57    3.36
  -4  -3  -8   19.46    5.60
   4  -3  -8   22.11    4.98
  -4  -3   8   17.69    4.16
  -4  -3   8   27.22    7.22
  -4   3  -9   13.85    4.57
  -4  -3  -9   27.66    6.71
   4   3  -9   16.55    3.97
   4  -3  -9   28.32    8.71
  -4   3  -9   16.86    3.85
  -4  -3   9   10.70    2.30
  -4  -3  -9   20.37    5.08
   4  -3  -9   17.65    4.18
  -4  -3   9   13.66    3.46
  -4  -3   9   12.22    4.39
  -4   3 -10  147.04   25.24
  -4  -3 -10  161.20   25.05
   4   3 -10  134.83   20.39
   4  -3 -10  153.26   32.83
  -4   3 -10  128.87   13.72
  -4  -3 -10  143.34   13.59
  -4  -3  10  128.15    8.31
   4  -3 -10  128.17    9.87
  -4  -3  10  135.16    8.61
  -4   3  10  111.75   12.43
  -4  -3  10  156.36   27.67
  -4   3 -11  120.09   23.56
   4   3 -11  127.97   25.52
   4  -3 -11  139.52   18.55
  -4   3 -11  120.72   10.05
  -4  -3 -11  122.88   19.81
   4  -3 -11  112.66    4.81
  -4  -3  11  101.78   21.48
  -4  -3  11  117.04    4.99
  -4   3  11   90.06    6.88
  -4  -3  11  105.21   20.32
  -4   3 -12   12.56    4.25
   4   3 -12   20.37    7.07
   4  -3 -12   17.34    6.62
  -4   3 -12   12.67    6.40
  -4  -3 -12   16.94    6.41
   4  -3 -12    9.91    3.09
  -4  -3  12    6.66    2.18
  -4  -3  12    9.20    3.13
  -4  -3  12   20.42   10.45
  -4   3 -13   50.08   11.21
   4   3 -13   60.11   10.70
   4  -3 -13   59.89   12.33
  -4   3 -13   54.97   11.86
  -4  -3 -13   61.47   10.47
   4  -3 -13   46.82    6.16
  -4  -3  13   65.08   15.30
  -4   3 -14   15.98    6.01
  -4  -3 -14   28.81    8.46
   4   3 -14   13.32    5.02
   4  -3 -14   41.80   12.24
  -4   3 -14   14.32    5.04
   4  -3 -14    9.72    3.68
  -4  -3 -14   17.76    6.61
  -4  -3  14   17.17    7.81
  -4   3 -15   44.96    9.58
  -4  -3 -15   59.20   12.21
   4   3 -15   37.61   13.02
   4  -3 -15   45.73   11.86
  -4  -3 -15   39.83   10.98
  -4  -3  15   39.24    9.96
  -4   3 -16    6.48    3.87
  -4  -3 -16    7.91    3.94
   4   3 -16    4.31    3.36
   4  -3 -16   15.13    7.73
  -4  -3 -16    3.71    2.06
  -4  -3  16   10.05    3.73
  -4   3 -17   61.78   11.46
  -4  -3 -17   34.94   12.35
   4   3 -17   39.03    8.31
   4  -3 -17   32.53    9.03
  -4  -3 -17   24.76   10.50
  -4  -3  17   29.46    9.32
  -4   3 -18   45.65   14.68
  -4  -3 -18   50.61   15.02
   4   3 -18   56.68   15.32
   4  -3 -18   49.44   17.26
  -4  -3 -18   45.34   15.23
  -4  -3  18   50.56   11.57
  -4   3 -19    2.80    6.99
  -4  -3 -19    8.58    4.74
   4   3 -19   14.13    5.33
   4  -3 -19   12.87    6.98
  -4  -3 -19    2.81    2.78
  -4  -3  19    9.06    6.13
  -4   3 -20    2.84    2.72
  -4  -3 -20   10.33    5.00
   4   3 -20   -0.35    4.11
   4  -3 -20   10.23    5.89
  -4  -3 -20    3.58    2.83
  -4  -3  20    4.44    3.14
  -4   3  20    4.49    3.83
  -4   4   0  375.75   19.10
  -4  -4   0  389.22   18.67
  -4  -4   0  372.81   17.97
  -4   4   1 1017.36   45.65
  -4   4  -1 1013.37   47.38
   4   4  -1  978.65   42.34
  -4  -4   1  935.92   40.50
  -4  -4  -1  981.83   44.09
  -4  -4   1 1047.02   47.07
  -4  -4  -1  960.76   43.20
  -4  -4   1  994.06   44.68
   4  -4  -1 1002.42   43.30
  -4   4   2 1195.39   53.26
  -4   4  -2 1176.56   52.58
  -4  -4  -2 1215.29   52.84
  -4  -4   2 1137.15   49.54
   4   4   2 1165.85   50.69
  -4  -4  -2 1188.74   53.14
   4   4  -2 1162.09   51.48
  -4  -4  -2 1197.21   53.38
  -4  -4   2 1159.12   51.91
  -4   4   3  140.07   11.00
  -4   4  -3  149.15   12.64
   4   4  -3  136.13    9.34
  -4  -4  -3  121.44    9.80
  -4  -4   3  137.21    9.37
   4   4   3  135.41    9.12
  -4  -4  -3  122.33   14.30
   4   4  -3  101.95   17.00
   4  -4  -3  143.13   10.44
  -4   4   3  131.06    8.49
  -4  -4   3  133.90   15.39
  -4   4  -4  160.91   12.78
   4   4  -4  155.42   11.40
  -4  -4  -4  163.24   11.29
  -4  -4   4  151.06   13.68
   4   4   4  144.72   10.22
   4  -4  -4  158.93   11.87
  -4  -4  -4  159.04   13.25
  -4  -4   4  168.49   14.24
   4   4  -4  147.01   11.61
   4  -4  -4  167.63   21.00
  -4  -4   4  170.14   21.02
  -4   4   4  153.88   10.40
  -4   4  -5   21.60    5.23
   4   4  -5   25.35    5.16
  -4  -4  -5   26.88    3.57
  -4  -4   5   12.57    2.96
   4   4   5   13.54    4.04
   4  -4  -5   18.09    5.38
  -4  -4  -5   21.34    5.31
  -4  -4   5   22.39    5.01
   4  -4  -5   11.44    3.51
   4   4  -5   13.46    3.23
  -4  -4   5   20.93    5.48
  -4   4   5   15.91    3.33
  -4   4  -6   93.47   16.02
   4   4  -6   82.55   12.22
   4  -4  -6   97.55   17.28
  -4  -4  -6   86.98    9.57
  -4  -4   6   79.82    5.70
   4  -4  -6   89.15   11.29
  -4  -4   6   99.49   19.69
  -4   4  -7  156.61   20.27
   4   4  -7  141.81   16.04
  -4  -4  -7  128.54    9.37
   4  -4  -7  146.34   21.95
  -4  -4  -7  143.09   20.42
  -4  -4   7  130.35    9.84
   4  -4  -7  119.23   14.58
  -4  -4   7  149.86   24.59
  -4   4  -8   22.83    5.35
   4   4  -8   13.48    3.79
  -4  -4  -8   22.13    6.73
   4  -4  -8    9.46    3.99
  -4  -4  -8   19.45    4.95
   4  -4  -8   15.15    4.87
  -4  -4   8   14.70    3.83
  -4  -4   8   12.46    4.18
  -4   4  -9   87.03   19.73
   4   4  -9   72.48   13.92
  -4  -4  -9   61.10   11.44
   4  -4  -9  101.83   13.86
  -4  -4   9   79.03    7.03
  -4  -4  -9   61.90    9.10
   4  -4  -9   92.68    9.75
  -4  -4   9   92.53    9.95
  -4  -4   9   90.31   18.34
  -4   4 -10  264.83   41.33
   4   4 -10  205.79   23.94
  -4  -4 -10  262.21   23.53
   4  -4 -10  291.11   40.92
  -4  -4  10  229.96   14.92
  -4  -4 -10  280.88   36.10
   4  -4 -10  268.91   17.65
  -4  -4  10  234.02   16.25
  -4  -4  10  277.65   45.12
  -4   4 -11   62.56   11.37
   4   4 -11   64.38   16.85
  -4  -4 -11   62.68   12.47
   4  -4 -11   80.68   17.47
  -4  -4  11   37.28    6.77
  -4  -4 -11   65.99   16.86
   4  -4 -11   58.30    9.45
  -4  -4  11   54.53    6.60
  -4  -4  11   69.83   16.19
  -4   4 -12   51.43   12.71
   4   4 -12   53.52   10.30
  -4  -4 -12   49.25   13.61
   4  -4 -12   63.89   13.01
  -4  -4 -12   51.78   10.15
   4  -4 -12   45.77   11.47
  -4  -4  12   52.83    8.54
  -4  -4  12   65.49   15.44
  -4   4 -13   46.56   12.57
   4   4 -13   54.16   16.51
  -4  -4 -13   39.80    9.17
   4  -4 -13   49.59   15.97
  -4  -4 -13   58.45   11.10
   4  -4 -13   39.07   10.87
  -4  -4  13   40.72    5.52
  -4  -4  13   56.62   13.72
  -4   4 -14  211.19   29.43
   4   4 -14  217.01   27.26
  -4  -4 -14  182.13   35.07
   4  -4 -14  216.84   34.97
  -4  -4 -14  218.68   14.80
   4  -4 -14  196.75   14.37
  -4  -4  14  231.41   28.97
  -4   4 -15   12.72    4.19
   4   4 -15    2.68    3.46
  -4  -4 -15   23.05    6.75
   4  -4 -15   18.65    9.46
  -4  -4 -15   10.39    3.25
  -4  -4  15   15.89    5.29
  -4   4 -16    7.22    2.97
   4   4 -16    3.81    2.63
  -4  -4 -16   11.74    4.54
   4  -4 -16    3.62    7.90
  -4  -4 -16    9.67    5.41
  -4  -4  16   14.52    5.71
  -4   4 -17    7.88    6.43
   4   4 -17   10.32    4.29
  -4  -4 -17    6.26    2.83
   4  -4 -17    8.01    4.60
  -4  -4 -17    4.94    3.47
  -4  -4  17    9.53    3.19
  -4   4 -18    7.54    4.40
   4   4 -18   -1.66    4.26
  -4  -4 -18    8.99    5.29
   4  -4 -18   -3.40    5.97
  -4  -4 -18    9.20    4.47
  -4  -4  18    6.43    4.15
  -4   4 -19   10.57    6.21
   4   4 -19    9.92    6.80
  -4  -4 -19    1.87    2.26
   4  -4 -19    7.59    5.90
  -4  -4 -19    6.41    2.76
  -4  -4  19   -0.85    3.47
  -4   5   0 1259.60   56.31
  -4  -5   0 1256.48   54.30
  -4  -5   0 1303.67  107.77
  -4  -5   0 1339.94  111.74
  -4  -5   0 1278.51   57.11
  -4   5   1  433.97   20.96
   4   5  -1  413.12   18.18
  -4   5  -1  350.69   17.46
  -4  -5  -1  395.98   17.37
  -4  -5   1  368.28   16.28
  -4  -5  -1  412.28   18.30
  -4  -5  -1  436.57   22.04
  -4  -5   1  383.66   20.44
  -4  -5  -1  406.43   19.92
  -4  -5   1  375.39   18.45
  -4   5   2  207.19   15.83
  -4  -5  -2  204.21   13.30
  -4   5  -2  196.35   17.86
   4   5  -2  202.75   13.24
  -4  -5   2  206.67   13.95
  -4  -5  -2  209.53   13.70
  -4  -5  -2  214.28   15.44
  -4  -5   2  231.77   16.28
   4  -5  -2  229.10   19.08
  -4  -5  -2  209.26   20.58
  -4  -5   2  212.94   15.24
  -4  -5  -3   71.23    8.37
  -4   5   3   95.01   16.56
  -4   5  -3   76.46   16.14
   4   5  -3   78.77    8.84
  -4  -5   3   80.60    7.20
  -4  -5  -3   73.95    7.79
  -4  -5  -3   89.43   12.25
  -4  -5   3   63.75    9.99
   4  -5  -3   72.84   15.16
  -4  -5   3   86.08   12.52
  -4   5   4  435.49   22.70
  -4   5  -4  480.55   24.22
   4   5  -4  473.89   23.93
  -4  -5  -4  477.80   22.92
  -4  -5   4  492.12   24.44
   4   5   4  485.08   23.66
  -4  -5  -4  484.03   24.54
   4  -5  -4  496.00   25.02
  -4  -5   4  554.36   27.66
  -4   5   4  477.45   22.04
  -4   5  -5  332.55   17.80
   4   5  -5  410.84   21.05
  -4  -5  -5  390.22   19.82
   4   5   5  344.23   16.95
   4  -5  -5  362.99   19.24
  -4  -5  -5  416.94   21.74
  -4  -5   5  370.50   18.62
   4  -5  -5  364.94   19.22
  -4  -5   5  381.04   20.11
  -4   5   5  368.50   17.78
  -4   5  -6  160.51   12.08
   4   5  -6  202.28   14.55
   4  -5  -6  207.10   22.86
  -4  -5  -6  226.15   22.04
  -4  -5   6  212.19   13.32
   4  -5  -6  170.34   13.56
  -4  -5   6  200.46   19.66
  -4   5  -7  145.55    8.07
   4   5  -7  163.76   12.28
   4  -5  -7  205.16   29.03
  -4  -5  -7  167.58   25.97
   4  -5  -7  161.68   12.36
  -4  -5   7  179.04   12.56
  -4  -5   7  139.24   13.94
  -4   5  -8  147.29   15.30
   4   5  -8  161.81   15.25
  -4  -5  -8  157.47   20.79
   4  -5  -8  187.39   22.89
  -4  -5  -8  191.46   27.52
   4  -5  -8  160.84   15.48
  -4  -5   8  166.05    6.81
  -4  -5   8  164.21   14.27
  -4   5  -9   24.25    5.27
   4   5  -9   39.93   10.63
  -4  -5  -9   28.08    5.56
   4  -5  -9   37.17    7.47
  -4  -5   9   14.87    4.24
  -4  -5  -9   40.68   11.96
   4  -5  -9   22.93    6.56
  -4  -5   9   25.51    5.35
  -4  -5   9   22.15    6.89
  -4   5 -10   22.40    7.67
   4   5 -10   18.29    5.60
  -4  -5 -10   12.61    4.80
   4  -5 -10   30.69    9.42
  -4  -5  10   14.79    4.88
  -4  -5 -10   20.81    7.28
   4  -5 -10   24.77    6.98
  -4  -5  10   19.91    5.44
  -4  -5  10   36.67    8.93
  -4   5 -11  114.67   19.45
   4   5 -11  113.74   18.21
  -4  -5 -11  121.36   27.56
   4  -5 -11  142.80   17.70
  -4  -5 -11  137.58   12.61
   4  -5 -11  113.67   25.21
  -4  -5  11  129.28   12.54
  -4  -5  11  120.86   19.95
  -4   5 -12  179.13   22.27
   4   5 -12  165.93   27.38
  -4  -5 -12  163.13   21.30
   4  -5 -12  182.85   22.99
  -4  -5 -12  175.45   22.17
   4  -5 -12  185.86   17.85
  -4  -5  12  155.65    9.66
  -4  -5  12  191.92   25.10
  -4   5 -13   58.52   12.20
   4   5 -13   40.06    8.89
  -4  -5 -13   52.72    8.46
   4  -5 -13   55.03   16.14
  -4  -5 -13   37.40    9.64
   4  -5 -13   33.27    8.78
  -4  -5  13   32.40    8.80
  -4  -5  13   47.57    7.85
  -4   5 -14   11.71    7.53
   4   5 -14    3.21    2.61
  -4  -5 -14   13.29    4.12
   4  -5 -14   16.04    6.23
  -4  -5 -14    3.44    2.24
   4  -5 -14    3.46    2.00
  -4  -5  14   -0.09    4.68
  -4   5 -15   43.49   11.14
   4   5 -15   32.32    8.02
  -4  -5 -15   40.21    8.15
   4  -5 -15   30.41    5.62
  -4  -5 -15   41.18   10.83
  -4  -5  15   36.03   10.26
  -4   5 -16   28.06   12.50
   4   5 -16   36.57    7.21
  -4  -5 -16   35.34    7.39
   4  -5 -16   32.81    6.91
  -4  -5 -16   36.14    7.80
  -4  -5  16   27.83   10.63
  -4   5 -17   42.37   12.86
   4   5 -17   38.26   14.08
  -4  -5 -17   61.83   14.40
   4  -5 -17   51.68   17.05
  -4  -5 -17   57.70    8.47
  -4  -5  17   55.21   17.88
  -4   5 -18   13.68    3.97
   4   5 -18   19.36    6.78
  -4  -5 -18   14.68    6.07
   4  -5 -18   10.51    6.02
  -4  -5 -18    9.87    5.09
  -4  -5  18   10.46    5.69
  -4   5 -19   19.67    6.28
   4   5 -19   13.25    7.26
  -4  -5 -19   14.42    6.03
   4  -5 -19   11.99    9.50
  -4  -5 -19    8.76    2.69
  -4  -5  19   10.85    6.56
  -4   6   0  134.69   10.29
  -4  -6   0  144.42    9.53
  -4  -6   0  153.96   16.21
  -4  -6   0  158.19   15.74
   4  -6   0  149.59    9.98
  -4   6   1   14.49    4.16
   4   6  -1   13.70    3.17
  -4   6  -1   17.61    4.27
  -4  -6  -1   13.94    3.12
  -4  -6   1   16.67    3.74
  -4  -6  -1   17.76    3.57
  -4  -6  -1   21.64    4.58
  -4  -6   1   15.35    4.65
  -4  -6  -1   18.87    6.41
  -4  -6   1   24.80    5.71
   4  -6   1   17.25    3.49
  -4   6   2    3.74    1.68
  -4  -6  -2    1.31    1.59
  -4   6  -2    5.62    2.31
   4   6  -2    4.37    1.71
  -4  -6   2    4.46    1.13
  -4  -6  -2    5.88    1.92
  -4  -6  -2    4.10    3.20
  -4  -6   2    7.92    4.36
   4  -6  -2    0.08    4.28
  -4  -6  -2    3.22    2.05
  -4  -6   2    5.56    2.43
  -4   6   3   26.47    6.21
  -4  -6  -3   22.25    4.89
  -4   6  -3   42.39   10.42
   4   6  -3   29.45    6.90
  -4  -6   3   21.75    5.36
  -4  -6  -3   30.61    7.67
  -4  -6  -3   32.06    7.41
  -4  -6   3   30.56    7.10
   4  -6  -3   30.45    6.15
  -4  -6   3   28.81    7.24
  -4   6   4  687.61   35.00
  -4  -6  -4  575.90   27.93
  -4   6  -4  691.39   33.87
   4   6  -4  678.82   32.66
  -4  -6   4  613.80   29.10
  -4  -6  -4  660.86   31.27
  -4  -6  -4  672.93   33.36
   4  -6  -4  702.30   35.93
  -4   6   4  635.91   28.95
  -4  -6   4  679.76   34.94
  -4   6  -5   45.46    9.26
   4   6  -5   51.66    9.53
  -4  -6  -5   53.46   10.35
   4  -6  -5   52.98    9.51
  -4  -6  -5   43.99    8.43
   4  -6  -5   48.19   12.13
  -4  -6   5   36.54    9.03
  -4   6  -6    8.68    3.09
   4   6  -6   14.78    3.50
  -4  -6  -6   14.77    4.28
   4  -6  -6    5.68    2.33
  -4  -6  -6   15.48    3.93
  -4  -6   6   15.45    3.72
   4  -6  -6   21.07    6.02
  -4  -6   6    3.00    3.11
  -4   6  -7   32.22    6.57
   4   6  -7   31.85    5.77
   4  -6  -7   30.33    6.79
  -4  -6  -7   27.18    5.49
   4  -6  -7   36.74    8.94
  -4  -6   7   35.92   10.97
  -4  -6   7   25.15    6.64
  -4   6  -8  243.03   17.94
   4   6  -8  237.46   29.05
  -4  -6  -8  225.24   15.90
   4  -6  -8  281.32   34.83
  -4  -6  -8  245.53   36.71
   4  -6  -8  248.14   17.33
  -4  -6   8  242.64   17.19
  -4  -6   8  276.13   32.71
  -4   6  -9    9.52    4.31
   4   6  -9   11.56    3.41
  -4  -6  -9   16.40    5.35
   4  -6  -9   13.06    4.55
  -4  -6  -9   11.76    5.22
   4  -6  -9   16.00    5.38
  -4  -6   9    3.75    3.00
  -4  -6   9   10.17    3.62
  -4   6 -10   11.07    4.89
   4   6 -10    3.78    2.95
  -4  -6 -10    5.82    3.47
   4  -6 -10    8.83    3.96
  -4  -6 -10    7.15    3.62
   4  -6 -10    3.37    3.36
  -4  -6  10    1.48    2.26
  -4  -6  10    5.80    4.33
  -4   6 -11    4.73    4.15
   4   6 -11   -0.38    3.93
  -4  -6 -11    9.80    4.11
   4  -6 -11   -8.18    7.04
   4  -6 -11    7.94    3.86
  -4  -6  11    4.39    2.38
  -4  -6  11    5.10    5.71
  -4   6 -12   33.85   10.72
   4   6 -12   19.47    4.39
  -4  -6 -12   18.22    4.17
   4  -6 -12   26.69    9.62
  -4  -6 -12   29.45   10.78
   4  -6 -12   24.02    4.76
  -4  -6  12   25.13    7.61
  -4  -6  12   35.21    8.89
  -4   6 -13    3.39    4.15
   4   6 -13   -4.08    3.86
  -4  -6 -13    1.91    3.12
   4  -6 -13   14.52    6.85
  -4  -6 -13   10.13    4.32
   4  -6 -13    2.14    2.10
  -4  -6  13    1.06    1.76
  -4  -6  13   14.44    6.36
  -4   6 -14    6.71    4.18
   4   6 -14    2.70    3.51
  -4  -6 -14    4.24    3.51
   4  -6 -14   -0.27    5.85
  -4  -6 -14   -1.87    3.31
   4  -6 -14    3.47    1.97
  -4  -6  14    6.62    7.01
  -4   6 -15   23.73    4.48
   4   6 -15   17.88    3.95
  -4  -6 -15   21.13    7.96
   4  -6 -15   15.21    4.46
  -4  -6 -15   20.02    6.11
  -4  -6  15   22.90    5.59
  -4   6 -16   60.23   15.07
   4   6 -16   67.64   19.59
  -4  -6 -16   63.80   16.88
   4  -6 -16   77.26   20.37
  -4  -6 -16   50.44   20.04
  -4  -6  16   82.69   26.88
  -4   6 -17   22.50    7.51
   4   6 -17   17.44    6.08
  -4  -6 -17   10.38    5.73
   4  -6 -17   20.66   11.92
  -4  -6 -17   12.75    3.98
  -4  -6  17   10.74    6.09
  -4   6 -18   10.49    4.96
   4   6 -18   -1.79    3.63
  -4  -6 -18    5.79    3.88
   4  -6 -18   -0.09    5.80
  -4  -6 -18    3.20    2.18
  -4  -6  18    3.11    6.55
  -4   6 -19    3.33    3.30
   4   6 -19    0.65    2.40
  -4  -6 -19   10.43    6.05
   4  -6 -19    6.46    6.14
  -4  -6 -19    5.39    2.98
  -4  -6  19    9.31    5.05
   4   7   0  113.27    7.28
  -4   7   0  109.92   11.35
  -4  -7   0   98.71    6.91
  -4  -7   0  112.99   15.44
  -4  -7   0  114.33   10.54
   4  -7   0  109.98    6.65
  -4   7   1   87.41   16.94
   4   7  -1   79.40    8.42
  -4   7  -1   88.48   15.78
  -4  -7  -1   72.36    4.76
  -4  -7   1   65.28    7.77
  -4  -7  -1   72.55    7.04
  -4  -7  -1   84.00   15.30
  -4  -7   1   83.32   16.22
   4  -7  -1   74.52   14.26
  -4  -7  -1   69.72   14.32
  -4  -7   1   63.52   12.84
   4  -7   1   85.93    9.17
  -4   7   2  128.39   15.88
  -4   7  -2  156.06   14.16
  -4  -7  -2  116.77   11.27
   4   7  -2  131.52    8.19
  -4  -7   2  119.47    7.50
  -4  -7  -2  121.04    7.67
  -4  -7  -2  153.00   23.89
  -4  -7   2  140.53   11.04
   4  -7  -2  134.75   23.97
  -4  -7  -2  134.41   16.12
  -4  -7   2  137.44   23.55
   4  -7   2  138.36   14.52
  -4   7   3   52.20   10.17
  -4  -7  -3   28.71    5.31
  -4   7  -3   50.98    9.85
   4   7  -3   47.41    8.78
  -4  -7  -3   43.59   10.31
  -4  -7  -3   54.68   14.77
  -4  -7   3   50.66   11.20
   4  -7  -3   44.43   10.76
  -4  -7   3   49.39    9.69
   4  -7   3   43.65    9.34
  -4  -7  -4   65.04    7.80
   4   7  -4   89.49    3.92
  -4  -7   4   64.16    6.54
  -4  -7  -4   80.29    4.63
  -4  -7  -4   94.26   16.32
  -4  -7   4   91.07   17.45
   4  -7  -4   95.24   16.05
  -4  -7   4  100.82   17.94
  -4   7  -5  316.31   32.09
   4   7  -5  380.54   33.12
  -4  -7  -5  324.88   20.35
   4  -7  -5  343.66   24.08
  -4  -7  -5  361.29   23.90
  -4  -7   5  359.11   23.67
   4  -7  -5  315.42   23.62
  -4   7   5  323.03   19.10
  -4  -7   5  338.92   22.33
  -4   7  -6   36.83    8.52
   4   7  -6   36.29    7.37
  -4  -7  -6   33.82    7.67
   4  -7  -6   53.09   10.69
  -4  -7  -6   36.89    9.01
   4  -7  -6   39.07    9.08
  -4  -7   6   33.51    7.53
  -4   7  -7  225.82   32.96
   4   7  -7  245.00   17.84
   4  -7  -7  225.95   30.04
  -4  -7  -7  220.31   22.00
   4  -7  -7  212.95   21.24
  -4  -7   7  228.33   16.44
  -4  -7   7  237.29   23.91
  -4   7  -8   34.36    6.90
   4   7  -8   32.93    9.88
  -4  -7  -8   26.70    8.38
   4  -7  -8   47.27   10.67
  -4  -7  -8   39.50    7.32
   4  -7  -8   39.83   12.55
  -4  -7   8   37.50    7.68
  -4  -7   8   54.01    9.41
  -4   7  -9   30.41    8.76
   4   7  -9   30.24   10.99
  -4  -7  -9   31.78   11.57
   4  -7  -9   31.71    9.20
  -4  -7  -9   36.09    8.49
   4  -7  -9   21.01    6.01
  -4  -7   9   28.95    8.72
  -4  -7   9   29.49    8.04
  -4   7 -10   19.94    7.41
   4   7 -10   20.25    7.04
  -4  -7 -10   14.63    5.42
   4  -7 -10   27.03    6.64
  -4  -7 -10   25.05    6.31
   4  -7 -10   21.47    6.87
  -4  -7  10   11.05    4.46
  -4  -7  10   26.44    5.97
  -4   7 -11   63.92   17.45
   4   7 -11   49.37    7.46
  -4  -7 -11   75.99   18.08
   4  -7 -11   54.90   20.15
  -4  -7 -11   56.92    9.92
   4  -7 -11   52.32   15.11
  -4  -7  11   44.37   13.92
  -4  -7  11   60.56   11.74
  -4   7 -12   22.77    7.84
   4   7 -12   13.48    4.79
  -4  -7 -12   17.12    5.38
   4  -7 -12   21.37    9.72
  -4  -7 -12   19.10    3.31
   4  -7 -12   26.71    8.25
  -4  -7  12   19.30    6.13
  -4  -7  12   20.08    6.77
  -4   7 -13    6.47    4.32
   4   7 -13    7.88    4.03
  -4  -7 -13    7.66    5.20
   4  -7 -13    5.94    4.23
  -4  -7 -13    4.51    3.62
   4  -7 -13    3.72    2.62
  -4  -7  13    2.63    2.35
  -4  -7  13    5.72    3.63
  -4   7 -14   61.83   15.58
   4   7 -14   28.73    5.48
  -4  -7 -14   45.44    7.59
   4  -7 -14   44.26   12.00
  -4  -7 -14   43.12    9.08
   4  -7 -14   35.64    9.92
  -4  -7  14   46.56   13.43
  -4   7 -15    3.80    4.39
   4   7 -15    6.14    4.58
  -4  -7 -15    3.42    4.38
   4  -7 -15    7.40    4.74
  -4  -7 -15    2.37    1.90
  -4  -7  15    9.93    3.67
  -4   7 -16   16.80    5.05
   4   7 -16   26.74   10.56
  -4  -7 -16   16.08    5.33
   4  -7 -16   29.87    8.97
  -4  -7 -16   36.24    7.97
  -4  -7  16   19.38    8.09
  -4   7 -17   36.97    8.01
   4   7 -17   32.84    8.60
  -4  -7 -17   27.36   10.03
   4  -7 -17   15.90    4.40
  -4  -7 -17   21.63   10.77
  -4  -7  17   13.96    5.41
  -4   7 -18    9.70   10.02
   4   7 -18   12.00    5.73
  -4  -7 -18    7.66    5.45
   4  -7 -18    9.50    4.45
  -4  -7 -18    6.36    3.50
  -4  -7  18   14.42    7.33
   4   8   0   42.93    5.05
  -4   8   0   42.47    8.85
  -4  -8   0   33.18    6.90
  -4  -8   0   45.45   12.19
   4  -8   0   44.44   10.28
  -4  -8   0   55.23    8.78
   4  -8   0   44.59    4.64
  -4   8   1  180.45   24.23
   4   8  -1  178.12   15.79
  -4   8  -1  195.36   29.98
  -4  -8  -1  147.52   10.10
  -4  -8   1  145.91    7.12
  -4  -8  -1  167.45    7.45
  -4  -8  -1  196.08   27.25
  -4  -8   1  193.66   26.97
   4  -8  -1  183.77   26.39
  -4  -8  -1  153.21   18.58
  -4  -8   1  168.28   10.85
   4  -8   1  178.89   12.25
  -4   8   2  229.60   18.94
   4   8  -2  268.32   16.61
  -4   8  -2  230.37   16.31
  -4  -8  -2  249.98   15.40
  -4  -8   2  219.26   15.17
  -4  -8  -2  256.83   15.94
  -4  -8  -2  251.50   18.13
  -4  -8   2  232.91   16.93
   4  -8  -2  252.08   19.71
  -4  -8  -2  290.54   21.94
  -4  -8   2  256.36   18.74
   4  -8   2  275.41   18.61
  -4   8   3   88.53   11.41
  -4  -8  -3   62.60    6.13
  -4   8  -3   87.47   13.06
   4   8  -3   79.43    7.55
  -4  -8   3   49.54    9.49
  -4  -8  -3   74.64   11.74
  -4  -8  -3   96.38   18.08
  -4  -8   3   81.44   20.83
   4  -8  -3   69.56   10.68
  -4  -8   3   65.63   14.82
   4  -8   3   69.19   13.90
  -4   8   4   64.68   13.43
  -4   8  -4   60.83   12.28
   4   8  -4   64.76   11.36
  -4  -8  -4   60.56    9.06
  -4  -8  -4   57.96   10.51
  -4  -8   4   67.32   12.48
   4  -8  -4   62.80   11.08
  -4  -8   4   62.80   12.51
   4  -8   4   62.32   10.33
  -4   8  -5   57.83   11.93
   4   8  -5   42.71    6.40
  -4  -8  -5   42.95   11.53
   4  -8  -5   38.89    9.13
  -4  -8  -5   43.86   11.04
  -4  -8   5   43.94    9.04
   4  -8  -5   36.11    7.34
  -4   8   5   37.61    3.33
  -4  -8   5   37.66    8.95
   4  -8   5   56.10   14.82
  -4   8  -6   17.29    5.72
   4   8  -6   14.11    4.19
  -4  -8  -6   22.31    4.68
   4  -8  -6   15.67    4.97
  -4  -8  -6   11.97    4.93
  -4  -8   6   11.80    3.73
   4  -8  -6   12.75    5.95
  -4   8   6    8.43    2.20
  -4  -8   6    8.70    4.17
  -4   8  -7    9.78    4.48
   4   8  -7    5.48    2.89
   4  -8  -7   18.12    7.53
  -4  -8  -7    4.34    3.48
   4  -8  -7    6.98    4.89
  -4   8   7    3.25    1.52
  -4  -8   7    8.31    4.72
  -4   8  -8   26.98    5.30
   4   8  -8   21.09    7.24
   4  -8  -8   32.96    6.89
  -4  -8  -8   31.05    8.87
   4  -8  -8   18.68    5.36
  -4  -8   8   24.42    5.39
  -4  -8   8   25.82    6.19
  -4   8  -9  120.45   22.39
   4   8  -9   86.14   16.71
  -4  -8  -9   90.57   25.12
   4  -8  -9  127.78   23.09
  -4  -8  -9  121.96   22.03
   4  -8  -9  105.22   20.65
  -4  -8   9  123.47   20.32
  -4  -8   9  125.40   16.15
  -4   8 -10  103.80   16.83
   4   8 -10  107.60   17.50
  -4  -8 -10   99.22   21.53
   4  -8 -10   88.77   20.90
  -4  -8 -10  112.54   14.46
   4  -8 -10   94.11   15.98
  -4  -8  10   80.88   17.20
  -4  -8  10   94.29   12.39
  -4   8 -11   53.22   11.75
   4   8 -11   57.85   11.86
  -4  -8 -11   50.67   12.04
   4  -8 -11   55.10   23.71
  -4  -8 -11   61.24   12.77
   4  -8 -11   43.15   10.74
  -4  -8  11   37.72   12.67
  -4  -8  11   57.19   14.32
  -4   8 -12    7.33    4.98
   4   8 -12    3.20    2.32
  -4  -8 -12    8.33    4.02
   4  -8 -12   17.11    4.60
  -4  -8 -12   10.48    5.24
   4  -8 -12    9.34    5.05
  -4  -8  12    1.49    2.26
  -4  -8  12   10.70    5.32
  -4   8 -13   41.58    8.77
   4   8 -13   33.76    7.24
  -4  -8 -13   41.96    8.69
   4  -8 -13   47.27   10.06
  -4  -8 -13   34.44   11.60
   4  -8 -13   38.31   10.59
  -4  -8  13   25.00    6.35
  -4  -8  13   46.50   11.50
  -4   8 -14   79.65   11.16
   4   8 -14   70.73   20.49
  -4  -8 -14   71.04   14.00
   4  -8 -14   85.71   20.45
  -4  -8 -14   66.95   17.34
   4  -8 -14   68.36   18.37
  -4  -8  14   99.12   22.46
  -4   8 -15    2.23    4.12
   4   8 -15   12.93    5.92
  -4  -8 -15    7.48    3.95
   4  -8 -15   17.64    8.66
  -4  -8 -15   11.33    4.89
  -4  -8  15   15.16    5.24
  -4   8 -16   12.91    9.58
   4   8 -16    6.21    3.39
  -4  -8 -16    9.86    4.10
   4  -8 -16    6.59    3.33
  -4  -8 -16    1.27    2.67
  -4  -8  16   10.11    5.66
  -4   8 -17   18.93    5.09
   4   8 -17    7.05    2.81
  -4  -8 -17    7.08    6.48
   4  -8 -17    8.39    6.20
  -4  -8 -17   16.80    6.13
  -4  -8  17   13.35    6.78
  -4   8 -18    6.80    4.69
   4   8 -18    1.25    2.28
  -4  -8 -18    5.97    3.14
   4  -8 -18    2.33    4.67
  -4  -8 -18    5.79    2.46
  -4  -8  18    7.06    4.11
   4   9   0  118.40   23.88
  -4   9   0  103.12   12.88
  -4  -9   0   84.83    6.32
  -4  -9   0  112.94   23.04
   4  -9   0  119.19   24.38
  -4  -9   0   85.78   12.54
   4  -9   0  113.74    7.03
   4   9  -1  231.86   15.24
  -4   9   1  248.59   25.14
  -4   9  -1  257.06   27.84
  -4  -9  -1  208.83   15.69
  -4  -9  -1  205.00   27.76
  -4  -9   1  248.74   19.39
   4  -9  -1  245.65   26.21
   4  -9   1  218.45   25.52
  -4  -9  -1  207.30   16.06
  -4  -9   1  244.25   29.72
   4  -9   1  216.89   13.82
  -4   9   2   16.77    3.89
   4   9  -2   10.10    3.42
  -4   9  -2   10.91    6.53
  -4  -9  -2    8.01    2.33
  -4  -9  -2   17.63    3.18
  -4  -9  -2    9.01    9.11
  -4  -9   2    8.25    5.31
   4  -9  -2    8.36    6.70
   4  -9   2   16.84    3.87
  -4  -9  -2   15.43    4.61
  -4  -9   2   13.82    6.73
   4  -9   2    9.91    3.37
  -4   9   3  243.07   29.86
  -4   9  -3  246.28   20.00
   4   9  -3  263.93   24.70
  -4  -9  -3  228.54   15.30
  -4  -9  -3  243.27   22.38
   4  -9  -3  263.83   25.48
  -4  -9   3  238.39   17.08
   4  -9   3  243.96   23.88
  -4   9   4   37.15   10.46
  -4   9  -4   38.72   11.66
   4   9  -4   39.42    8.88
  -4  -9  -4   44.40    7.21
  -4  -9  -4   32.01    8.01
  -4  -9   4   36.81    6.68
   4  -9  -4   44.81   10.04
  -4  -9   4   38.77   12.48
   4  -9   4   36.98    6.69
  -4   9  -5   32.14   11.54
   4   9  -5   36.40    8.13
  -4  -9  -5   38.40    9.32
   4  -9  -5   35.91    7.94
  -4  -9  -5   48.16   13.53
  -4  -9   5   47.15    9.33
   4  -9  -5   36.61    7.91
  -4  -9   5   38.32    8.70
  -4   9   5   26.11    5.01
   4  -9   5   38.61    8.28
  -4   9  -6  239.18   19.41
   4   9  -6  255.08   16.29
  -4  -9  -6  231.08    8.22
   4  -9  -6  245.33   23.26
  -4  -9  -6  266.00   33.51
  -4  -9   6  243.00   24.54
   4  -9  -6  262.59   22.29
  -4   9   6  206.32    3.99
  -4  -9   6  240.64   25.13
   4  -9   6  245.46   21.13
  -4   9  -7   26.55    5.61
   4   9  -7   20.39    6.69
  -4  -9  -7   32.69    5.19
   4  -9  -7    9.90    4.39
  -4  -9  -7   14.16    5.78
   4  -9  -7   21.02    6.66
  -4  -9   7   14.50    5.78
  -4   9   7   11.35    3.52
  -4  -9   7   19.07    5.70
   4  -9   7   33.33    6.44
  -4   9  -8   46.19   10.73
   4   9  -8   53.10   11.73
   4  -9  -8   38.70   10.71
  -4  -9  -8   42.80    7.89
   4  -9  -8   47.89   15.39
  -4  -9   8   46.28    8.84
   4  -9   8   56.04    9.86
  -4   9  -9   70.43   13.42
   4   9  -9   62.82   20.50
  -4  -9  -9   66.50   13.90
   4  -9  -9   73.90   18.49
  -4  -9  -9   85.58   14.12
   4  -9  -9   60.97   19.37
  -4  -9   9   66.31   13.36
  -4   9 -10   31.24    6.81
   4   9 -10   27.52    8.93
  -4  -9 -10   35.10   11.38
   4  -9 -10   32.83    5.95
  -4  -9 -10   29.30    7.16
   4  -9 -10   37.09   10.43
  -4  -9  10   42.94    9.77
  -4  -9  10   38.06   15.56
  -4   9 -11   57.45   15.50
   4   9 -11   74.89   22.11
  -4  -9 -11   67.48   16.94
   4  -9 -11   80.07   19.94
  -4  -9 -11   79.69   16.92
   4  -9 -11   68.42   24.36
  -4  -9  11   63.90   17.78
  -4  -9  11   89.91   29.53
  -4   9 -12   13.38    6.37
   4   9 -12    4.88    2.75
  -4  -9 -12    3.10    2.76
   4  -9 -12   17.71    8.89
  -4  -9 -12   14.08    4.27
   4  -9 -12    5.58    2.84
  -4  -9  12    9.12    4.28
  -4  -9  12    9.25    5.14
  -4   9 -13   43.50   12.74
   4   9 -13   32.93    9.51
  -4  -9 -13   35.21    8.09
   4  -9 -13   44.30    9.51
  -4  -9 -13   25.38    7.35
   4  -9 -13   37.40    9.65
  -4  -9  13   28.50    8.04
  -4  -9  13   50.33   14.95
  -4   9 -14   10.01    3.61
   4   9 -14    6.77    5.20
  -4  -9 -14    7.29    4.38
   4  -9 -14    6.71    6.00
  -4  -9 -14    4.02    2.67
   4  -9 -14   11.92    4.12
  -4  -9  14    8.78    5.64
  -4   9 -15   31.74    8.91
   4   9 -15   35.13    8.79
  -4  -9 -15   32.94   12.81
   4  -9 -15   48.29   11.63
  -4  -9 -15   55.29    8.45
  -4  -9  15   45.24   10.26
  -4   9 -16    6.06    2.73
   4   9 -16    9.08    3.75
  -4  -9 -16    4.29    2.74
   4  -9 -16   13.38    6.81
  -4  -9 -16   12.32    4.69
  -4  -9  16   11.24    4.49
  -4   9 -17    2.94    2.34
   4   9 -17    3.46    2.68
  -4  -9 -17    4.64    2.19
   4  -9 -17   12.27    7.25
  -4  -9 -17    6.60    3.59
  -4  -9  17    9.29    5.37
   4  10   0   19.64    6.12
  -4  10   0   22.78    7.12
  -4 -10   0   17.43    8.32
   4 -10   0   28.29   12.77
  -4 -10   0   25.47    8.50
   4 -10   0   22.41    5.82
   4  10  -1   39.46    6.63
  -4  10   1   31.50    9.62
  -4  10  -1   39.50    9.08
  -4 -10  -1   34.92    7.96
  -4 -10  -1   41.82    9.91
  -4 -10   1   37.47    8.62
   4 -10  -1   34.29    7.61
   4 -10   1   44.44   12.66
  -4 -10  -1   31.18    8.86
  -4 -10   1   29.89    7.70
   4 -10   1   31.01    9.93
  -4  10   2   15.95    4.04
   4  10  -2   16.25    4.46
  -4  10  -2   22.88    6.86
  -4 -10  -2   15.38    4.73
  -4 -10  -2   10.85    6.76
  -4 -10   2   21.53    6.35
   4 -10  -2   29.63    9.35
   4 -10   2   13.60    6.59
  -4 -10  -2   24.63    6.67
  -4 -10   2   21.62    6.04
   4 -10   2   15.97    4.66
  -4  10   3   96.23   14.46
   4  10  -3  107.06    8.14
  -4  10  -3   96.22   10.72
  -4 -10  -3   95.98   19.49
  -4 -10  -3   99.68   27.86
   4 -10  -3  107.68   19.84
   4 -10   3  104.85   20.65
  -4 -10   3  107.51   19.16
   4 -10   3  118.08    9.48
  -4  10   4   47.34   10.54
  -4  10  -4   44.64    9.03
   4  10  -4   44.62    9.14
  -4 -10  -4   48.80   14.10
  -4 -10  -4   50.10   15.82
  -4 -10   4   43.24   13.71
   4 -10  -4   36.84    7.74
   4 -10   4   61.14   11.23
  -4 -10   4   36.21    6.38
   4 -10   4   50.36    9.17
  -4  10  -5  230.32   21.00
   4  10  -5  209.49   25.23
  -4 -10  -5  204.79   27.89
   4 -10  -5  242.24   38.90
  -4 -10  -5  206.83   22.74
  -4 -10   5  200.05   25.03
   4 -10  -5  187.57   38.98
  -4 -10   5  200.98   21.36
   4 -10   5  210.80   18.59
  -4  10  -6    8.10    3.60
   4  10  -6    3.96    1.93
  -4 -10  -6    7.92    3.59
   4 -10  -6    9.24    5.14
  -4 -10  -6   11.51    5.78
  -4 -10   6   -4.92    5.01
   4 -10  -6   10.05    4.57
  -4 -10   6    8.55    5.02
  -4  10   6    0.52    0.67
   4 -10   6    4.86    3.37
  -4  10  -7  157.72   31.25
   4  10  -7  137.11   11.33
  -4 -10  -7   96.87   14.89
   4 -10  -7  122.71   34.36
  -4 -10  -7  135.92   18.43
   4 -10  -7  132.49   15.90
  -4 -10   7  144.19   27.43
  -4 -10   7  140.77   25.87
   4 -10   7  144.47   15.13
  -4  10  -8   56.07    9.54
   4  10  -8   41.03   11.40
   4 -10  -8   55.63   11.27
  -4 -10  -8   47.83   13.89
   4 -10  -8   54.90   12.05
  -4 -10   8   53.21   16.35
  -4 -10   8   54.03   11.90
   4 -10   8   41.89    9.25
  -4  10  -9   73.28   13.97
   4  10  -9   80.26   22.41
   4 -10  -9  100.11   24.11
  -4 -10  -9   90.85   15.59
   4 -10  -9   74.67   19.71
  -4 -10   9  103.65   24.13
  -4  10 -10    5.84    4.87
   4  10 -10    8.67    2.62
  -4 -10 -10    8.17    2.92
   4 -10 -10   18.58    5.40
  -4 -10 -10   20.95    5.46
   4 -10 -10    6.22    3.35
  -4 -10  10    2.68    3.87
   4 -10  10   17.58    5.53
  -4  10 -11    9.87    5.23
   4  10 -11   15.75    6.69
  -4 -10 -11   11.06    4.64
   4 -10 -11   10.07    4.56
  -4 -10 -11   19.75    5.37
   4 -10 -11   23.69    7.86
  -4 -10  11   19.90    5.45
  -4 -10  11   31.62   10.19
   4 -10  11   12.68    5.76
  -4  10 -12   19.09    5.97
   4  10 -12   25.56    6.34
  -4 -10 -12   14.85    4.62
   4 -10 -12   19.37    7.52
  -4 -10 -12   18.64    6.58
   4 -10 -12   13.72    6.71
  -4 -10  12   16.03    6.04
  -4 -10  12   16.86    5.44
   4 -10  12   20.19    4.85
  -4  10 -13    9.24    4.94
   4  10 -13    0.59    2.94
  -4 -10 -13    9.43    3.37
   4 -10 -13   12.03    7.77
  -4 -10 -13    7.97    3.75
   4 -10 -13    3.17    2.23
  -4 -10  13    0.68    1.78
  -4 -10  13   14.44    4.62
   4 -10  13    9.07    5.24
  -4  10 -14    9.43    3.61
   4  10 -14    6.27    4.37
  -4 -10 -14    5.79    6.21
   4 -10 -14   12.69    4.86
  -4 -10 -14    9.75    4.32
   4 -10 -14    4.62    2.78
  -4 -10  14   14.39    6.61
   4 -10  14    9.16    5.59
  -4  10 -15   11.12    6.43
   4  10 -15   11.09    4.89
  -4 -10 -15    6.44    3.78
   4 -10 -15   13.89    3.85
  -4 -10 -15   22.04    6.16
   4 -10 -15   10.53    3.51
  -4 -10  15   33.02    7.18
   4 -10  15   12.79    5.30
  -4  10 -16    3.15    2.43
   4  10 -16    1.67    2.22
  -4 -10 -16    3.44    1.57
   4 -10 -16   12.46    7.45
  -4 -10 -16   -0.06    3.95
  -4 -10  16    2.91    3.52
   4 -10  16    0.80    5.13
  -4  10 -17   23.91   13.55
   4  10 -17   16.00    9.24
  -4 -10 -17   13.68    7.26
   4 -10 -17   24.71   11.04
  -4 -10 -17   18.52   10.51
  -4 -10  17   26.23   10.11
   4 -10  17   28.63    9.19
   4  11   0   51.08    9.27
  -4  11   0   64.83   10.91
  -4 -11   0   68.02   13.62
   4 -11   0   37.10    9.09
   4 -11   0   55.02    6.70
  -4 -11   0   62.86   12.12
   4  11  -1   28.07    5.97
  -4  11   1   25.43    6.47
  -4  11  -1   35.73    9.09
  -4 -11  -1   29.40    6.67
  -4 -11  -1   20.68    8.79
  -4 -11   1   30.28    8.79
   4 -11  -1   22.19    9.48
   4 -11   1   40.34    7.24
  -4 -11  -1   37.75    7.79
  -4 -11   1   34.41    5.42
   4 -11   1   17.76    6.01
  -4  11   2   66.48   14.94
   4  11  -2   57.16   10.04
  -4  11  -2   63.71   14.00
  -4 -11  -2   60.65   14.33
  -4 -11  -2   86.32   18.27
  -4 -11   2   72.12   12.98
   4 -11  -2   74.49   17.65
   4 -11   2   67.80   15.29
  -4 -11  -2   67.91   11.72
  -4 -11   2   79.10   13.67
   4 -11   2   61.52    8.27
  -4  11   3  181.37   22.83
   4  11  -3  170.75   13.60
  -4  11  -3  162.94   31.47
  -4 -11  -3  165.71   10.36
  -4 -11  -3  195.38   27.37
   4 -11  -3  160.29   28.57
   4 -11   3  149.03   34.77
  -4 -11   3  162.73   13.01
   4 -11   3  171.89   13.60
  -4  11   4  123.53   14.81
  -4  11  -4  125.66    9.43
   4  11  -4  133.28   22.06
  -4 -11  -4  131.29    6.38
  -4 -11  -4  140.60   27.02
  -4 -11   4  114.94   27.40
   4 -11  -4  127.19   23.15
   4 -11   4  138.84   33.28
  -4 -11   4  147.23   29.72
   4 -11   4  151.08   16.16
  -4  11  -5   43.03   11.48
   4  11  -5   38.47    5.98
  -4 -11  -5   37.84    9.09
   4 -11  -5   35.68    7.27
  -4 -11  -5   42.74   12.67
  -4 -11   5   40.60    8.18
   4 -11  -5   42.97   10.02
   4 -11   5   45.39    9.47
  -4 -11   5   47.28    8.82
   4 -11   5   36.72    6.90
  -4  11  -6  306.86   78.12
   4  11  -6  306.14   70.31
  -4 -11  -6  267.59   22.87
   4 -11  -6  266.89   38.57
  -4 -11  -6  292.20   74.02
  -4 -11   6  264.97   39.97
   4 -11  -6  275.90   29.42
   4 -11   6  326.46   91.85
  -4 -11   6  272.64   30.72
   4 -11   6  297.51   73.48
  -4  11  -7   46.90   11.43
   4  11  -7   45.20    7.76
  -4 -11  -7   41.01    9.83
   4 -11  -7   59.68   17.04
  -4 -11  -7   60.38   19.10
   4 -11  -7   40.20    9.33
  -4 -11   7   44.94   11.37
  -4 -11   7   62.49   10.46
   4 -11   7   52.31   10.69
  -4  11  -8   21.87    9.60
   4  11  -8   30.74    6.63
   4 -11  -8   37.06    9.38
  -4 -11  -8   32.81   12.41
   4 -11  -8   26.95   10.33
  -4 -11   8   33.29    9.10
  -4 -11   8   27.28    6.81
   4 -11   8   31.08   12.06
  -4  11  -9  183.74   16.31
   4  11  -9  133.21   23.94
   4 -11  -9  132.31   32.63
  -4 -11  -9  141.19   29.58
   4 -11  -9  169.86   19.95
  -4 -11   9  169.66   27.11
  -4 -11   9  153.73   16.80
   4 -11   9  177.07   26.05
  -4  11 -10   35.69    8.73
   4  11 -10   36.25   10.69
  -4 -11 -10   28.33    7.28
   4 -11 -10   15.92    7.42
  -4 -11 -10   27.54   10.10
   4 -11 -10   23.71    5.58
  -4 -11  10   29.50    6.33
   4 -11  10   30.46    8.85
  -4  11 -11   21.51    8.33
   4  11 -11   16.00    8.37
  -4 -11 -11   22.39    8.23
   4 -11 -11   29.66   10.41
  -4 -11 -11   13.00    5.11
   4 -11 -11   11.96    4.73
  -4 -11  11   26.32    8.23
   4 -11  11   17.89    7.93
  -4  11 -12   16.32    5.38
   4  11 -12   19.89    5.45
  -4 -11 -12   19.55    5.87
   4 -11 -12   29.05    8.51
  -4 -11 -12   13.30    4.38
   4 -11 -12   11.26    4.78
  -4 -11  12   16.69    4.94
  -4 -11  12   19.14    6.29
   4 -11  12   14.53    5.10
  -4  11 -13    9.50    3.65
   4  11 -13    2.16    2.63
  -4 -11 -13   12.22    4.34
   4 -11 -13   10.42    5.35
  -4 -11 -13    8.07    3.47
   4 -11 -13    4.43    2.71
  -4 -11  13    4.79    4.47
   4 -11  13    3.75    4.45
  -4  11 -14    5.59    4.51
   4  11 -14    8.90    4.50
  -4 -11 -14    8.75    5.32
   4 -11 -14   14.48    5.83
  -4 -11 -14   13.59    7.24
   4 -11 -14   13.26    5.32
  -4 -11  14    4.08    4.51
   4 -11  14    5.92    4.44
  -4  11 -15    9.16    5.64
  -4 -11 -15    9.16    3.31
   4 -11 -15   10.37    8.45
  -4 -11 -15    9.36    4.06
  -4 -11  15   24.51    8.19
   4 -11  15   25.50   12.40
  -4  11 -16    4.89    3.76
   4  11 -16    7.56    3.16
  -4 -11 -16   11.43    6.19
   4 -11 -16   18.85    7.42
  -4 -11 -16    8.24    3.70
  -4 -11  16    4.50    4.85
   4 -11  16   10.25    6.60
   4  12   0    3.76    1.39
  -4  12   0    6.75    4.36
  -4 -12   0   14.76    6.01
   4 -12   0    3.01    3.10
   4 -12   0    1.81    0.84
  -4 -12   0    3.96    3.66
   4  12  -1  123.33   18.95
  -4  12   1  122.02   15.65
  -4  12  -1  117.14   19.97
  -4 -12  -1  124.83   15.32
  -4 -12  -1  138.74   22.00
  -4 -12   1  135.00   30.66
   4 -12  -1  136.53   30.02
   4 -12   1  134.50   38.11
  -4 -12  -1  116.30   16.15
  -4 -12   1  131.32   25.35
   4 -12   1  113.43   11.50
  -4  12   2   69.24   10.47
   4  12  -2   60.40   11.64
  -4  12  -2   63.72   15.81
  -4 -12  -2   50.54   13.40
  -4 -12  -2   88.14   22.00
  -4 -12   2   74.35   19.00
   4 -12  -2   75.13   18.40
   4 -12   2   56.30   11.47
  -4 -12  -2   75.33   10.62
  -4 -12   2   65.50   16.03
   4 -12   2   54.26   11.39
  -4  12   3   28.56    6.53
   4  12  -3   31.32    7.33
  -4  12  -3   37.88    7.98
  -4 -12  -3   33.51    9.79
  -4 -12  -3   45.52   10.18
  -4 -12   3   33.80    7.52
   4 -12  -3   39.02   10.31
   4 -12   3   41.30    9.93
  -4 -12   3   42.75   10.16
   4 -12   3   33.71    6.63
  -4  12   4   16.54    7.05
   4  12  -4   24.74    5.16
  -4  12  -4   18.93    6.24
  -4 -12  -4   19.14    5.60
  -4 -12  -4   15.07    5.80
  -4 -12   4   15.92    4.57
   4 -12  -4   19.02    5.93
   4 -12   4   27.48    7.40
  -4 -12   4   10.93    4.98
   4 -12   4   14.17    3.92
  -4  12  -5    6.93    4.18
   4  12  -5    0.93    1.07
  -4 -12  -5    7.80    4.51
   4 -12  -5    5.40    6.05
  -4 -12  -5   11.08    5.98
  -4 -12   5    8.03    5.02
   4 -12  -5   12.70    8.17
   4 -12   5    2.41    3.29
  -4 -12   5    4.57    2.18
   4 -12   5    5.13    3.09
  -4  12  -6    2.72    2.85
   4  12  -6    2.05    2.37
  -4 -12  -6    3.77    2.59
   4 -12  -6   15.28    7.72
  -4 -12  -6    1.17    6.16
  -4 -12   6   10.12    5.71
   4 -12  -6   -1.21    5.08
   4 -12   6    9.44    4.89
  -4 -12   6    1.99    2.51
   4 -12   6    8.68    4.35
  -4  12  -7    4.77    5.30
   4  12  -7    5.92    2.98
  -4 -12  -7    5.41    3.07
   4 -12  -7    7.71    4.89
  -4 -12  -7    8.79    3.43
   4 -12  -7    5.71    2.32
  -4 -12   7    5.75    5.94
   4 -12   7   11.10    5.97
  -4 -12   7   11.38    4.07
   4 -12   7    3.76    1.45
  -4  12  -8    8.08    3.76
   4  12  -8    6.41    3.80
  -4 -12  -8   18.27    3.27
   4 -12  -8    3.30    3.23
  -4 -12  -8   19.91    7.37
   4 -12  -8    7.02    4.94
  -4 -12   8   18.66    7.97
   4 -12   8    5.18    4.95
  -4 -12   8    6.84    3.18
  -4  12  -9   29.60    8.49
   4  12  -9   23.38    7.87
   4 -12  -9   32.24    8.99
  -4 -12  -9   24.34   11.54
   4 -12  -9   23.39   10.16
  -4 -12   9   19.94    4.82
   4 -12   9   35.67   13.57
  -4 -12   9   21.92    6.58
   4 -12   9   35.54    9.29
  -4  12 -10   30.69    8.21
   4  12 -10   25.62   11.89
  -4 -12 -10   21.86    7.56
   4 -12 -10   33.52    7.42
  -4 -12 -10   33.91    8.06
   4 -12 -10   16.73    9.47
  -4 -12  10   17.86    4.03
   4 -12  10   34.92   13.40
  -4 -12  10   16.77    7.36
   4 -12  10   23.41   10.64
  -4  12 -11   51.09   14.68
   4  12 -11   41.11   12.91
  -4 -12 -11   42.52   11.95
   4 -12 -11   59.10   16.39
  -4 -12 -11   52.48   11.89
   4 -12 -11   43.91   14.97
  -4 -12  11   20.85    8.51
  -4 -12  11   57.13   16.42
  -4  12 -12   12.78    5.10
   4  12 -12    6.57    2.05
  -4 -12 -12    3.05    2.09
   4 -12 -12    6.30    4.17
  -4 -12 -12   11.97    4.79
   4 -12 -12   -0.57    3.89
  -4 -12  12   -0.11    2.73
   4 -12  12    6.51    3.79
  -4  12 -13   19.02    9.56
   4  12 -13   22.14   11.61
  -4 -12 -13   23.50   10.86
   4 -12 -13   23.68    6.94
  -4 -12 -13   24.09   12.28
   4 -12 -13   30.10    9.04
  -4 -12  13   53.47   15.85
   4 -12  13   43.29   10.08
  -4  12 -14   11.55    5.55
   4  12 -14   13.04    3.43
  -4 -12 -14    7.60    4.38
   4 -12 -14   17.37    6.12
  -4 -12 -14    7.32    5.42
  -4 -12  14    7.99    3.94
   4 -12  14   15.99    7.62
  -4  12 -15   14.09    6.14
   4  12 -15    6.27    4.35
  -4 -12 -15   18.47    5.50
   4 -12 -15   25.21   10.75
  -4 -12 -15    9.85    4.30
  -4 -12  15   25.86    8.63
   4 -12  15   11.40    9.40
   4  13   0  176.36   19.96
  -4  13   0  187.34   26.98
  -4 -13   0  200.24   41.44
   4 -13   0  157.86   38.63
  -4 -13   0  194.12   14.16
   4  13  -1    7.59    2.52
  -4  13   1    4.15    2.22
  -4  13  -1   -0.10    3.72
  -4 -13  -1    5.24    2.50
  -4 -13  -1   12.88    4.99
  -4 -13   1    1.45    4.46
   4 -13  -1   17.08    6.83
   4 -13   1   13.04    6.58
  -4 -13  -1    1.00    1.89
  -4 -13   1    4.01    2.86
   4 -13   1    2.65    1.57
  -4  13   2    8.38    4.01
   4  13  -2    7.30    3.70
  -4  13  -2   15.60    4.75
  -4 -13  -2   10.20    4.00
  -4 -13  -2   13.50    6.21
  -4 -13   2   14.02    9.49
   4 -13  -2    9.84    5.32
   4 -13   2   11.21    5.50
  -4 -13  -2   13.60    4.55
  -4 -13   2   13.85    5.56
   4 -13   2   10.07    4.36
  -4  13   3   11.66    4.01
   4  13  -3    3.43    2.64
  -4  13  -3    7.49    3.05
  -4 -13  -3    5.23    3.09
  -4 -13  -3    4.96    3.72
  -4 -13   3    8.91    5.18
   4 -13  -3   13.77    6.33
   4 -13   3   14.48    7.42
  -4 -13   3   12.53    6.03
   4 -13   3    4.44    2.24
  -4  13   4   54.65   13.12
   4  13  -4   65.12    7.93
  -4  13  -4   58.28   15.57
  -4 -13  -4   51.58   17.22
  -4 -13  -4   74.26   15.24
  -4 -13   4   68.57   16.05
   4 -13  -4   71.60   15.91
   4 -13   4   83.90   15.08
  -4 -13   4   71.81   21.15
   4 -13   4   55.63   12.79
   4  13  -5    6.08    3.53
  -4  13  -5    6.02    4.12
  -4 -13  -5    3.97    2.30
   4 -13  -5    7.34    4.24
  -4 -13  -5    9.33    4.31
  -4 -13   5   12.58    9.09
   4 -13  -5   11.19    6.07
   4 -13   5   14.14   11.69
  -4 -13   5    3.19    3.40
   4 -13   5    3.47    2.01
  -4  13  -6   13.62    5.46
   4  13  -6    6.38    2.27
  -4 -13  -6    7.96    2.78
   4 -13  -6    9.36    3.81
  -4 -13  -6    4.59    6.47
  -4 -13   6   21.73   10.39
   4 -13  -6    7.45    3.85
   4 -13   6   12.75    6.30
  -4 -13   6   10.01    7.55
   4 -13   6    7.76    3.93
  -4  13  -7   43.29   12.27
   4  13  -7   22.07    9.34
  -4 -13  -7   32.75    6.32
   4 -13  -7   39.28    9.66
  -4 -13  -7   36.60   10.55
   4 -13  -7   39.71    9.52
  -4 -13   7   38.48   12.75
   4 -13   7   28.55    9.78
  -4 -13   7   27.37   10.62
   4 -13   7   25.56    9.75
  -4  13  -8   16.87    6.69
   4  13  -8   15.85    6.82
  -4 -13  -8   24.31    5.25
   4 -13  -8   16.08    6.50
  -4 -13  -8   18.14    4.87
   4 -13  -8   24.19    5.74
  -4 -13   8   22.94    6.52
   4 -13   8   22.18   10.28
  -4 -13   8   18.10    6.43
   4 -13   8   24.25    7.17
  -4  13  -9   20.71    5.92
   4  13  -9   23.89   11.60
   4 -13  -9   42.39   14.48
  -4 -13  -9   40.96    9.64
   4 -13  -9   30.67   12.72
  -4 -13   9   21.59    6.61
   4 -13   9   35.34   12.27
  -4 -13   9   28.60    7.70
   4 -13   9   20.70    8.36
  -4  13 -10    5.63    3.50
   4  13 -10    3.83    2.66
   4 -13 -10    6.99    3.82
  -4 -13 -10   16.63    5.98
   4 -13 -10    9.13    7.40
  -4 -13  10   -0.50    3.46
   4 -13  10    7.60    5.31
  -4 -13  10    3.01    2.92
   4 -13  10    4.33    3.38
  -4  13 -11   12.84    5.32
   4  13 -11    5.56    2.60
  -4 -13 -11    9.83    4.03
   4 -13 -11    6.12    4.67
  -4 -13 -11    6.42    3.41
   4 -13 -11    8.37    5.91
  -4 -13  11    3.46    5.15
   4 -13  11    3.14    4.65
  -4 -13  11    5.02    3.03
   4 -13  11    8.03    5.03
  -4  13 -12   45.89   12.04
   4  13 -12   49.25   18.59
  -4 -13 -12   46.25   14.76
   4 -13 -12   75.05   15.10
  -4 -13 -12   64.81   17.54
   4 -13 -12   65.19   18.19
   4 -13  12   75.34   28.94
  -4 -13  12   53.70   19.09
   4 -13  12   58.16   25.65
  -4  13 -13    5.23    3.67
   4  13 -13    4.49    3.16
  -4 -13 -13   10.23    3.82
   4 -13 -13    5.46    2.81
  -4 -13 -13    5.35    2.78
   4 -13 -13    6.65    3.49
   4 -13  13   10.14    7.38
  -4 -13  13   -0.56    4.49
   4 -13  13    6.87    4.20
   4  13 -14    1.75    3.16
  -4 -13 -14    4.76    5.37
   4 -13 -14   16.72    7.68
  -4 -13 -14    4.41    5.10
   4 -13 -14    8.87    6.30
   4 -13  14   -1.17    7.34
  -4 -13  14    0.96    2.93
   4 -13  14    3.90    4.93
   4  14   0    8.24    2.19
  -4  14   0   10.17    4.65
  -4 -14   0   29.42   10.57
   4 -14   0   17.18    6.29
  -4 -14   0    7.42    2.73
   4  14  -1    9.94    2.70
  -4  14   1   16.42    5.04
  -4  14  -1   11.64    5.31
  -4 -14  -1   12.33    5.89
  -4 -14  -1   16.67   10.17
  -4 -14   1   11.84    5.71
   4 -14  -1   24.97    9.38
   4 -14   1   13.94    7.19
  -4 -14  -1   23.38    4.73
  -4 -14   1   18.59    5.79
  -4  14   2    3.93    4.51
   4  14  -2    1.28    1.35
  -4  14  -2    8.75    4.08
  -4 -14  -2    1.69    0.78
  -4 -14  -2   11.33    4.98
  -4 -14   2   10.36    5.40
   4 -14  -2   11.02    5.47
   4 -14   2   11.11    7.43
  -4 -14  -2   -2.28    2.64
  -4 -14   2   13.07    6.33
  -4  14   3   23.43    5.87
   4  14  -3   15.97    4.89
  -4  14  -3   19.89    8.34
  -4 -14  -3   16.21    5.89
  -4 -14  -3    5.56    4.97
  -4 -14   3   11.31    4.84
   4 -14  -3    9.11   10.29
   4 -14   3   28.06    7.81
  -4 -14   3   23.14    5.28
  -4  14   4   42.04    9.29
   4  14  -4   30.49    6.13
  -4  14  -4   27.82    7.72
  -4 -14  -4   36.79    9.21
  -4 -14  -4   31.34    9.75
  -4 -14   4   39.43    8.70
   4 -14  -4   38.78   11.89
   4 -14   4   47.62   12.64
  -4 -14   4   34.82    7.57
   4 -14   4   23.79    5.63
   4  14  -5   14.57    5.04
  -4  14  -5   15.65    5.83
  -4 -14  -5    8.33    2.64
   4 -14  -5   14.59    4.77
  -4 -14  -5   29.28    8.10
  -4 -14   5   10.32    5.31
   4 -14  -5   18.11   10.12
   4 -14   5    6.56    7.77
  -4 -14   5   24.11    6.38
   4 -14   5    9.33    3.09
   4  14  -6   -0.50    2.23
  -4  14  -6   -0.72    2.93
  -4 -14  -6    8.77    3.41
   4 -14  -6    4.78    3.65
  -4 -14  -6    7.01    5.74
  -4 -14   6    4.76    5.31
   4 -14  -6   21.86    5.98
   4 -14   6    0.64    4.43
  -4 -14   6    5.86    3.83
   4 -14   6    4.72    3.31
  -4  14  -7   11.64    5.35
   4  14  -7   15.32    6.34
  -4 -14  -7   10.22    4.87
   4 -14  -7   16.74    6.44
  -4 -14  -7   21.49    8.43
   4 -14  -7   13.67    4.46
  -4 -14   7   15.51    6.48
   4 -14   7    9.47    5.70
  -4 -14   7    6.69    4.96
   4 -14   7   14.99    5.40
  -4  14  -8   36.25   10.63
   4  14  -8   24.30    9.00
  -4 -14  -8   36.43    7.55
   4 -14  -8   42.43   11.98
  -4 -14  -8   42.68   13.34
   4 -14  -8   49.97   10.99
  -4 -14   8   32.84   13.74
   4 -14   8   46.66   15.68
  -4 -14   8   23.41   13.26
   4 -14   8   23.25    9.17
  -4  14  -9   19.45    5.83
   4  14  -9   22.88    5.83
  -4 -14  -9   23.14    7.93
   4 -14  -9   15.04    4.03
  -4 -14  -9   22.05   12.26
   4 -14  -9   23.83    7.82
  -4 -14   9    8.72    4.46
   4 -14   9   12.63    5.10
  -4 -14   9   21.08    7.26
   4 -14   9   23.99    6.07
  -4  14 -10    5.01    3.40
   4  14 -10    3.93    2.50
   4 -14 -10    1.55    5.46
  -4 -14 -10    4.72    5.23
   4 -14 -10    4.80    3.83
  -4 -14  10    5.02    3.70
   4 -14  10    2.94    8.75
  -4 -14  10    3.44    3.82
   4 -14  10    3.07    2.20
  -4  14 -11   -1.46    2.36
   4  14 -11    0.06    2.86
  -4 -14 -11    7.71    3.23
   4 -14 -11    6.36    3.92
  -4 -14 -11    1.43    3.49
   4 -14 -11    9.76    4.48
  -4 -14  11   15.32    7.12
   4 -14  11    5.60    8.00
  -4 -14  11    2.77    2.58
   4 -14  11    1.74    3.55
  -4  14 -12   23.44    6.53
   4  14 -12    5.39    2.02
   4 -14 -12   10.02    3.12
  -4 -14 -12   17.56    6.80
   4 -14 -12   12.93    8.37
   4 -14  12   15.01    6.60
  -4 -14  12   10.74    5.95
   4 -14  12   11.81    5.23
  -4  14 -13    5.09    5.08
   4  14 -13    6.49    3.95
   4 -14 -13   -0.42    5.40
  -4 -14 -13    9.62    3.37
   4 -14 -13   12.23    5.28
   4 -14  13   15.74    6.89
  -4 -14  13    2.83    2.32
   4 -14  13    9.39    4.60
  -4  15   0    3.85    3.89
  -4 -15   0   17.86    6.71
   4 -15   0   10.66    6.26
  -4 -15   0    6.61    4.25
  -4  15   1   27.24    6.96
  -4  15  -1   36.50    9.16
  -4 -15  -1   46.07   10.23
  -4 -15   1   26.96   17.43
   4 -15  -1   30.52    9.43
   4 -15   1   29.24   12.30
  -4 -15  -1   27.03    6.93
  -4 -15   1   34.50    8.64
  -4  15   2    9.26    3.81
  -4  15  -2   14.50    6.14
  -4 -15  -2    0.68    1.97
  -4 -15  -2   20.98    7.75
  -4 -15   2   12.97    6.17
   4 -15  -2   12.29    6.35
   4 -15   2   11.52    4.75
  -4 -15   2   18.08    7.87
  -4  15   3   17.55    8.47
  -4  15  -3    2.90    2.28
  -4 -15  -3   13.31    6.60
  -4 -15   3   12.67    5.58
   4 -15  -3   19.36    6.29
   4 -15   3   17.62    9.97
  -4 -15   3    4.24    4.46
  -4  15   4    7.11    5.74
  -4  15  -4    6.45    2.91
  -4 -15  -4    8.85    7.64
  -4 -15   4    6.96    3.36
   4 -15  -4    6.99    4.71
   4 -15   4    6.35    5.60
  -4 -15   4    2.17    3.18
  -4  15  -5   18.75    7.95
   4 -15  -5   21.69    6.59
  -4 -15  -5   18.34    7.09
  -4 -15   5   21.36    6.59
   4 -15  -5   22.24    7.60
   4 -15   5    9.24    5.43
  -4 -15   5    9.15    4.41
  -4  15  -6  100.65   19.13
   4 -15  -6   76.30   21.20
  -4 -15  -6   76.77   29.60
  -4 -15   6   63.12   18.35
   4 -15  -6   65.51   24.68
   4 -15   6   64.55   25.89
  -4 -15   6   85.73   25.06
  -4  15  -7    7.43    3.18
   4 -15  -7    8.00    3.42
  -4 -15  -7    3.08    6.15
  -4 -15   7    8.97    6.71
   4 -15  -7    7.56    5.52
   4 -15   7   10.45    6.88
  -4 -15   7    3.83    3.00
   4 -15   7    6.46    2.44
  -4  15  -8    6.24    4.62
   4 -15  -8    7.34    3.25
  -4 -15  -8    7.86    4.73
   4 -15  -8   10.98    4.83
  -4 -15   8   -0.98    3.49
   4 -15   8   -0.15    6.72
  -4 -15   8    1.40    1.66
   4 -15   8    8.21    3.11
  -4  15  -9    0.48    2.62
   4 -15  -9   17.44    6.09
  -4 -15  -9   11.58    4.64
   4 -15  -9   -4.24    4.01
  -4 -15   9    6.43    3.99
   4 -15   9   13.33    8.54
  -4 -15   9    5.84    3.02
   4 -15   9    2.20    2.41
  -4  15 -10   22.15    6.17
   4 -15 -10    8.65    3.53
  -4 -15 -10   16.88    9.25
   4 -15 -10   11.05    7.23
  -4 -15  10   12.57    4.09
   4 -15  10    8.23    6.20
  -4 -15  10   20.94    8.59
   4 -15  10    9.77    4.78
  -4  15 -11   11.07    5.64
   4 -15 -11   12.97    8.61
  -4 -15 -11    5.62    4.65
   4 -15 -11    2.42    2.49
  -4 -15  11    0.86    3.74
   4 -15  11    9.92    5.68
  -4 -15  11    4.24    4.48
   4 -15  11   11.64    4.20
  -4  16   0   21.49    6.07
  -4 -16   0   11.19    6.22
   4 -16   0   12.18    9.47
  -4 -16   0   12.76    6.63
  -4  16   1    5.52    4.48
  -4  16  -1    8.34    4.71
  -4 -16  -1   13.44    7.83
  -4 -16   1   17.72    6.86
   4 -16  -1   11.46    4.87
   4 -16   1   22.21    9.97
  -4 -16  -1    1.03    2.88
  -4 -16   1   10.22    4.40
  -4  16   2   62.25   19.28
  -4  16  -2   38.23   13.10
  -4 -16  -2   51.28   18.48
  -4 -16   2   84.18   16.57
   4 -16  -2   53.91   26.12
   4 -16   2   54.15   12.82
  -4 -16   2   51.86   17.62
  -4  16   3    5.06    3.06
  -4  16  -3    0.71    4.06
  -4 -16  -3    7.46    7.62
  -4 -16   3   12.49    7.19
   4 -16  -3   16.65    5.90
   4 -16   3    8.44    4.66
  -4 -16   3   18.40    8.62
  -4  16  -4   -0.14    3.47
   4 -16  -4    5.27    3.31
  -4 -16  -4    7.03    6.77
  -4 -16   4    5.19    6.04
   4 -16  -4   10.94    4.68
   4 -16   4    0.00    5.96
  -4 -16   4    3.39    2.18
  -4  16  -5    5.73    1.75
   4 -16  -5    7.70    4.74
  -4 -16  -5   16.03    4.85
  -4 -16   5    7.52    3.40
   4 -16  -5    3.69    5.02
   4 -16   5   24.65    7.57
  -4 -16   5    7.42    3.25
  -4  16  -6   -1.47    3.50
   4 -16  -6    3.25    2.95
  -4 -16  -6   -0.04    5.02
  -4 -16   6    8.78    3.44
   4 -16  -6    3.18    3.78
   4 -16   6    0.86    5.13
  -4 -16   6    3.28    1.89
  -4  16  -7    2.70    3.13
   4 -16  -7    8.25    3.67
  -4 -16  -7   12.63    4.05
  -4 -16   7    2.15    4.80
   4 -16   7    7.24    4.37
  -4 -16   7    4.06    2.47
  -4  16  -8    7.20    4.14
   4 -16  -8   12.73    4.60
  -4 -16  -8    8.63    5.26
   4 -16  -8    9.05    4.81
  -4 -16   8    4.89    2.52
   4 -16   8   12.75    7.93
  -4 -16   8    7.30    3.63
  -4  16  -9    3.65    2.97
   4 -16  -9    0.62    2.53
  -4 -16  -9   18.96    6.32
   4 -16  -9    2.99    4.11
  -4 -16   9    7.71    6.72
   4 -16   9    5.15    6.06
  -4 -16   9    7.35    2.72
  -4  17   0   21.67    8.58
  -4 -17   0    9.02    3.09
   4 -17   0   10.60    7.50
  -4 -17   0   16.33    4.09
  -4  17   1   19.22    7.17
  -4  17  -1   17.25    4.16
  -4 -17  -1   11.88    5.74
  -4 -17   1   18.68    7.61
   4 -17  -1   12.02    6.03
   4 -17   1    5.68    4.41
  -4 -17   1   13.28    4.64
  -4  17   2    4.08    2.98
  -4  17  -2   11.26    6.48
  -4 -17  -2   20.75    7.82
  -4 -17   2   10.91    7.23
   4 -17  -2   13.32    5.93
   4 -17   2   14.58    7.56
  -4 -17   2    7.70    3.62
  -4  17   3   14.05    6.11
  -4  17  -3    7.25    4.19
  -4 -17  -3   18.83   10.26
  -4 -17   3   18.91    7.15
   4 -17  -3    6.80    6.98
   4 -17   3   27.78    8.45
  -4 -17   3   11.04    4.48
  -4  17  -4   11.31    5.34
   4 -17  -4   10.06    4.29
  -4 -17  -4    8.01    4.05
  -4 -17   4    7.59    4.01
   4 -17  -4   14.25    7.82
   4 -17   4   12.61    7.17
  -4 -17   4   11.34    4.90
  -4  17  -5   11.79    5.46
   4 -17  -5   18.22    8.68
  -4 -17  -5   19.25    6.69
  -4 -17   5   31.27   12.51
   4 -17  -5   25.39    7.98
   4 -17   5   29.12   11.26
  -4 -17   5   11.46    4.97
  -4  17  -6    8.55    4.74
   4 -17  -6   13.42    6.65
  -4 -17  -6   25.81   11.08
  -4 -17   6   19.23    6.10
   4 -17  -6   16.07    7.24
   4 -17   6   11.18    7.35
  -4 -17   6   12.27    7.39
  -4  17  -7    3.89    4.12
   4 -17  -7    4.28    4.12
  -4 -17  -7    5.17    4.28
  -4 -17   7    3.47    5.26
   4 -17  -7    8.59    3.61
   4 -17   7    6.44    6.77
  -4 -17   7    7.82    3.84
  -4  18   0    4.56    2.91
  -4 -18   0   10.06    5.01
   4 -18   0   11.97    9.74
  -4 -18   0   -2.28    2.78
  -4  18   1    2.87    6.15
  -4  18  -1   -0.49    3.93
  -4 -18  -1   14.09    5.74
  -4 -18   1    1.45    3.52
   4 -18  -1    8.20    6.61
   4 -18   1   11.14    6.38
  -4 -18   1    7.11    3.89
  -4  18   2   10.99    5.62
  -4  18  -2    4.02    4.17
  -4 -18  -2   11.21   11.02
  -4 -18   2    8.53    4.03
   4 -18  -2    3.51    6.36
   4 -18   2   12.36    5.21
  -4 -18   2    2.44    1.75
   5   0   0    3.41    0.97
  -5   0   0    4.37    2.33
   5   0   0    2.46    1.94
  -5   0   0   -0.68    1.69
   5   0   0    1.80    1.39
   5   0  -1   26.17    6.03
   5   0   1   28.91    4.76
  -5   0  -1   42.81    9.55
   5   0  -1   27.60    6.49
   5   0   1   25.44    6.30
  -5   0   1   36.25    7.67
   5   0  -1   25.68    7.93
   5   0  -2   10.81    2.95
   5   0   2    6.94    1.79
   5   0  -2   10.17    2.97
  -5   0   2   10.75    2.35
  -5   0  -2   15.83    3.25
   5   0  -2   10.69    2.97
  -5   0   2   17.25    3.29
   5   0  -2    9.04    1.85
   5   0  -3   20.82    4.14
   5   0   3   15.90    3.27
   5   0  -3   25.59    4.76
  -5   0   3   22.54    5.43
  -5   0  -3   27.59    6.89
   5   0  -3   23.13    3.40
  -5   0   3   32.40    6.28
   5   0  -3   17.90    3.70
  -5   0  -4   54.06   12.09
   5   0  -4   51.36   10.27
  -5   0  -4   53.00    9.97
   5   0  -4   45.16    6.34
  -5   0   4   59.02   11.59
  -5   0  -5  406.35   19.48
   5   0  -5  426.58   20.86
  -5   0  -5  384.65   20.50
   5   0  -5  421.23   18.68
  -5   0   5  415.10   19.76
  -5   0  -6   42.34    9.40
   5   0  -6   28.44    5.85
  -5   0  -6   28.80    6.91
  -5   0   6   38.58    6.87
  -5   0  -7  481.85   24.37
   5   0  -7  527.46   26.63
  -5   0  -7  489.70   24.77
  -5   0   7  508.13   25.36
  -5   0  -8  312.50   20.90
   5   0  -8  283.49   21.62
  -5   0  -8  291.57   19.47
  -5   0   8  297.83   20.45
  -5   0  -9  235.24   16.83
   5   0  -9  278.86   31.38
  -5   0  -9  258.58   22.98
  -5   0   9  227.79   22.40
  -5   0 -10  166.84   31.07
   5   0 -10  157.97   18.21
  -5   0 -10  136.47   25.72
  -5   0 -11   33.50    6.51
   5   0 -11   32.84   10.22
  -5   0 -11   21.68    5.17
  -5   0  11   26.80    7.52
  -5   0 -12    7.75    6.09
   5   0 -12    7.28    3.05
  -5   0 -12    9.41    4.32
  -5   0  12   10.02    4.27
  -5   0 -13    7.44    3.82
   5   0 -13    6.06    5.95
  -5   0 -13    4.09    2.52
  -5   0  13    6.35    4.02
  -5   0 -14    6.49    5.62
   5   0 -14   -3.74    5.29
  -5   0 -14   10.89    4.02
  -5   0  14   17.11    4.63
  -5   0 -15   16.47    5.26
   5   0 -15    6.06    4.22
  -5   0 -15    7.92    4.27
  -5   0  15    5.69    2.60
  -5   0 -16   19.32    4.59
   5   0 -16   19.38    8.06
  -5   0 -16   21.44    4.29
  -5   0  16   13.38    6.62
  -5   0 -17   48.60   15.37
   5   0 -17   60.93    8.95
  -5   0 -17   52.36   14.49
  -5   0  17   46.20   12.98
  -5   0 -18   -0.83    4.39
   5   0 -18   14.54    5.71
  -5   0 -18    7.44    3.03
  -5   0  18    4.71    3.52
  -5   0 -19   12.73    6.12
   5   0 -19    8.96    5.41
  -5   0 -19    9.83    4.61
  -5   0  19   21.29    5.91
  -5   0 -20   12.00    5.13
   5   0 -20   14.55    8.04
  -5   0 -20    7.47    2.41
  -5   0  20    8.27    3.66
  -5  -1   0  430.20   10.42
  -5   1   0  435.52   12.46
   5  -1   0  428.60   11.09
   5   1   0  420.35    9.99
  -5   1   0  427.22   11.25
  -5  -1   0  433.92   12.25
   5   1   0  431.36   11.39
  -5  -1   0  432.08   14.34
   5  -1   0  420.25   12.22
  -5  -1   1  145.22    9.88
  -5   1   1  127.29    9.09
   5   1  -1  119.11    8.12
   5  -1  -1  137.78   11.55
  -5   1  -1  131.80   11.20
  -5  -1  -1  117.82    8.12
   5  -1   1  113.88    8.17
   5   1   1  122.56   10.42
  -5   1   1  106.37    7.71
  -5   1  -1  128.19   11.02
   5  -1  -1  133.24    9.31
  -5  -1  -1  115.78    9.19
   5   1  -1  118.63   11.28
   5  -1   1  112.09    9.43
  -5  -1   1  134.92   12.01
   5  -1  -1  137.63   11.51
  -5   1  -2  328.83   15.68
   5   1   2  310.79   14.37
   5  -1  -2  325.12   15.28
  -5  -1   2  330.62   15.26
  -5  -1   2  325.71   15.82
   5  -1  -2  307.80   14.39
   5   1  -3  196.84   13.21
  -5   1  -3  221.71   15.30
   5   1   3  200.63   13.48
   5   1  -3  221.66   15.98
   5  -1  -3  228.96   18.18
  -5   1  -3  208.62   15.60
   5  -1  -3  220.77   14.74
  -5  -1   3  215.45   14.16
  -5  -1  -3  217.39   15.05
   5   1  -3  212.37   13.94
  -5  -1   3  204.74   14.24
   5  -1  -3  197.66   13.30
  -5   1  -4  596.87   27.53
   5   1   4  549.78   25.05
   5   1  -4  548.84   25.31
   5  -1  -4  631.87   29.36
  -5   1  -4  498.84   23.49
  -5  -1   4  609.80   26.91
   5  -1  -4  625.85   27.92
  -5  -1  -4  522.83   24.50
   5   1  -4  563.65   24.92
  -5  -1   4  612.15   28.24
   5  -1  -4  522.14   23.78
  -5   1  -5  199.03   14.26
  -5  -1  -5  199.77   13.93
   5   1  -5  220.70   15.61
   5  -1  -5  214.74   15.58
  -5  -1   5  201.17   12.97
  -5   1  -5  213.87   23.87
   5  -1  -5  203.81   13.28
  -5  -1  -5  231.70   24.60
   5   1  -5  195.99   12.68
  -5  -1   5  194.03   13.97
  -5   1  -6  134.34    9.84
  -5  -1  -6  145.77   21.71
   5   1  -6  145.91   18.24
   5  -1  -6  158.68   21.69
  -5   1  -6  129.63   11.26
   5  -1  -6  134.48    7.96
  -5  -1  -6  128.90   21.46
   5  -1  -6  133.42    7.86
  -5  -1   6  149.83   10.48
  -5   1   6  129.64    8.94
  -5   1  -7   85.54   13.37
  -5  -1  -7   70.54   15.77
   5   1  -7   76.11   12.94
   5  -1  -7   86.11   17.23
  -5   1  -7   70.59   15.44
  -5  -1  -7   62.20   14.17
  -5  -1   7  108.32   20.60
  -5   1   7   75.99   18.34
  -5   1  -8  626.00   38.84
  -5  -1  -8  666.93   27.19
   5   1  -8  657.13   35.37
   5  -1  -8  666.70   30.78
  -5   1  -8  632.40   41.95
  -5  -1  -8  640.54   39.19
  -5  -1   8  675.91   27.61
  -5   1   8  689.77   29.01
  -5   1  -9   11.15    5.59
  -5  -1  -9    7.00    4.78
   5   1  -9    9.88    3.45
   5  -1  -9   10.84    5.12
  -5   1  -9    5.28    3.20
  -5  -1  -9   13.51    3.88
  -5  -1   9    6.12    4.74
  -5   1   9    7.11    3.07
  -5   1 -10  102.18   16.94
  -5  -1 -10  106.34   21.85
   5   1 -10   95.39   13.60
   5  -1 -10   91.83   21.11
  -5   1 -10   98.07   18.98
  -5  -1 -10   95.57   14.18
  -5  -1  10   97.43   17.09
  -5   1  10  114.52   23.65
  -5   1 -11   61.59   10.49
  -5  -1 -11   59.52   14.50
   5   1 -11   47.57   13.23
   5  -1 -11   67.85   13.93
  -5   1 -11   68.08   15.18
  -5  -1 -11   52.07    8.70
  -5  -1  11   81.65   12.79
  -5   1  11   58.07   11.94
  -5   1 -12  146.44   28.37
  -5  -1 -12  145.51   24.13
   5   1 -12  148.42   19.41
   5  -1 -12  179.74   22.32
  -5   1 -12  150.16   14.46
  -5  -1 -12  143.73   16.69
  -5  -1  12  165.30   25.87
  -5   1  12  131.18   28.76
  -5   1 -13  129.13   19.08
  -5  -1 -13  139.60   19.82
   5   1 -13  124.18   15.00
   5  -1 -13  138.14   23.50
  -5   1 -13  114.79   20.61
  -5  -1 -13  143.80   14.96
  -5   1  13  127.64   26.76
  -5   1 -14   51.16   10.91
  -5  -1 -14   42.11   10.25
   5   1 -14   54.58   12.01
   5  -1 -14   46.42    9.93
  -5   1 -14   48.40    7.40
  -5  -1 -14   37.19    5.93
  -5  -1  14   42.28   11.93
  -5   1  14   34.55    5.57
  -5   1 -15   20.48    7.24
   5   1 -15   21.91    5.47
   5  -1 -15   39.77   10.62
  -5   1 -15   23.42    4.97
  -5  -1 -15   35.91    7.41
  -5  -1  15   34.64   11.04
  -5   1  15   24.86    9.09
  -5   1 -16   35.22    7.60
  -5  -1 -16   51.41   14.54
   5   1 -16   55.02    9.25
   5  -1 -16   47.92   13.32
  -5   1 -16   53.15   11.27
  -5  -1 -16   41.53   10.22
  -5  -1  16   42.46   10.17
  -5   1  16   41.85   11.51
  -5   1 -17   14.98    5.67
  -5  -1 -17    9.36    5.16
   5   1 -17   10.44    5.00
   5  -1 -17    7.69    4.54
  -5   1 -17    5.68    3.11
  -5  -1 -17    8.58    5.64
  -5  -1  17    7.69    4.11
  -5   1  17    6.24    2.69
  -5   1 -18   14.80   10.41
  -5  -1 -18    8.39    3.97
   5   1 -18   21.70    6.31
   5  -1 -18   20.50    7.97
  -5   1 -18    9.27    3.52
  -5  -1 -18   14.29    7.65
  -5  -1  18   14.10    7.34
  -5   1  18   11.24    5.56
  -5   1 -19   14.46    6.69
  -5  -1 -19   17.45    6.68
   5   1 -19   16.42   10.07
   5  -1 -19    1.46    4.27
  -5   1 -19    3.90    3.14
  -5  -1 -19    7.28    2.91
  -5  -1  19    9.55    4.65
  -5   1  19    5.21    3.14
  -5   1 -20    7.95    3.04
  -5  -1 -20   18.24    5.87
   5   1 -20   14.56    6.90
   5  -1 -20   11.55    5.57
  -5   1 -20   12.92    4.30
  -5  -1 -20    8.43    4.15
  -5  -1  20   11.10    6.62
  -5   1  20    8.54    4.05
  -5  -2   0   99.60    8.25
  -5   2   0   96.07    8.64
   5   2   0   91.03    7.58
  -5  -2   0   92.71    8.96
  -5  -2   0  104.42    7.85
   5  -2   0   90.41    7.90
  -5   2   1  406.91   19.24
   5   2  -1  368.03   16.46
  -5  -2  -1  369.51   16.73
  -5   2  -1  373.39   17.83
   5   2   1  343.70   15.40
  -5   2  -1  342.00   16.41
   5  -2  -1  352.45   16.49
  -5  -2  -1  350.95   16.73
   5   2  -1  377.62   17.57
  -5   2   1  359.89   16.42
   5  -2   1  331.17   15.24
  -5  -2  -1  384.52   18.32
  -5  -2   1  356.06   19.00
   5  -2  -1  371.62   16.91
  -5   2   2  336.90   16.33
   5   2  -2  326.86   14.86
  -5   2  -2  340.58   16.53
  -5  -2  -2  326.56   15.17
   5   2   2  332.72   15.12
   5   2  -2  332.87   15.25
  -5   2  -2  316.89   15.44
   5  -2  -2  312.96   14.65
  -5  -2  -2  331.91   16.39
   5   2  -2  333.88   15.59
  -5   2   2  329.88   15.13
  -5  -2   2  307.37   15.17
   5  -2  -2  330.37   15.09
  -5   2   3   24.01    5.02
  -5   2  -3   21.71    3.52
  -5  -2  -3   25.92    4.59
   5   2   3   12.42    3.45
   5   2  -3   27.42    6.55
  -5  -2   3   12.71    2.55
  -5   2  -3   20.90    4.43
   5  -2  -3   14.70    2.06
  -5  -2  -3   30.79    5.79
  -5  -2   3   17.65    3.74
   5   2  -3   19.83    3.12
  -5   2   3   30.48    5.40
  -5  -2   3   19.12    3.85
   5  -2  -3   12.66    2.68
  -5   2  -4  330.74   18.04
  -5  -2  -4  341.98   16.74
   5   2   4  335.20   15.86
   5   2  -4  307.51   15.97
  -5  -2   4  289.44   24.58
   5  -2  -4  327.69   18.54
   5  -2  -4  316.18   14.63
  -5   2  -4  341.73   16.86
  -5  -2  -4  337.39   16.63
  -5  -2   4  317.60   14.63
   5   2  -4  317.04   14.52
  -5  -2   4  325.71   16.16
  -5   2   4  345.21   16.56
  -5   2  -5  339.86   16.98
   5   2  -5  315.83   16.37
   5  -2  -5  344.83   18.14
   5  -2  -5  315.78   14.48
  -5   2  -5  321.05   16.74
  -5  -2  -5  343.65   17.25
  -5  -2   5  338.86   15.17
   5   2  -5  331.81   15.04
   5  -2  -5  331.60   15.90
  -5  -2   5  359.06   17.80
  -5   2   5  338.15   17.36
  -5   2  -6   14.46    4.65
  -5  -2  -6   13.26    3.63
   5   2  -6   14.25    3.70
   5  -2  -6    9.67    4.20
   5  -2  -6   12.79    2.76
  -5   2  -6   18.05    4.50
  -5  -2   6   13.09    2.55
  -5  -2  -6   12.08    2.92
   5  -2  -6   12.15    3.24
  -5  -2   6    6.57    2.37
  -5   2  -7  245.31   16.04
  -5  -2  -7  244.07   15.46
   5   2  -7  262.31   33.10
   5  -2  -7  341.10   33.48
  -5   2  -7  228.42   18.92
  -5  -2  -7  215.83   17.07
   5  -2  -7  249.50   24.08
  -5  -2   7  239.80   17.56
  -5   2  -8  152.88    9.68
  -5  -2  -8  178.20   19.98
   5   2  -8  183.18   16.68
   5  -2  -8  162.66   22.66
  -5   2  -8  168.20   16.17
  -5  -2  -8  178.78   17.43
   5  -2  -8  158.12    3.30
  -5  -2   8  149.96   13.18
  -5   2   8  162.08   12.45
  -5   2  -9    3.68    2.65
  -5  -2  -9    6.21    2.56
   5   2  -9    5.41    3.09
   5  -2  -9   13.52    6.22
  -5   2  -9   10.52    4.86
  -5  -2  -9    0.27    2.49
   5  -2  -9   -0.31    0.50
  -5  -2   9    1.24    3.09
  -5   2   9    8.03    3.48
  -5   2 -10   21.20    5.10
   5   2 -10   24.62    6.19
   5  -2 -10   35.04    8.28
  -5   2 -10   26.25    6.40
  -5  -2 -10   24.72    3.96
   5  -2 -10   20.05    2.96
  -5  -2  10   32.08    7.27
  -5   2  10   40.45    9.46
  -5   2 -11  104.34   19.58
   5   2 -11  125.74   13.40
   5  -2 -11  113.22   16.60
  -5   2 -11   93.56    9.66
   5  -2 -11   82.30    2.17
  -5  -2 -11  117.21   12.41
  -5  -2  11  102.05   27.03
  -5   2  11  108.64   24.13
  -5   2 -12   42.34   11.03
   5   2 -12   57.59    8.42
   5  -2 -12   46.59    7.77
  -5   2 -12   51.70    7.89
  -5  -2 -12   53.79   10.77
  -5  -2  12   50.42    9.34
  -5   2  12   43.52    7.12
  -5   2 -13  129.33   24.02
  -5  -2 -13  128.21   21.73
   5   2 -13  106.05    9.06
   5  -2 -13  134.09   34.82
  -5   2 -13  134.47   17.11
  -5  -2 -13  123.76   15.56
  -5  -2  13  117.33   17.78
  -5   2  13  112.13   19.57
  -5   2 -14   13.44    4.44
  -5  -2 -14    9.92    4.28
   5   2 -14   15.91    4.63
   5  -2 -14   27.89    6.87
  -5   2 -14   12.53    4.05
  -5  -2 -14   11.90    4.03
  -5  -2  14   24.16    8.52
  -5   2  14    7.77    3.18
  -5   2 -15    8.73    3.37
  -5  -2 -15   -0.06    4.28
   5   2 -15    6.69    3.75
   5  -2 -15    9.76    3.91
  -5   2 -15   11.95    3.54
  -5  -2 -15    7.66    2.54
  -5  -2  15   10.29    3.68
  -5   2  15    6.78    3.11
  -5   2 -16   41.50   14.03
  -5  -2 -16   48.85   13.66
   5   2 -16   50.00   17.29
   5  -2 -16   64.00   19.16
  -5   2 -16   46.48   10.87
  -5  -2 -16   48.19    7.72
  -5  -2  16   43.28   15.61
  -5   2  16   50.25    8.83
  -5   2 -17   31.14   12.98
  -5  -2 -17   27.93    7.63
   5   2 -17   26.34    5.93
   5  -2 -17   37.94   11.70
  -5   2 -17   26.64    9.63
  -5  -2 -17   30.24   10.58
  -5  -2  17   35.19   11.11
  -5   2  17   28.10   11.92
  -5   2 -18   15.10    8.02
  -5  -2 -18    6.25    3.74
   5   2 -18    6.21    4.24
   5  -2 -18    5.12    4.36
  -5   2 -18    5.50    3.27
  -5  -2 -18   12.24    4.92
  -5  -2  18    4.67    5.23
  -5   2  18    9.07    4.09
  -5   2 -19   11.24    5.00
  -5  -2 -19    9.91    5.76
   5   2 -19   10.12    4.51
   5  -2 -19    2.10    4.13
  -5  -2 -19    8.13    3.55
  -5  -2  19    6.81    2.73
  -5   2  19    3.14    2.65
  -5   2 -20   11.71    6.95
  -5  -2 -20   14.01    4.91
   5   2 -20    7.63    2.92
   5  -2 -20    7.75    5.70
  -5  -2 -20    9.54    2.97
  -5  -2  20    7.77    3.16
  -5   2  20   26.31    9.70
  -5   3   0   31.35    6.54
  -5  -3   0   31.23    7.00
  -5  -3   0   28.47    6.94
   5  -3   0   25.73    4.97
  -5   3   1  434.88   20.60
  -5  -3  -1  424.03   18.53
   5   3  -1  431.06   18.91
  -5   3  -1  392.94   19.33
   5   3   1  394.73   17.31
   5   3  -1  413.36   18.14
  -5  -3  -1  417.57   19.76
  -5  -3   1  389.07   18.20
  -5  -3  -1  455.34   21.65
  -5  -3   1  390.66   18.73
   5  -3  -1  430.33   19.41
   5   3  -2  235.65   15.23
  -5   3   2  235.90   16.71
  -5   3  -2  255.82   17.70
  -5  -3  -2  239.00   15.45
   5   3  -2  210.85   13.87
   5   3   2  234.83   15.26
  -5  -3  -2  226.90   15.69
   5   3  -2  200.81   15.53
  -5   3   2  229.72   15.15
  -5  -3   2  229.30   18.08
   5  -3  -2  244.93   16.07
  -5   3   3  530.40   25.04
  -5   3  -3  555.86   26.04
  -5  -3  -3  527.67   23.60
   5   3  -3  514.83   23.10
   5   3   3  507.82   22.72
  -5  -3   3  477.21   21.46
  -5  -3  -3  530.53   27.46
  -5  -3   3  544.37   24.64
   5   3  -3  472.92   21.62
  -5   3   3  545.60   24.26
  -5  -3   3  564.58   27.42
   5  -3  -3  518.11   23.05
  -5   3  -4   24.98    5.21
  -5  -3  -4   21.56    5.18
   5   3  -4   25.96    5.17
  -5  -3   4   14.80    4.45
   5  -3  -4   26.66    6.08
  -5   3  -4   16.61    4.55
  -5  -3  -4   28.22    4.81
  -5  -3   4   22.13    4.81
   5   3  -4   23.46    5.77
  -5  -3   4   20.69    6.28
  -5   3   4   26.19    6.17
  -5   3  -5  183.43   12.50
  -5  -3  -5  189.34   11.82
   5   3  -5  152.71   11.42
   5   3   5  157.07    9.99
   5  -3  -5  206.74   33.13
  -5   3  -5  178.38   20.90
  -5  -3  -5  184.98   23.96
  -5  -3   5  175.39   11.18
   5   3  -5  165.00   10.06
   5  -3  -5  165.80   11.22
  -5  -3   5  183.27   14.79
  -5   3   5  185.67   11.28
  -5   3  -6  177.92   28.89
   5   3  -6  154.94   15.27
   5  -3  -6  195.51   29.04
  -5   3  -6  160.83   18.78
  -5  -3  -6  161.38   24.68
  -5  -3   6  146.46    9.00
   5  -3  -6  135.25   11.32
  -5  -3   6  163.33   18.56
  -5   3   6  164.99   11.28
  -5   3  -7  200.67   13.63
  -5  -3  -7  218.77   14.37
   5   3  -7  215.55   21.83
   5  -3  -7  205.16   23.58
  -5   3  -7  206.08   18.37
  -5  -3  -7  201.27   14.39
  -5  -3   7  180.83   10.44
   5  -3  -7  186.86   11.52
  -5  -3   7  201.80   14.45
  -5   3   7  218.89   13.74
  -5   3  -8    0.77    2.56
  -5  -3  -8    7.62    4.11
   5   3  -8    3.25    2.47
   5  -3  -8   -2.97    5.68
  -5   3  -8   -0.69    2.99
  -5  -3  -8    5.91    2.97
  -5  -3   8    0.81    0.48
   5  -3  -8    3.82    2.80
  -5  -3   8    5.34    4.64
  -5   3   8   -0.12    2.48
  -5   3  -9  134.43   18.99
  -5  -3  -9  141.43   22.39
   5   3  -9  108.51   13.65
   5  -3  -9  139.30   24.54
  -5   3  -9  126.27   18.81
  -5  -3  -9  138.19   28.48
   5  -3  -9  105.61    4.80
  -5  -3   9  118.66   32.09
  -5   3 -10   75.98   12.60
  -5  -3 -10   77.35   11.40
   5   3 -10   68.73    8.65
   5  -3 -10   76.20   12.82
  -5   3 -10   74.67   13.96
  -5  -3 -10   82.90   16.10
   5  -3 -10   71.61    6.70
  -5  -3  10   88.39   16.46
  -5   3  10   79.58   11.60
  -5   3 -11    3.71    2.52
  -5  -3 -11    7.93    3.07
   5   3 -11   -5.09    4.77
   5  -3 -11   -0.82    6.69
  -5   3 -11    3.28    1.74
  -5  -3 -11   12.83    4.53
   5  -3 -11    5.70    2.08
  -5  -3  11   10.38    4.75
  -5   3  11   10.72    5.74
  -5   3 -12   10.82    4.78
  -5  -3 -12   34.57    8.03
   5   3 -12   13.53    4.02
   5  -3 -12   18.57    6.95
  -5   3 -12   18.94    5.64
  -5  -3 -12   16.65    3.82
   5  -3 -12   11.49    3.59
  -5  -3  12   27.68    7.85
  -5   3  12   19.23    4.18
  -5   3 -13   58.96   10.87
  -5  -3 -13   62.22   11.39
   5   3 -13   64.75   13.46
   5  -3 -13   72.65   12.90
  -5   3 -13   74.10   14.30
  -5  -3 -13   83.59   17.96
  -5  -3  13   85.25   15.69
  -5   3  13   64.76   12.87
  -5   3 -14   48.85   10.26
  -5  -3 -14   63.11   14.95
   5   3 -14   43.81   12.59
   5  -3 -14   71.84   21.88
  -5   3 -14   49.06    8.48
  -5  -3 -14   69.76   12.37
  -5  -3  14   51.10   12.23
  -5   3  14   57.36   14.90
  -5   3 -15   57.59   14.00
  -5  -3 -15   48.48   10.21
   5   3 -15   37.94   11.99
   5  -3 -15   51.25   12.78
  -5   3 -15   45.62   13.29
  -5  -3 -15   43.56   11.20
  -5  -3  15   36.43    9.12
  -5   3  15   31.30    8.55
  -5   3 -16    6.25    3.05
  -5  -3 -16    9.55    5.86
   5   3 -16    8.14    3.14
   5  -3 -16    5.91    7.28
  -5  -3 -16    8.03    4.09
  -5  -3  16    3.82    2.97
  -5   3  16    5.80    3.29
  -5   3 -17    7.40    5.40
  -5  -3 -17   10.15    3.44
   5   3 -17   19.95    6.39
   5  -3 -17   15.24    7.31
  -5  -3  17   11.40    6.50
  -5   3  17   13.32    5.01
  -5   3 -18   17.91    6.61
  -5  -3 -18   20.70    6.53
   5   3 -18   21.81    9.25
   5  -3 -18   27.69    9.97
  -5  -3 -18   30.66    4.68
  -5  -3  18   27.76    6.02
  -5   3  18   14.60    5.29
  -5   3 -19   15.86    7.34
  -5  -3 -19   25.02    7.81
   5   3 -19   30.12    9.99
   5  -3 -19   17.24    5.36
  -5  -3  19   20.85   12.68
  -5   3  19   18.25    9.29
  -5   4   0  514.96   26.31
  -5  -4   0  531.12   24.92
   5  -4   0  491.31   21.89
  -5  -4   0  476.50   22.78
  -5   4   1  318.26   15.75
  -5   4  -1  347.55   17.34
  -5  -4  -1  301.20   15.08
  -5  -4   1  342.75   19.65
  -5  -4  -1  324.89   16.32
  -5  -4   1  332.33   16.42
   5  -4  -1  369.29   16.38
  -5   4   2  465.92   22.47
  -5   4  -2  448.53   21.50
  -5  -4  -2  426.58   18.84
   5   4  -2  442.48   19.58
   5   4   2  425.28   18.74
  -5  -4   2  403.15   17.86
  -5  -4  -2  428.14   20.79
  -5  -4  -2  444.11   21.35
  -5  -4   2  444.31   21.54
   5  -4  -2  434.10   19.07
  -5   4   3   69.04   16.09
  -5   4  -3   77.67   14.19
  -5  -4  -3   57.59    5.90
   5   4  -3   63.54    9.53
   5   4   3   60.60    7.14
  -5  -4   3   69.42   10.29
  -5  -4  -3   59.49   11.50
   5   4  -3   42.94    9.62
  -5   4   3   64.77    5.84
  -5  -4   3   78.13   12.53
  -5   4  -4  145.83   10.57
  -5  -4  -4  145.31    9.13
   5   4  -4  134.90    8.72
   5   4   4  118.93    7.52
  -5  -4   4  121.10   12.04
   5  -4  -4  147.43   24.22
  -5  -4  -4  157.17   15.32
  -5  -4   4  145.08    9.53
   5   4  -4  128.13    8.47
   5  -4  -4  140.93   12.35
  -5   4   4  136.04    8.09
  -5  -4   4  141.06   16.85
  -5   4  -5  275.04   15.25
  -5  -4  -5  270.33   13.79
   5   4  -5  267.77   14.59
   5   4   5  233.66   14.00
   5  -4  -5  273.53   21.69
  -5  -4  -5  266.39   15.67
  -5  -4   5  281.99   14.11
   5   4  -5  262.60   13.32
   5  -4  -5  282.16   24.25
  -5  -4   5  264.86   14.85
  -5   4   5  271.96   13.91
  -5   4  -6  645.68   35.58
  -5  -4  -6  644.54   30.95
   5   4  -6  586.79   28.46
   5  -4  -6  665.54   33.56
  -5  -4  -6  617.13   30.66
  -5  -4   6  655.71   30.93
   5  -4  -6  583.56   29.55
   5   4  -6  548.03   25.88
  -5  -4   6  629.65   31.56
  -5   4   6  612.37   29.26
  -5   4  -7  110.39   18.56
   5   4  -7   92.03    9.56
   5  -4  -7  104.89   15.81
  -5  -4  -7  108.92   22.02
  -5  -4   7  101.83    3.42
   5  -4  -7   95.63    7.09
  -5  -4   7   94.50   10.57
  -5   4   7   94.79    4.90
  -5   4  -8   35.20    8.64
  -5  -4  -8   44.85   11.58
   5   4  -8   37.57    8.13
   5  -4  -8   52.44    9.02
  -5  -4  -8   43.85    6.32
  -5  -4   8   32.20    5.70
   5  -4  -8   35.07    9.69
  -5  -4   8   55.23   10.84
  -5   4   8   45.31    7.86
  -5   4  -9   20.34    5.15
  -5  -4  -9   37.37    8.78
   5   4  -9   34.08    7.53
   5  -4  -9   28.63    7.04
  -5  -4   9   19.29    4.05
  -5  -4  -9   30.84    7.56
  -5  -4   9   21.32    4.96
   5  -4  -9   23.35    4.48
  -5  -4   9   32.87    6.29
  -5   4   9   33.10    5.78
  -5   4 -10  162.54   20.38
  -5  -4 -10  137.48   21.21
   5   4 -10  136.50   27.32
   5  -4 -10  163.89   35.98
  -5  -4  10  124.09    2.76
  -5  -4 -10  146.92   18.78
   5  -4 -10  145.49    6.10
  -5  -4  10  125.49    2.69
  -5  -4  10  143.15   20.83
  -5   4 -11  166.69   21.37
  -5  -4 -11  171.63   35.07
   5   4 -11  144.85   25.28
   5  -4 -11  195.77   29.75
  -5  -4 -11  170.38   14.45
  -5  -4  11  114.70    5.62
   5  -4 -11  159.14   13.88
  -5  -4  11  170.78   30.41
  -5   4 -12    7.85    3.95
  -5  -4 -12   12.10    3.18
   5   4 -12    2.39    2.48
   5  -4 -12   17.02    6.47
  -5  -4 -12   11.02    4.61
   5  -4 -12    5.99    2.58
  -5  -4  12   12.74    4.75
  -5   4  12   11.63    3.22
  -5   4 -13   67.66   14.41
  -5  -4 -13   48.29   12.28
   5   4 -13   57.97   13.54
   5  -4 -13   63.32   16.38
  -5  -4 -13   50.87    7.33
   5  -4 -13   51.26    5.80
  -5  -4  13   64.97   17.06
  -5   4  13   56.41   15.45
  -5   4 -14   13.63    4.81
  -5  -4 -14   15.88    4.74
   5   4 -14   11.76    5.74
   5  -4 -14   22.28    7.65
  -5  -4 -14    6.95    3.71
  -5  -4  14    9.43    4.45
  -5   4  14   12.54    3.36
  -5   4 -15    9.80    4.44
  -5  -4 -15   12.80    6.98
   5   4 -15    8.60    3.95
   5  -4 -15   19.49    6.19
  -5  -4 -15   11.38    4.49
  -5  -4  15   22.74    6.92
  -5   4  15    8.96    4.20
  -5   4 -16    5.08    3.48
  -5  -4 -16    9.14    5.90
   5   4 -16    4.62    3.12
   5  -4 -16   11.82    3.31
  -5  -4 -16    5.57    3.28
  -5  -4  16    9.54    5.11
  -5   4  16    8.33    3.49
  -5   4 -17   20.91    6.45
  -5  -4 -17   16.86    5.96
   5   4 -17   13.36    4.31
   5  -4 -17   27.13    7.12
  -5  -4 -17   13.60    4.94
  -5  -4  17   25.79    8.42
  -5   4  17   17.69    5.03
  -5   4 -18   68.01   14.68
  -5  -4 -18   57.60   15.78
   5   4 -18   53.48   19.25
   5  -4 -18   76.51   17.75
  -5  -4 -18   48.60   11.42
  -5  -4  18   46.00   12.93
  -5   4  18   52.49   14.05
  -5   4 -19    8.55    5.84
  -5  -4 -19    6.67    3.53
   5   4 -19   13.03    5.05
   5  -4 -19   26.49   12.93
  -5  -4 -19    4.34    2.37
  -5  -4  19   11.69    5.30
  -5   4  19    8.69    4.78
  -5   5   0  121.35   13.71
  -5  -5   0  140.68   11.06
   5  -5   0  108.08    7.16
  -5  -5   0  128.37   13.94
  -5   5   1  313.11   16.06
  -5   5  -1  354.59   17.99
  -5  -5  -1  340.37   17.11
  -5  -5   1  328.33   16.46
  -5  -5  -1  304.45   17.66
  -5  -5   1  309.65   16.48
  -5   5   2  125.71   14.85
  -5  -5  -2  119.50    7.10
  -5   5  -2  125.93   14.76
   5   5  -2  124.91    7.56
  -5  -5  -2  117.38    7.00
  -5  -5   2  113.37    6.81
  -5  -5  -2  131.81    9.60
  -5  -5   2  127.32   20.58
  -5  -5  -2  135.40   23.36
  -5  -5   2  145.80   14.89
  -5   5   3  420.00   23.01
  -5   5  -3  454.55   23.27
   5   5  -3  450.81   21.28
  -5  -5  -3  440.55   20.74
  -5  -5   3  433.99   21.24
   5   5   3  449.88   21.95
  -5  -5  -3  460.69   23.44
   5  -5  -3  460.84   23.45
  -5  -5   3  464.54   23.47
  -5   5   4   62.78   13.43
  -5   5  -4   88.40   17.30
   5   5  -4   58.34    9.39
  -5  -5  -4   57.74    8.14
  -5  -5   4   61.02    6.95
   5   5   4   52.36    8.43
  -5  -5  -4   77.63   15.74
  -5  -5   4   65.72   10.57
   5  -5  -4   64.71   15.22
  -5   5   4   59.72    5.53
  -5  -5   4   72.20   13.04
  -5   5  -5  144.46   25.05
   5   5  -5  124.31    9.42
  -5  -5  -5  130.95   10.71
   5  -5  -5  146.28   19.76
  -5  -5  -5  148.15   26.05
  -5  -5   5  130.24    8.84
   5  -5  -5  130.47   15.97
  -5  -5   5  135.76   17.62
  -5   5   5  124.73    8.32
  -5   5  -6   53.26   10.13
   5   5  -6   52.30    5.29
  -5  -5  -6   59.42   11.57
   5  -5  -6   56.17    7.80
  -5  -5  -6   42.37    9.00
  -5  -5   6   62.43   13.94
   5  -5  -6   54.83   10.65
   5   5  -6   31.75    8.87
  -5  -5   6   68.63   13.82
  -5   5   6   49.71    6.20
  -5   5  -7   11.64    5.08
   5   5  -7    8.27    4.58
   5  -5  -7    9.45    3.62
  -5  -5  -7   17.00    3.71
  -5  -5   7    9.78    2.61
   5  -5  -7    6.55    3.91
  -5  -5   7   14.00    6.47
  -5   5   7   11.73    2.66
  -5   5  -8   63.18   12.71
   5   5  -8   48.59    6.73
   5  -5  -8   55.92   13.35
  -5  -5  -8   64.81    8.83
  -5  -5   8   55.64   13.22
   5  -5  -8   43.31    7.98
  -5  -5   8   60.37   12.52
  -5   5   8   50.77    8.51
  -5   5  -9  260.97   31.59
   5   5  -9  213.40   28.44
  -5  -5  -9  228.82    9.51
   5  -5  -9  254.52   42.10
  -5  -5  -9  264.09   23.41
  -5  -5   9  254.87    7.38
   5  -5  -9  253.53    7.71
  -5  -5   9  262.67   30.38
  -5   5   9  218.81    9.06
  -5   5 -10    8.61    4.92
   5   5 -10    0.21    3.10
  -5  -5 -10    7.26    5.09
   5  -5 -10    1.24    7.80
  -5  -5  10    3.84    1.97
  -5  -5 -10   15.30    4.94
   5  -5 -10   11.52   11.69
  -5  -5  10    3.87    1.73
  -5  -5  10   10.59    5.60
  -5   5  10    5.39    2.38
  -5   5 -11   80.22   19.21
   5   5 -11   60.61   18.06
  -5  -5 -11   75.03   11.62
   5  -5 -11   74.86   20.21
  -5  -5 -11   76.89    8.93
   5  -5 -11   67.88   10.91
  -5  -5  11   68.71    6.29
  -5  -5  11   87.14   15.39
  -5   5 -12    9.52    4.61
   5   5 -12   11.09    4.22
  -5  -5 -12    7.89    4.19
   5  -5 -12   17.19    6.56
  -5  -5 -12    7.49    4.19
   5  -5 -12   11.94    2.61
  -5  -5  12    4.27    1.58
  -5  -5  12   11.34    7.18
  -5   5 -13   67.19    9.85
   5   5 -13   55.70   12.96
  -5  -5 -13   62.00   14.88
   5  -5 -13   81.06   18.08
  -5  -5 -13   70.37   10.62
   5  -5 -13   44.79    7.33
  -5  -5  13   65.52    8.79
  -5   5 -14   11.75    4.47
   5   5 -14   17.09    5.76
  -5  -5 -14   23.14    7.23
   5  -5 -14   21.03    8.59
  -5  -5 -14   32.17    8.77
  -5  -5  14   13.83    5.90
  -5   5 -15   85.35   21.87
   5   5 -15   79.23   23.34
  -5  -5 -15   74.75   17.09
   5  -5 -15   91.14   26.92
  -5  -5 -15   82.65   13.30
  -5  -5  15  100.76   24.54
  -5   5 -16   22.78   11.13
   5   5 -16   39.92   10.37
  -5  -5 -16   27.34    8.94
   5  -5 -16   22.73    7.18
  -5  -5 -16   33.49    7.60
  -5  -5  16   21.69    8.64
  -5   5  16   14.95    4.92
  -5   5 -17   16.68    5.10
   5   5 -17   25.56    5.93
  -5  -5 -17   22.24    7.77
   5  -5 -17   21.34    8.09
  -5  -5 -17   21.05    5.10
  -5  -5  17   26.01    5.61
  -5   5  17   14.51    5.40
  -5   5 -18    2.84    4.14
   5   5 -18    4.45    2.72
  -5  -5 -18   10.66    4.40
   5  -5 -18    8.16    4.05
  -5  -5 -18    6.59    3.58
  -5  -5  18    2.00    2.72
  -5   5  18    2.22    2.05
  -5   5 -19    2.11    2.61
   5   5 -19    6.05    4.30
  -5  -5 -19    8.81    3.05
   5  -5 -19    6.04    5.59
  -5  -5 -19    4.82    4.10
  -5  -5  19   12.01    5.59
  -5   5  19    4.12    3.68
  -5   6   0  442.63   23.58
  -5  -6   0  429.85   22.23
  -5  -6   0  425.39   24.90
   5  -6   0  433.71   20.12
   5   6  -1   10.94    1.87
  -5   6   1   12.70    3.71
  -5   6  -1   44.13    9.01
  -5  -6   1   19.95    2.67
  -5  -6  -1   18.76    6.09
  -5  -6   1   30.71    7.12
  -5  -6  -1   15.21    3.47
  -5  -6   1   25.85    3.93
  -5   6   2  109.51   19.94
  -5  -6  -2  111.35    6.74
  -5   6  -2  115.01   18.53
   5   6  -2  115.21    8.98
  -5  -6  -2  117.74    7.20
  -5  -6   2   97.45    6.24
  -5  -6  -2  131.05   23.16
  -5  -6   2  122.87   21.50
  -5  -6  -2  110.06   15.40
  -5  -6   2  114.43   10.36
  -5  -6  -3  128.35   10.21
  -5   6  -3  147.36   17.47
   5   6  -3  147.54    8.98
  -5  -6  -3  150.22    9.13
  -5  -6   3  136.81    8.98
  -5  -6  -3  164.00   23.72
  -5  -6   3  151.00   10.65
   5  -6  -3  148.49   13.24
  -5  -6   3  149.20   19.76
  -5  -6  -4  282.82   17.11
  -5   6   4  264.37   17.80
  -5   6  -4  292.52   19.50
   5   6  -4  310.62   19.15
  -5  -6  -4  323.55   19.74
  -5  -6  -4  325.54   26.41
   5  -6  -4  272.54   23.06
  -5  -6   4  333.33   23.41
  -5   6  -5  241.54   28.68
   5   6  -5  241.90   15.36
  -5  -6  -5  258.91   16.53
   5   6   5  218.36   13.72
   5  -6  -5  248.00   27.64
  -5  -6  -5  214.05   15.81
  -5  -6   5  261.39   17.02
   5  -6  -5  250.55   24.81
  -5  -6   5  245.49   18.83
  -5   6   5  230.72   13.66
  -5   6  -6   22.39    5.13
   5   6  -6   31.45    6.82
  -5  -6  -6   26.72    6.94
   5  -6  -6   26.64    6.36
  -5  -6  -6   25.56    5.86
  -5  -6   6   41.78    8.66
   5  -6  -6   34.38    9.77
  -5  -6   6   25.68    6.94
  -5   6   6   24.31    5.31
  -5   6  -7   44.30   12.21
   5   6  -7   51.40    9.33
  -5  -6  -7   53.39    7.75
   5  -6  -7   55.64    9.03
  -5  -6  -7   36.90    6.47
  -5  -6   7   46.33    9.74
   5  -6  -7   42.84    6.92
  -5  -6   7   52.41   14.42
  -5   6   7   54.71    6.51
  -5   6  -8  161.40   22.17
   5   6  -8  168.31   24.12
   5  -6  -8  179.70   23.92
  -5  -6  -8  161.94   17.85
  -5  -6   8  166.16   19.43
   5  -6  -8  151.98   14.51
  -5  -6   8  187.51   25.92
  -5   6   8  141.15    6.11
  -5   6  -9    4.94    5.21
   5   6  -9    6.25    2.47
  -5  -6  -9   16.92    5.44
   5  -6  -9    8.92    6.46
  -5  -6  -9    8.31    3.80
   5  -6  -9    9.86    4.74
  -5  -6   9    5.24    2.91
  -5  -6   9    5.97    4.14
  -5   6   9   11.06    3.49
  -5   6 -10   55.28   10.36
   5   6 -10   32.87    7.44
  -5  -6 -10   37.50    8.98
   5  -6 -10   47.75   11.86
  -5  -6 -10   38.95    7.13
   5  -6 -10   44.18    7.76
  -5  -6  10   37.29    9.37
  -5  -6  10   43.64    9.86
  -5   6 -11   28.58    7.02
   5   6 -11   25.50    9.74
  -5  -6 -11   26.74    7.37
   5  -6 -11   27.66    7.50
  -5  -6 -11   34.95    7.94
   5  -6 -11   20.36    5.29
  -5  -6  11   21.36    4.59
  -5  -6  11   19.35    4.89
  -5   6 -12   90.64   20.75
   5   6 -12   86.87   18.06
  -5  -6 -12   70.66   15.96
   5  -6 -12  109.25   15.76
  -5  -6 -12   80.38   12.74
   5  -6 -12   75.64    8.05
  -5  -6  12   80.24    8.30
  -5  -6  12   93.11   22.90
  -5   6 -13   16.70    7.29
   5   6 -13   12.67    4.99
  -5  -6 -13   12.56    4.01
   5  -6 -13   12.24    5.59
  -5  -6 -13   19.27    6.39
   5  -6 -13   14.16    5.33
  -5  -6  13   21.02   10.15
  -5   6 -14    6.33    3.12
   5   6 -14   12.12    4.22
  -5  -6 -14    6.67    3.13
   5  -6 -14    6.62    5.40
  -5  -6 -14    7.19    2.49
  -5  -6  14   10.93    6.30
  -5   6 -15    6.31    6.00
   5   6 -15   17.89    5.19
  -5  -6 -15   16.10    7.28
   5  -6 -15   21.34    6.67
  -5  -6 -15   24.62    5.99
  -5  -6  15   22.84    6.04
  -5   6 -16   70.76   14.79
   5   6 -16   53.66   12.15
  -5  -6 -16   50.99   13.67
   5  -6 -16   69.98   16.78
  -5  -6 -16   56.74   13.62
  -5  -6  16   71.79   24.48
  -5   6 -17   31.99    8.73
   5   6 -17   16.34    4.74
  -5  -6 -17   18.34    4.67
   5  -6 -17   16.43    6.12
  -5  -6 -17   20.35    6.02
  -5  -6  17   24.82    7.73
  -5   6  17    7.96    3.26
  -5   6 -18   12.50    5.36
   5   6 -18    5.61    3.62
  -5  -6 -18   12.35    4.33
   5  -6 -18   13.86    6.12
  -5  -6 -18    2.90    2.13
  -5  -6  18    8.93    4.42
  -5   6  18    4.14    2.38
  -5   7   0   -1.81    3.33
  -5  -7   0    1.35    0.73
  -5  -7   0    1.38    0.75
  -5  -7   0    6.52    4.81
  -5  -7   0    2.03    2.30
   5  -7   0    0.50    0.63
   5   7  -1  279.29   16.55
  -5   7   1  274.86   19.41
  -5   7  -1  267.07   17.87
  -5  -7  -1  262.35   15.65
  -5  -7   1  280.18   16.62
  -5  -7  -1  290.79   17.33
  -5  -7  -1  282.71   19.73
  -5  -7   1  305.41   20.55
  -5  -7  -1  299.34   27.95
  -5  -7   1  277.39   19.40
   5  -7   1  283.88   18.10
  -5   7   2   32.73    7.42
   5   7  -2   25.81    4.86
  -5   7  -2   31.17    7.03
  -5  -7  -2   29.18    4.44
  -5  -7   2   29.78    6.05
  -5  -7  -2   31.64    6.71
  -5  -7  -2   39.10   11.42
  -5  -7   2   26.44    7.71
   5  -7  -2   36.77    6.62
  -5  -7  -2   23.88    7.14
  -5  -7   2   37.25   10.11
  -5   7   3  133.15   25.80
  -5  -7  -3  118.02    8.18
  -5   7  -3  135.44   23.86
   5   7  -3  143.32    4.99
  -5  -7   3  126.34    3.86
  -5  -7  -3  132.06    4.05
  -5  -7  -3  142.53   23.11
  -5  -7   3  151.33   27.64
   5  -7  -3  137.72   23.82
  -5  -7   3  142.62   12.29
  -5   7   4  207.62   18.50
  -5  -7  -4  183.17   11.77
  -5   7  -4  185.68   14.56
   5   7  -4  219.32   15.46
  -5  -7  -4  201.88   12.85
  -5  -7   4  182.51   11.81
  -5  -7  -4  223.13   37.02
  -5  -7   4  215.33   19.72
   5  -7  -4  224.41   23.96
  -5  -7   4  200.39   18.81
  -5  -7  -5    4.23    0.88
  -5   7  -5   10.12    5.29
   5   7  -5    8.11    2.35
  -5  -7  -5   11.41    3.39
   5  -7  -5    8.26    5.92
  -5  -7  -5    4.60    2.83
   5  -7  -5    6.94    4.49
  -5  -7   5   14.61    3.48
  -5   7  -6   20.03    5.62
   5   7  -6   34.93    7.77
  -5  -7  -6   36.79   12.13
   5  -7  -6   30.23    8.06
  -5  -7  -6   36.21    5.81
  -5  -7   6   30.76    6.38
   5  -7  -6   24.61    5.81
  -5  -7   6   32.45    6.93
  -5   7   6   30.68    3.88
  -5   7  -7   75.10   18.71
   5   7  -7   68.41   11.62
  -5  -7  -7   65.05   11.78
   5  -7  -7   58.64   15.58
  -5  -7  -7   76.54   10.94
  -5  -7   7   73.43   17.03
   5  -7  -7   74.46   19.57
  -5  -7   7   63.57   10.40
  -5   7   7   71.76    6.59
  -5   7  -8  121.39   17.51
   5   7  -8   87.38   16.82
  -5  -7  -8   57.42   13.43
   5  -7  -8   89.57   24.17
  -5  -7  -8   99.15   19.48
  -5  -7   8  102.89   13.69
   5  -7  -8   90.78   14.20
  -5  -7   8   98.84   19.10
  -5   7   8   95.37    7.72
  -5   7  -9  125.07   19.26
   5   7  -9  107.59   19.91
   5  -7  -9  104.25   18.34
  -5  -7  -9  133.89   14.47
   5  -7  -9  118.81   14.49
  -5  -7   9  101.39    7.58
  -5  -7   9   97.94   18.16
  -5   7 -10   32.22   11.31
   5   7 -10   28.84    5.90
  -5  -7 -10   20.48    5.13
   5  -7 -10   21.11    5.87
  -5  -7 -10   27.57    7.14
   5  -7 -10   21.12    4.09
  -5  -7  10   20.40    4.22
  -5  -7  10   21.16    5.37
  -5   7 -11    4.55    2.48
   5   7 -11    7.58    3.44
  -5  -7 -11    5.11    2.70
   5  -7 -11    5.70    6.46
  -5  -7 -11   20.82    5.57
   5  -7 -11    2.63    3.03
  -5  -7  11    3.77    1.33
  -5  -7  11   10.31    4.50
  -5   7 -12    7.18    4.66
   5   7 -12    4.12    2.83
  -5  -7 -12    9.06    9.70
   5  -7 -12    4.48    3.55
  -5  -7 -12   14.37    4.46
   5  -7 -12    3.12    2.38
  -5  -7  12    4.31    2.58
  -5  -7  12    5.65    4.55
  -5   7 -13   54.24   10.74
   5   7 -13   54.36   10.04
  -5  -7 -13   67.41   14.60
   5  -7 -13   79.48   18.88
  -5  -7 -13   52.30    9.86
   5  -7 -13   47.82   12.28
  -5  -7  13   82.41   19.30
  -5   7 -14    1.13    2.59
   5   7 -14    2.79    2.71
  -5  -7 -14    4.73    2.81
   5  -7 -14    6.20    3.87
  -5  -7 -14    1.23    1.74
  -5  -7  14    7.85    5.24
  -5   7 -15   56.73   12.84
   5   7 -15   53.51   11.84
  -5  -7 -15   59.90   13.97
   5  -7 -15   57.18   13.31
  -5  -7 -15   56.87   11.31
  -5  -7  15   46.51   13.77
  -5   7 -16   22.67    7.02
   5   7 -16   14.75    5.51
  -5  -7 -16   22.81    8.36
   5  -7 -16   24.67    8.73
  -5  -7 -16   16.02    6.45
  -5  -7  16   31.76   11.18
  -5   7 -17    8.33    3.63
   5   7 -17   10.39    5.77
  -5  -7 -17    4.28    5.18
   5  -7 -17    4.02    3.74
  -5  -7 -17    4.75    3.45
  -5  -7  17    4.45    6.06
  -5   7 -18   10.27    6.40
   5   7 -18    8.86    4.14
  -5  -7 -18    5.77    3.74
   5  -7 -18    4.10    6.79
  -5  -7 -18    3.15    2.18
  -5  -7  18    7.08    4.54
  -5   8   0  191.56   22.94
  -5  -8   0  148.70    4.66
  -5  -8   0  166.93    4.91
  -5  -8   0  189.43   30.16
  -5  -8   0  152.96   20.70
   5  -8   0  169.64    6.50
   5   8  -1   34.24    5.25
  -5   8   1   31.55    8.04
  -5   8  -1   27.77    5.96
  -5  -8  -1   29.40    5.56
  -5  -8   1   24.99    5.51
  -5  -8  -1   30.03    7.00
  -5  -8  -1   44.22    8.38
  -5  -8   1   50.97   11.33
   5  -8  -1   32.99   13.21
  -5  -8  -1   40.58    8.61
  -5  -8   1   29.29    7.35
   5  -8   1   31.17    6.67
  -5   8   2   82.13   14.79
   5   8  -2   77.83    8.07
  -5   8  -2   81.94   10.68
  -5  -8  -2   71.69    8.27
  -5  -8   2   58.92    9.31
  -5  -8  -2   68.71    4.46
  -5  -8  -2   84.45   14.70
  -5  -8   2  100.58   18.52
   5  -8  -2   89.50   12.91
  -5  -8  -2   86.80   11.53
  -5  -8   2   94.34   15.42
   5  -8   2   82.60    7.72
  -5   8   3    9.14    3.04
  -5  -8  -3    8.49    1.90
  -5   8  -3   14.52    4.28
   5   8  -3   11.27    2.88
  -5  -8   3    8.96    2.50
  -5  -8  -3   12.87    3.53
  -5  -8  -3   19.45    6.78
  -5  -8   3    7.24    3.66
   5  -8  -3   13.77    6.19
  -5  -8   3   10.33    5.81
   5  -8   3   10.49    2.79
  -5   8   4   16.24    3.76
  -5  -8  -4    9.43    2.43
  -5   8  -4   11.72    2.53
   5   8  -4   20.24    3.93
  -5  -8   4   11.13    3.13
  -5  -8  -4   17.06    3.87
  -5  -8  -4   18.18    7.38
  -5  -8   4   18.57    5.05
   5  -8  -4   28.70    7.64
  -5  -8   4   21.55    6.69
  -5   8  -5  192.79   17.10
   5   8  -5  181.04   17.89
  -5  -8  -5  152.89   11.69
   5  -8  -5  202.90   30.94
  -5  -8  -5  158.53   33.21
  -5  -8   5  165.41   21.44
   5  -8  -5  174.39   36.48
  -5  -8   5  186.53   31.78
  -5   8  -6  205.23   36.41
   5   8  -6  216.26   23.02
  -5  -8  -6  193.68    7.44
   5  -8  -6  202.35   24.84
  -5  -8  -6  240.68   27.44
   5  -8  -6  190.60   16.49
  -5  -8   6  202.93   16.23
  -5   8  -7   79.15   13.73
   5   8  -7   78.24   16.80
  -5  -8  -7   98.64   18.73
   5  -8  -7   64.26   10.02
  -5  -8  -7   87.01   12.34
  -5  -8   7   82.01   19.85
   5  -8  -7   64.37   12.95
  -5   8   7   72.98    4.01
  -5  -8   7   93.50   17.22
  -5   8   7   76.71    2.63
  -5   8  -8   32.84    8.48
   5   8  -8   29.73    7.00
  -5  -8  -8   34.54    8.61
   5  -8  -8   21.68    8.43
  -5  -8  -8   33.37    8.08
  -5  -8   8   44.95    9.48
   5  -8  -8   27.29    7.07
  -5  -8   8   25.24    4.79
  -5   8   8   26.92    6.86
  -5   8  -9   40.45   13.81
   5   8  -9   39.43    7.77
   5  -8  -9   45.98    8.81
  -5  -8  -9   33.03    5.74
   5  -8  -9   31.69    7.78
  -5  -8   9   31.32    8.46
  -5  -8   9   37.21    7.98
  -5   8 -10   63.39   12.25
   5   8 -10   51.49    8.36
  -5  -8 -10   55.46   10.20
   5  -8 -10   75.36   19.84
  -5  -8 -10   73.67   14.91
   5  -8 -10   55.83   15.44
  -5  -8  10   63.50   12.40
  -5  -8  10   64.05   16.36
  -5   8 -11   21.72    5.42
   5   8 -11   19.22    4.70
  -5  -8 -11   16.22    6.84
   5  -8 -11   23.08    5.94
  -5  -8 -11   26.37    4.80
   5  -8 -11   30.19    6.23
  -5  -8  11   22.99    5.22
  -5  -8  11   14.61    8.12
  -5   8 -12   37.07    9.68
   5   8 -12   37.62   13.37
  -5  -8 -12   42.35   11.83
   5  -8 -12   46.31    8.80
  -5  -8 -12   49.00   10.23
   5  -8 -12   28.67   10.41
  -5  -8  12   30.13    8.22
  -5  -8  12   46.18    9.37
  -5   8 -13   22.80    5.75
   5   8 -13   17.22    7.67
  -5  -8 -13   11.17    4.13
   5  -8 -13   27.18    5.92
  -5  -8 -13   11.82    4.68
   5  -8 -13   13.46    7.33
  -5  -8  13    8.63    6.65
  -5   8 -14   21.06    5.46
   5   8 -14   18.09    5.89
  -5  -8 -14   19.87    3.98
   5  -8 -14   32.33    8.46
  -5  -8 -14   13.45    4.86
   5  -8 -14   13.94    6.64
  -5  -8  14   27.00    7.15
  -5   8 -15   11.55    6.96
   5   8 -15    4.66    2.50
  -5  -8 -15    3.29    3.99
   5  -8 -15    8.14    4.22
  -5  -8 -15    9.33    3.80
  -5  -8  15   12.18    7.23
  -5   8 -16   21.92    8.05
   5   8 -16   14.31    5.98
  -5  -8 -16   18.84   10.28
   5  -8 -16   14.98    3.81
  -5  -8 -16   10.02    5.69
  -5  -8  16   34.45    8.49
  -5   8 -17   16.71    6.04
   5   8 -17    8.28    4.79
  -5  -8 -17   13.94    7.43
   5  -8 -17   10.61    7.01
  -5  -8 -17    9.71    5.73
  -5  -8  17   17.09    7.87
  -5   8 -18   12.72    4.40
   5   8 -18   21.53    8.06
  -5  -8 -18   21.33    6.16
   5  -8 -18   44.14   11.99
  -5  -8  18   21.50    7.06
  -5   9   0   23.98    6.65
  -5  -9   0   21.38    4.18
  -5  -9   0   23.94    4.70
  -5  -9   0   43.59   10.41
   5  -9   0   31.18    6.83
  -5  -9   0   30.25    6.38
   5  -9   0   22.56    3.94
   5   9  -1   34.52    6.26
  -5   9   1   33.12    7.53
  -5   9  -1   35.01   14.33
  -5  -9  -1   25.66    5.03
  -5  -9   1   27.07    5.26
  -5  -9  -1   34.06    6.75
  -5  -9  -1   45.42   11.13
  -5  -9   1   48.28   12.97
   5  -9  -1   48.93   11.83
   5  -9   1   24.79    5.98
  -5  -9  -1   36.48    8.34
  -5  -9   1   45.36    8.20
   5  -9   1   39.47    5.25
  -5   9   2  104.30   17.78
   5   9  -2  100.88    3.55
  -5   9  -2   89.37   13.42
  -5  -9  -2   80.82    8.84
  -5  -9   2   74.02   10.29
  -5  -9  -2  103.41    4.16
  -5  -9  -2  117.57   27.18
   5  -9  -2  106.67   21.05
  -5  -9  -2  116.04   22.64
  -5  -9   2   99.48   14.35
   5  -9   2  104.66   11.46
  -5   9   3  102.43   16.64
   5   9  -3   82.87   10.53
  -5   9  -3   76.98   16.36
  -5  -9  -3   68.45   12.55
  -5  -9  -3   91.24    4.44
  -5  -9  -3   92.00   15.45
  -5  -9   3   78.05   15.53
   5  -9  -3   93.34   19.22
  -5  -9   3   95.53   13.73
   5  -9   3   85.39   16.18
  -5   9   4   22.75    7.59
  -5   9  -4   21.44    5.94
   5   9  -4   18.54    5.70
  -5  -9  -4   20.38    5.06
  -5  -9  -4   20.04    9.22
  -5  -9   4   21.80    6.86
   5  -9  -4   24.42    7.13
  -5  -9   4   24.12    6.91
   5  -9   4   24.83    6.43
  -5   9  -5   32.22    9.10
   5   9  -5   25.32    8.31
  -5  -9  -5   16.25    6.15
   5  -9  -5   20.98    8.16
  -5  -9  -5   24.27    7.29
  -5  -9   5   41.23    7.40
   5  -9  -5   26.64    7.05
  -5  -9   5   31.88    9.45
   5  -9   5   25.89    8.17
  -5   9  -6  172.52   19.49
   5   9  -6  170.85   12.30
  -5  -9  -6  158.77   23.60
   5  -9  -6  187.08   21.97
  -5  -9  -6  173.02   26.21
  -5  -9   6  204.14   34.86
   5  -9  -6  137.71   20.51
  -5  -9   6  176.13   25.94
   5  -9   6  186.69   20.59
  -5   9  -7   57.55   11.80
   5   9  -7   51.50   10.26
  -5  -9  -7   51.78   15.19
   5  -9  -7   67.24   12.59
  -5  -9  -7   66.23   12.26
   5  -9  -7   51.91   14.03
  -5   9   7   39.24    2.52
  -5  -9   7   61.40   10.45
  -5   9   7   48.15    3.14
  -5   9  -8   18.93    5.57
   5   9  -8    9.49    2.74
  -5  -9  -8    9.12    3.06
   5  -9  -8   12.88    5.23
  -5  -9  -8   21.92    4.79
   5  -9  -8   14.07    6.24
  -5  -9   8   18.83    4.96
  -5   9   8    9.54    2.73
  -5   9  -9   15.20    5.62
   5   9  -9   10.40    3.49
   5  -9  -9    9.03    7.86
  -5  -9  -9   13.33    5.19
   5  -9  -9   12.63    3.47
  -5  -9   9   10.46    3.30
  -5  -9   9    6.17    4.20
  -5   9 -10   87.76   17.75
   5   9 -10   95.57   12.87
   5  -9 -10   92.03   19.63
  -5  -9 -10  121.43   24.43
   5  -9 -10   86.08   14.71
  -5  -9  10  106.84   15.22
  -5  -9  10  103.68   19.75
  -5   9 -11   23.84    7.19
   5   9 -11   19.33    4.28
  -5  -9 -11   19.23    6.00
   5  -9 -11   13.93    4.72
  -5  -9 -11   11.43    4.37
   5  -9 -11   19.01    5.64
  -5  -9  11   10.32    5.73
  -5  -9  11   14.68    5.56
  -5   9 -12   33.06   10.65
   5   9 -12   30.40    6.78
  -5  -9 -12   26.16    7.37
   5  -9 -12   41.79    9.49
  -5  -9 -12   29.13    9.83
   5  -9 -12   24.27    8.49
  -5  -9  12   23.58    5.77
  -5  -9  12   37.79   14.69
  -5   9 -13   11.71    3.79
   5   9 -13   13.20    4.10
  -5  -9 -13    7.94    4.24
   5  -9 -13   10.41    6.61
  -5  -9 -13    2.81    8.30
   5  -9 -13   12.95    5.10
  -5  -9  13   12.18    4.11
  -5   9 -14   42.27   11.25
   5   9 -14   31.36    8.69
  -5  -9 -14   29.79   10.14
   5  -9 -14   44.92    9.46
  -5  -9 -14   36.39    7.65
   5  -9 -14   23.43    5.79
  -5  -9  14   35.98   12.16
  -5   9 -15    8.97    4.03
   5   9 -15   15.41    5.01
  -5  -9 -15   12.74    4.54
   5  -9 -15   16.61    6.29
  -5  -9 -15   10.21    3.81
  -5  -9  15   27.77    7.94
  -5   9 -16    9.80    6.63
   5   9 -16    2.57    3.79
  -5  -9 -16    5.51    3.58
   5  -9 -16    3.85    3.31
  -5  -9 -16    8.89    3.23
  -5  -9  16    1.66    4.43
  -5   9 -17   20.60    7.05
   5   9 -17    1.45    2.68
  -5  -9 -17   10.54    4.74
   5  -9 -17   13.27    6.06
  -5  -9 -17    7.39    3.82
  -5  -9  17    7.16    6.44
  -5  10   0   23.21    6.27
  -5 -10   0   18.35    4.59
  -5 -10   0   26.56    6.50
  -5 -10   0   29.85   10.58
   5 -10   0   23.35    7.98
   5 -10   0   18.52    4.52
  -5 -10   0   22.65    5.80
   5  10  -1  150.56   11.15
  -5  10   1  143.47   27.26
  -5  10  -1  166.29   21.06
  -5 -10  -1  131.29    9.74
  -5 -10   1  128.08    8.36
  -5 -10  -1  153.02   12.25
  -5 -10  -1  171.97   28.65
  -5 -10   1  173.09   26.89
   5 -10  -1  156.21   17.40
   5 -10   1  176.99   27.22
  -5 -10  -1  144.94   18.31
  -5 -10   1  163.92   11.78
   5 -10   1  162.62    4.13
  -5  10   2   42.53    8.58
   5  10  -2   29.15    8.01
  -5  10  -2   57.39    9.40
  -5 -10  -2   23.89    4.57
  -5 -10   2   27.84    5.61
  -5 -10  -2   33.26    9.51
  -5 -10  -2   47.72   10.51
   5 -10  -2   43.06    6.57
   5 -10   2   28.99    7.84
  -5 -10  -2   27.20    4.90
  -5 -10   2   43.24    9.36
   5 -10   2   35.52    3.56
  -5  10   3  214.65   31.97
   5  10  -3  243.21   14.18
  -5  10  -3  245.79   36.56
  -5 -10  -3  226.55   17.22
  -5 -10  -3  234.28   32.81
  -5 -10   3  219.69   15.65
   5 -10  -3  201.56   38.03
  -5 -10   3  201.87   33.90
   5 -10   3  228.25   14.59
  -5  10   4   60.20    9.52
  -5  10  -4   52.08    7.94
   5  10  -4   52.27   12.29
  -5 -10  -4   50.76   11.09
  -5 -10  -4   60.42   15.12
  -5 -10   4   77.68   14.99
   5 -10  -4   63.55   18.21
  -5 -10   4   55.81   14.56
   5 -10   4   52.77   13.65
  -5  10  -5  107.98   14.46
   5  10  -5  109.13   14.13
  -5 -10  -5   92.66   16.47
   5 -10  -5  114.95   21.22
  -5 -10  -5  132.41   19.72
  -5 -10   5  103.29   18.57
   5 -10  -5  101.82   22.00
  -5 -10   5   86.71   17.09
   5 -10   5   97.93    9.88
  -5  10  -6   64.10    9.64
   5  10  -6   56.29   13.53
  -5 -10  -6   65.28   15.49
   5 -10  -6   61.64   14.61
  -5 -10  -6   94.78   16.33
  -5 -10   6   68.02   12.69
   5 -10  -6   76.47   14.28
  -5 -10   6   68.74   10.51
   5 -10   6   68.50   14.03
  -5  10  -7   70.34   11.57
   5  10  -7   63.28   15.79
  -5 -10  -7   57.98   14.27
   5 -10  -7   86.20   14.45
  -5 -10  -7   78.10   17.31
  -5 -10   7   65.10   11.04
   5 -10  -7   70.10   18.04
  -5 -10   7   74.64   14.47
   5 -10   7   84.21   12.51
  -5  10  -8   47.05   14.20
   5  10  -8   61.12    9.36
  -5 -10  -8   42.49    9.40
   5 -10  -8   74.88   12.66
  -5 -10  -8   67.77   17.76
   5 -10  -8   58.96   13.66
  -5 -10   8   66.99   12.43
   5 -10   8   66.79   16.09
  -5  10  -9   99.25   16.38
   5  10  -9   76.42   13.24
  -5 -10  -9   92.57   16.20
   5 -10  -9   87.53   13.56
  -5 -10  -9  102.84   22.04
   5 -10  -9   77.43    9.74
  -5 -10   9   90.22   17.60
   5 -10   9   91.42   22.26
  -5  10 -10   54.92   11.15
   5  10 -10   27.71    8.78
   5 -10 -10   46.61   18.30
  -5 -10 -10   43.13    9.32
   5 -10 -10   34.34    9.17
  -5 -10  10   33.11   10.34
  -5 -10  10   54.59   11.02
   5 -10  10   41.35   12.09
  -5  10 -11   94.62   30.52
   5  10 -11   79.86   15.05
  -5 -10 -11   58.87   16.18
   5 -10 -11   73.99   27.24
  -5 -10 -11   96.88   32.86
   5 -10 -11  112.17   13.75
  -5 -10  11   76.73   24.21
  -5 -10  11  107.28   18.88
   5 -10  11  105.60   21.09
  -5  10 -12    8.87    3.97
   5  10 -12    7.88    4.42
  -5 -10 -12    3.89    2.94
   5 -10 -12    5.92    5.98
  -5 -10 -12    5.87    3.27
   5 -10 -12    5.89    3.61
  -5 -10  12    2.88    2.92
  -5 -10  12    4.01    3.91
   5 -10  12    9.52    4.21
  -5  10 -13   40.22   10.72
   5  10 -13   12.92    7.50
  -5 -10 -13   20.95    5.40
   5 -10 -13   24.16    9.06
  -5 -10 -13   30.04   11.17
   5 -10 -13   18.61    8.10
  -5 -10  13   14.64    6.80
   5 -10  13   34.50   10.21
  -5  10 -14   11.85    5.83
   5  10 -14    5.23    3.16
  -5 -10 -14   11.93    5.24
   5 -10 -14   19.71    7.01
  -5 -10 -14   17.08    5.58
   5 -10 -14   10.05    5.63
  -5 -10  14    9.79    8.25
   5 -10  14   14.71    5.28
  -5  10 -15   11.59    4.78
   5  10 -15   20.56    7.87
  -5 -10 -15   11.98    3.83
   5 -10 -15   26.03    9.30
  -5 -10 -15   12.80    6.05
  -5 -10  15   11.95    5.85
   5 -10  15   11.69    6.14
  -5  10 -16   17.01    7.71
  -5 -10 -16   14.12    5.76
   5 -10 -16   12.00    6.83
  -5 -10 -16   20.44    6.45
  -5 -10  16   26.35    9.10
   5 -10  16   21.68    8.23
  -5  11   0  162.13   23.17
  -5 -11   0  147.29    6.25
  -5 -11   0  152.31   30.03
   5 -11   0  144.54   21.54
   5 -11   0  161.72    3.23
  -5 -11   0  157.05   11.04
   5  11  -1   17.90    4.07
  -5  11   1   21.16    6.75
  -5  11  -1    9.97    3.48
  -5 -11  -1   14.88    3.91
  -5 -11  -1   17.95    8.76
  -5 -11   1   32.90    8.43
   5 -11  -1   31.09    7.97
   5 -11   1   18.07    5.27
  -5 -11  -1   21.30    6.68
  -5 -11   1   28.56    6.21
   5 -11   1   16.58    3.40
  -5  11   2  211.37   33.87
   5  11  -2  192.32    6.27
  -5  11  -2  203.70   34.82
  -5 -11  -2  188.48    6.00
  -5 -11  -2  186.87   23.18
   5 -11  -2  213.92   41.75
   5 -11   2  209.01   31.58
  -5 -11  -2  210.32   30.39
  -5 -11   2  206.42   23.49
   5 -11   2  182.74    5.12
  -5  11   3    8.92    3.00
   5  11  -3   11.39    2.75
  -5  11  -3   11.54    3.56
  -5 -11  -3   11.88    2.84
  -5 -11  -3    8.99    4.40
  -5 -11   3   15.38    7.10
   5 -11  -3   13.36    7.26
   5 -11   3   16.41    7.79
  -5 -11   3    3.32    2.85
   5 -11   3    8.14    3.88
  -5  11   4   56.87   12.79
   5  11  -4   60.97    6.04
  -5  11  -4   45.48    7.37
  -5 -11  -4   45.15   11.71
  -5 -11  -4   73.42   18.70
  -5 -11   4   60.19   12.75
   5 -11  -4   58.64   13.73
   5 -11   4   43.58    9.08
  -5 -11   4   63.37   18.24
   5 -11   4   45.64   10.59
  -5  11  -5    4.15    2.04
   5  11  -5    3.29    1.88
  -5 -11  -5    2.96    3.09
   5 -11  -5    3.21    4.17
  -5 -11  -5    2.74    3.91
  -5 -11   5    0.29    3.69
   5 -11  -5    0.05    3.93
  -5 -11   5    1.81    3.11
   5 -11   5    1.35    2.49
  -5  11  -6   36.34    9.20
   5  11  -6   28.59    7.26
  -5 -11  -6   26.57    7.62
   5 -11  -6   38.69   12.78
  -5 -11  -6   38.35   11.45
  -5 -11   6   40.08   11.23
   5 -11  -6   23.05    4.98
  -5 -11   6   40.00   10.18
   5 -11   6   20.67    7.16
  -5  11  -7   33.54    7.89
   5  11  -7   21.32    5.85
  -5 -11  -7   23.81    5.11
   5 -11  -7   39.56   11.99
  -5 -11  -7   24.67    7.72
  -5 -11   7   27.64    9.40
   5 -11  -7   19.30    8.37
  -5 -11   7   31.70    6.92
   5 -11   7   26.60    5.69
  -5  11  -8   22.52    5.95
   5  11  -8   18.83    4.84
  -5 -11  -8   16.94    6.94
   5 -11  -8   23.92    8.14
  -5 -11  -8   22.34    9.21
  -5 -11   8   23.40    5.36
   5 -11  -8   22.55    8.64
  -5 -11   8   19.49    5.20
   5 -11   8   19.36    5.21
  -5  11  -9    9.08    5.68
   5  11  -9    3.50    2.91
  -5 -11  -9    3.91    2.17
   5 -11  -9    5.84    2.81
  -5 -11  -9    7.61    5.46
   5 -11  -9    9.27    5.44
  -5 -11   9    5.61    2.86
  -5 -11   9    0.58    2.10
   5 -11   9    8.07    6.21
  -5  11 -10   88.79   22.27
   5  11 -10   58.81   14.75
   5 -11 -10   92.11   20.45
  -5 -11 -10   92.28   21.37
   5 -11 -10   68.85   15.49
  -5 -11  10   79.34   13.95
   5 -11  10   91.53   21.02
  -5  11 -11    9.99    4.44
   5  11 -11    7.49    3.62
   5 -11 -11    6.40    4.33
  -5 -11 -11   17.20    4.71
   5 -11 -11    8.55    6.00
  -5 -11  11    9.32    4.02
  -5 -11  11    8.62    3.33
  -5  11 -12   55.14   12.12
   5  11 -12   32.21   13.62
  -5 -11 -12   37.64    9.23
   5 -11 -12   49.08   10.20
  -5 -11 -12   47.46   12.47
   5 -11 -12   27.00   10.48
  -5 -11  12   34.20   11.98
  -5 -11  12   38.07   13.92
   5 -11  12   61.65   14.53
  -5  11 -13    4.36    3.84
   5  11 -13    5.44    2.57
  -5 -11 -13    7.26    3.87
   5 -11 -13    7.64    4.70
  -5 -11 -13   11.16    5.12
   5 -11 -13    4.35    3.58
  -5 -11  13    4.86    3.63
   5 -11  13    7.08    5.14
  -5  11 -14   19.26    5.18
   5  11 -14   19.41    4.89
  -5 -11 -14   17.87    7.99
   5 -11 -14   12.68    8.20
  -5 -11 -14   23.15   15.67
   5 -11 -14    6.40    4.41
  -5 -11  14   24.37    8.03
   5 -11  14   33.61    8.38
  -5  11 -15    5.77    4.01
   5  11 -15   -0.77    2.87
  -5 -11 -15    3.71    2.16
   5 -11 -15    7.08    5.70
  -5 -11 -15    3.41    2.54
  -5 -11  15    5.66    4.36
   5 -11  15    4.46    4.92
  -5  12   0    7.87    3.51
  -5 -12   0    3.98    1.95
  -5 -12   0    2.84    3.07
   5 -12   0   15.97    6.72
  -5 -12   0    2.18    2.96
   5  12  -1   11.31    3.66
  -5  12   1   14.94    4.92
  -5  12  -1   17.05    4.66
  -5 -12  -1   12.86    3.36
  -5 -12  -1    4.65    3.80
  -5 -12   1   30.22    7.52
   5 -12  -1   25.86    7.86
   5 -12   1   34.03    9.62
  -5 -12  -1   24.32    5.26
  -5 -12   1   14.78    4.25
   5 -12   1    8.55    2.37
  -5  12   2   31.73    6.13
   5  12  -2   23.80    5.58
  -5  12  -2   24.82    7.00
  -5 -12  -2   26.13    6.34
  -5 -12  -2   36.99    7.67
  -5 -12   2   32.97    8.19
   5 -12  -2   38.41    9.69
   5 -12   2   41.70   10.94
  -5 -12  -2   25.93    5.27
  -5 -12   2   35.91    8.49
   5 -12   2   26.14    7.08
  -5  12   3   27.32    7.39
   5  12  -3   26.07    6.05
  -5  12  -3    7.42    5.28
  -5 -12  -3   16.86    7.08
  -5 -12  -3   30.00    7.20
  -5 -12   3   18.90    5.54
   5 -12  -3   16.43    5.14
   5 -12   3   27.76    9.81
  -5 -12   3   11.94    4.11
   5 -12   3   14.69    4.59
  -5  12   4   17.87    4.43
   5  12  -4   15.87    6.11
  -5  12  -4   29.17    8.56
  -5 -12  -4   20.16    5.36
  -5 -12  -4   15.64    5.93
  -5 -12   4   22.92    5.41
   5 -12  -4   14.32    7.04
   5 -12   4   25.14    6.95
  -5 -12   4   15.87    9.29
   5 -12   4    9.47    5.68
   5  12  -5   98.10    9.72
  -5  12  -5  102.31   12.99
  -5 -12  -5   87.49   15.49
   5 -12  -5   88.02   19.04
  -5 -12  -5   95.10   15.29
  -5 -12   5  108.45   27.27
   5 -12  -5  109.53   15.00
   5 -12   5   95.89   24.44
  -5 -12   5  100.83   17.82
   5 -12   5   96.35   11.20
  -5  12  -6   20.39    6.50
   5  12  -6   22.37    6.74
  -5 -12  -6   11.60    3.67
   5 -12  -6   19.26    6.71
  -5 -12  -6   22.61    5.93
  -5 -12   6   18.37    5.59
   5 -12  -6   19.29   10.04
   5 -12   6   20.88    9.01
  -5 -12   6   26.75    6.88
   5 -12   6   13.11    4.14
  -5  12  -7   84.68   13.37
   5  12  -7   91.38   13.46
  -5 -12  -7   73.07   19.74
   5 -12  -7   90.18   20.40
  -5 -12  -7   89.94   21.11
  -5 -12   7   79.05   13.08
   5 -12  -7   89.97   28.12
   5 -12   7   93.71   28.89
  -5 -12   7   89.64   19.72
   5 -12   7   89.73   14.06
  -5  12  -8   27.13    7.92
   5  12  -8   23.52    8.45
  -5 -12  -8   18.65    6.54
   5 -12  -8   25.96    7.97
  -5 -12  -8   29.28    8.52
  -5 -12   8   20.11    6.92
   5 -12  -8   25.05   11.19
  -5 -12   8   32.68    5.66
   5 -12   8   29.10    8.33
  -5  12  -9    5.19    2.86
   5  12  -9    3.68    2.91
  -5 -12  -9    0.88    2.92
   5 -12  -9    7.30    8.37
  -5 -12  -9    7.15    3.62
   5 -12  -9   14.04    6.44
  -5 -12   9   14.49    4.07
  -5 -12   9   14.86    6.05
   5 -12   9    8.57    4.56
  -5  12 -10    5.07    3.14
   5  12 -10    6.69    3.09
  -5 -12 -10   21.92   12.53
   5 -12 -10   10.17    3.87
  -5 -12 -10    7.51    3.97
   5 -12 -10    3.54    4.99
  -5 -12  10    7.90    4.82
   5 -12  10   11.82    5.15
  -5  12 -11   21.02    6.11
   5  12 -11   23.57    5.45
   5 -12 -11   19.54   10.20
  -5 -12 -11   18.77    6.45
   5 -12 -11   10.87    5.24
  -5 -12  11   12.43    5.59
  -5 -12  11   15.53    4.08
   5 -12  11   11.62    3.48
  -5  12 -12    9.32    4.20
   5  12 -12    5.89    3.50
   5 -12 -12   12.44    5.25
  -5 -12 -12    7.01    5.14
   5 -12 -12   10.03    3.43
  -5 -12  12    8.23    5.29
   5 -12  12    6.76    7.11
  -5  12 -13    5.10    5.28
   5  12 -13    8.08    3.48
  -5 -12 -13    3.97    2.65
   5 -12 -13   16.78    4.42
  -5 -12 -13   18.17    7.90
   5 -12 -13    5.44    4.46
  -5 -12  13    7.69    3.70
   5 -12  13    8.87    7.70
  -5  12 -14    5.03    4.46
   5  12 -14    3.30    4.27
  -5 -12 -14    6.04    2.71
   5 -12 -14    4.43    4.08
  -5 -12 -14    8.50    3.75
   5 -12 -14    3.84    3.33
  -5  13   0    9.71    3.00
  -5 -13   0   11.49    3.70
  -5 -13   0   17.55    6.98
   5 -13   0   28.30    6.92
  -5 -13   0   25.16    6.43
   5  13  -1   14.28    4.08
  -5  13   1   22.76    5.21
  -5  13  -1   22.86    7.40
  -5 -13  -1   15.20    4.36
  -5 -13  -1   36.71   10.73
  -5 -13   1   12.82    5.40
   5 -13  -1   14.12    6.26
   5 -13   1   13.60    4.88
  -5 -13  -1   19.26    5.26
  -5 -13   1   12.59    4.87
  -5  13   2   13.55    5.62
   5  13  -2    9.99    4.01
  -5  13  -2   19.23    5.31
  -5 -13  -2   13.49    4.87
  -5 -13  -2   20.68    8.18
  -5 -13   2   11.64    7.81
   5 -13  -2   18.46    5.72
   5 -13   2   18.37    8.78
  -5 -13  -2   19.65    5.16
  -5 -13   2   16.21    5.95
  -5  13   3    9.08    3.10
   5  13  -3    8.14    3.65
  -5  13  -3   18.55    6.67
  -5 -13  -3   10.00    4.00
  -5 -13  -3    6.56    3.71
  -5 -13   3   25.06    7.07
   5 -13  -3   26.67    7.14
   5 -13   3    4.71    4.75
  -5 -13   3   10.80    4.83
   5 -13   3   10.68    2.83
  -5  13   4   46.36   10.44
   5  13  -4   24.73    9.72
  -5  13  -4   28.81    8.84
  -5 -13  -4   34.52    7.90
  -5 -13  -4   40.02   14.33
  -5 -13   4   34.21   10.99
   5 -13  -4   57.07   12.45
   5 -13   4   22.83    8.30
  -5 -13   4   40.62   11.98
   5 -13   4   20.88    6.53
   5  13  -5    5.93    1.82
  -5  13  -5    9.81    6.21
  -5 -13  -5    7.44    2.35
   5 -13  -5   19.86    6.11
  -5 -13  -5   11.08    4.40
  -5 -13   5   14.79    6.71
   5 -13  -5    4.87    6.03
   5 -13   5   14.15    5.84
  -5 -13   5   14.12    4.91
   5 -13   5    6.53    2.15
  -5  13  -6   24.89    7.02
   5  13  -6    9.25    3.38
  -5 -13  -6    8.49    3.35
   5 -13  -6   19.60    7.68
  -5 -13  -6   22.04    7.98
  -5 -13   6    9.44    4.45
   5 -13  -6   12.05    5.16
   5 -13   6   15.00    8.02
  -5 -13   6   15.96    6.02
   5 -13   6    5.90    2.25
  -5  13  -7   12.52    5.51
   5  13  -7   11.77    2.98
  -5 -13  -7   10.43    3.19
   5 -13  -7    6.13    4.98
  -5 -13  -7    6.61    5.34
  -5 -13   7    6.44    5.53
   5 -13  -7    8.49    6.80
   5 -13   7   10.20    5.29
  -5 -13   7    6.96    4.13
   5 -13   7    3.60    2.05
  -5  13  -8   58.26   20.04
   5  13  -8   48.96   14.65
  -5 -13  -8   54.35   12.50
   5 -13  -8   53.64   17.87
  -5 -13  -8   45.67   15.91
  -5 -13   8   64.13   14.30
   5 -13  -8   64.97   16.19
   5 -13   8   88.56   18.46
  -5 -13   8   58.27   16.75
   5 -13   8   57.44   13.97
   5  13  -9    5.14    2.77
  -5 -13  -9   12.87    4.54
   5 -13  -9   15.22    4.84
  -5 -13  -9    7.55    4.82
   5 -13  -9    8.65    4.20
  -5 -13   9   10.31    3.88
   5 -13   9    6.15    6.74
  -5 -13   9   18.77    8.15
   5 -13   9   19.51    4.34
  -5  13 -10    3.75    2.33
   5  13 -10    5.12    2.80
  -5 -13 -10    6.17    4.03
   5 -13 -10   21.48    7.97
  -5 -13 -10    8.34    7.82
   5 -13 -10   14.01    4.33
  -5 -13  10    7.61    4.77
   5 -13  10   19.02    9.73
  -5 -13  10    2.44    3.11
   5 -13  10    6.93    2.89
  -5  13 -11    9.59    5.77
   5  13 -11    3.52    2.54
  -5 -13 -11   11.22    6.58
   5 -13 -11    4.17    5.24
  -5 -13 -11    2.38    5.98
   5 -13 -11   10.00    4.81
   5 -13  11    9.14    6.08
  -5 -13  11   10.25    4.74
   5 -13  11    4.68    2.92
  -5  13 -12    9.18    5.37
   5  13 -12    2.83    1.59
   5 -13 -12   12.42    5.41
  -5 -13 -12    4.70    3.18
   5 -13 -12    1.83    2.20
   5 -13  12   -4.00    6.97
  -5 -13  12    8.45    5.13
   5 -13  12    9.81    5.23
   5  13 -13   12.49    5.24
   5 -13 -13   18.24    8.77
  -5 -13 -13   20.07    7.48
   5 -13 -13   15.52    6.54
   5 -13  13   12.31    8.19
  -5 -13  13   20.17   11.37
   5 -13  13   18.07    8.58
  -5  14   0  101.77   28.14
  -5 -14   0  104.50   20.39
   5 -14   0  106.96   26.97
  -5 -14   0   97.17   15.45
  -5  14   1   25.36    7.99
  -5  14  -1   48.37   12.30
  -5 -14  -1   23.57    9.92
  -5 -14   1   37.27    9.57
   5 -14  -1   34.19   11.62
   5 -14   1   29.84    5.79
  -5 -14  -1   30.35    7.12
  -5 -14   1   19.88    4.17
  -5  14   2   11.30    3.57
  -5  14  -2   15.38    6.00
  -5 -14  -2    3.71    2.53
  -5 -14   2    2.47    2.95
   5 -14  -2   13.53    8.05
   5 -14   2    3.48    3.82
  -5 -14  -2   11.34    5.28
  -5 -14   2   11.46    3.45
  -5  14   3   10.69    3.88
  -5  14  -3   19.37    7.96
  -5 -14  -3   16.44    5.35
  -5 -14   3   25.57    7.53
   5 -14  -3   29.75   10.60
   5 -14   3   13.58    9.15
  -5 -14   3   16.09    5.47
  -5  14   4   35.89   12.64
  -5  14  -4   41.54   12.87
  -5 -14  -4   24.28    8.51
  -5 -14   4   35.88   13.67
   5 -14  -4   26.27    7.68
   5 -14   4   49.68   10.10
  -5 -14   4   46.20   10.48
  -5  14  -5   51.19   13.50
   5 -14  -5   45.59   15.20
  -5 -14  -5   49.37   21.34
  -5 -14   5   40.37   16.94
   5 -14  -5   51.53   14.95
   5 -14   5   60.04   22.63
  -5 -14   5   40.41   11.52
  -5  14  -6    7.85    5.88
   5 -14  -6    5.96    4.29
  -5 -14  -6    8.00    4.00
  -5 -14   6    9.57    3.38
   5 -14  -6    5.34    2.95
   5 -14   6    6.61    6.75
  -5 -14   6   -0.19    2.51
   5 -14   6    0.56    1.63
  -5  14  -7   23.45    6.53
   5 -14  -7   16.23    5.02
  -5 -14  -7   21.30    8.51
  -5 -14   7   26.30   10.76
   5 -14  -7   19.62    6.25
   5 -14   7   31.26    7.96
  -5 -14   7   25.86    7.60
   5 -14   7   14.46    6.86
  -5  14  -8   14.22    6.68
   5 -14  -8   24.99   10.54
  -5 -14  -8   19.80   10.53
  -5 -14   8   20.28    6.07
   5 -14  -8   20.04    6.35
   5 -14   8   15.64    9.17
  -5 -14   8   17.21   10.42
   5 -14   8   11.37    8.34
  -5  14  -9   -0.19    3.79
   5 -14  -9    5.93    2.68
  -5 -14  -9    5.72    3.37
  -5 -14   9    3.26    4.16
   5 -14  -9    7.57    4.41
   5 -14   9   16.26    4.68
  -5 -14   9    3.41    5.48
   5 -14   9    1.65    2.97
  -5  14 -10   16.93    5.00
   5 -14 -10   -0.99    5.01
  -5 -14 -10    4.59    3.30
   5 -14 -10    1.03    4.96
  -5 -14  10   10.05    3.96
   5 -14  10   -0.37    7.48
  -5 -14  10   10.37    3.52
   5 -14  10    7.98    3.35
  -5  14 -11   27.43   10.36
   5 -14 -11   21.30    7.63
  -5 -14 -11   12.50    5.88
  -5 -14  11   17.77    8.08
   5 -14  11    8.38    8.20
  -5 -14  11   15.55    7.50
   5 -14  11   15.25    5.34
  -5  14 -12   22.49    8.10
   5 -14 -12   28.76    8.24
  -5 -14 -12   30.27    6.24
   5 -14 -12   15.63   11.10
   5 -14  12   24.07    8.23
  -5 -14  12   10.18    6.65
   5 -14  12   15.36    8.36
  -5  15   0   10.41    4.86
  -5 -15   0    6.49    6.08
   5 -15   0   14.23    4.51
  -5 -15   0    3.57    3.21
  -5  15   1   42.35   11.62
  -5  15  -1   37.99   10.53
  -5 -15  -1   26.02    9.60
  -5 -15   1   52.55   13.45
   5 -15  -1   53.65   14.05
   5 -15   1   25.05    7.74
  -5 -15  -1   32.87    8.31
  -5 -15   1   28.55   12.43
  -5  15   2    8.32    4.41
  -5  15  -2   28.27    6.44
  -5 -15  -2   21.43    7.29
  -5 -15   2   14.24    7.28
   5 -15  -2   30.57    9.37
   5 -15   2   12.63    6.61
  -5 -15   2   26.78    8.49
  -5  15   3   43.12   13.57
  -5  15  -3   37.04    8.18
  -5 -15  -3   39.95   13.48
  -5 -15   3   28.87   14.90
   5 -15  -3   43.00   15.60
   5 -15   3   47.33   12.14
  -5 -15   3   37.58   12.30
  -5  15   4    5.70    5.06
  -5  15  -4    4.92    3.60
  -5 -15  -4   10.37    7.19
  -5 -15   4    2.33    3.75
   5 -15  -4   15.77    9.77
   5 -15   4   10.26    8.60
  -5 -15   4    6.54    3.27
  -5  15  -5    7.17    4.58
   5 -15  -5    9.98    4.04
  -5 -15  -5    5.76    4.08
  -5 -15   5    6.57    4.86
   5 -15  -5    7.21    3.64
   5 -15   5    8.45    7.81
  -5 -15   5    6.74    3.39
  -5  15  -6    6.30    3.22
   5 -15  -6    3.63    2.22
  -5 -15  -6    1.52    4.62
  -5 -15   6    5.57    7.25
   5 -15  -6    5.59    4.84
   5 -15   6    5.42    4.21
  -5 -15   6    2.33    2.23
  -5  15  -7   10.25    3.34
   5 -15  -7    7.69    4.40
  -5 -15  -7    8.96    4.59
  -5 -15   7    3.87    2.92
   5 -15  -7    1.03    5.54
   5 -15   7    5.99    6.65
  -5 -15   7    1.78    1.46
  -5  15  -8    2.01    4.16
   5 -15  -8    1.65    3.06
  -5 -15  -8   -0.59    4.76
  -5 -15   8   12.77    7.50
   5 -15  -8    7.27    5.15
   5 -15   8    0.89    4.74
  -5 -15   8    0.66    2.36
  -5  15  -9    7.15    6.62
   5 -15  -9    9.47    6.20
  -5 -15  -9   15.82    5.41
  -5 -15   9   10.12    5.21
   5 -15  -9   13.41    4.26
   5 -15   9   14.36    9.63
  -5 -15   9    7.01    5.13
  -5  15 -10    6.46    2.96
   5 -15 -10   12.63    5.03
  -5 -15 -10   11.85    6.47
  -5 -15  10    6.29    4.44
   5 -15  10   17.65    5.43
  -5 -15  10   10.19    4.20
  -5  16   0    3.86    2.29
  -5 -16   0    6.11    3.64
   5 -16   0   10.43    7.39
  -5 -16   0    3.38    2.00
  -5  16   1   11.80    6.20
  -5  16  -1   18.83    5.97
  -5 -16  -1   19.68    8.34
  -5 -16   1   24.00    9.79
   5 -16  -1   13.94    7.47
   5 -16   1    5.83    6.48
  -5 -16  -1    7.43    1.78
  -5 -16   1   15.39    3.75
  -5  16   2    9.04    4.24
  -5  16  -2    5.50    3.63
  -5 -16  -2    9.97    4.81
  -5 -16   2    7.88    3.53
   5 -16  -2   18.54    6.36
   5 -16   2   10.06    9.11
  -5 -16   2    6.78    4.25
  -5  16   3    7.45    3.76
  -5  16  -3    6.06    4.17
  -5 -16  -3   10.60    7.13
  -5 -16   3    7.72    4.08
   5 -16  -3    8.37    4.78
   5 -16   3    9.62    7.05
  -5 -16   3    2.08    1.76
  -5  16  -4    5.49    2.51
  -5 -16  -4    8.27    6.33
  -5 -16   4    7.77    4.34
   5 -16  -4    5.96    3.27
   5 -16   4    7.54    5.69
  -5 -16   4   -1.68    3.03
  -5  16  -5    7.63    4.26
   5 -16  -5   16.82    9.58
  -5 -16  -5    9.94    3.43
  -5 -16   5   10.21    6.24
   5 -16  -5   30.78    8.42
   5 -16   5   16.41    5.46
  -5 -16   5   19.83    6.44
  -5  16  -6   46.58   19.50
   5 -16  -6   37.33   18.57
  -5 -16  -6   53.85   19.72
  -5 -16   6   52.07   13.26
   5 -16  -6   53.45   18.97
   5 -16   6   74.84   20.44
  -5 -16   6   45.67   16.92
  -5  16  -7   12.42    6.46
   5 -16  -7   17.98    5.24
  -5 -16  -7   19.35    5.68
  -5 -16   7   17.63    4.27
   5 -16  -7   14.98    5.53
   5 -16   7   11.56    5.73
  -5 -16   7    7.13    3.56
  -5  16  -8    6.89    3.91
   5 -16  -8    9.23    4.00
  -5 -16  -8   14.90    5.78
  -5 -16   8    7.52    3.91
   5 -16  -8    7.05    5.64
   5 -16   8    4.93    5.35
  -5 -16   8    7.52    4.26
  -5  17   0    7.02    2.67
  -5 -17   0   11.58    4.61
   5 -17   0   11.57    7.82
  -5 -17   0   -0.85    2.77
  -5  17   1    7.04    3.20
  -5  17  -1    5.19    5.20
  -5 -17  -1    0.00    4.65
  -5 -17   1    0.05    4.42
   5 -17  -1    8.72    4.55
   5 -17   1    6.02    5.45
  -5 -17   1    4.97    2.81
  -5  17   2    4.45    2.87
  -5  17  -2   12.25    5.03
  -5 -17  -2    8.27    5.37
  -5 -17   2    3.43    5.04
   5 -17  -2   -0.86    4.64
   5 -17   2    6.96    4.30
  -5 -17   2    0.05    3.39
  -5  17   3   37.47    9.22
  -5  17  -3   31.92    8.04
  -5 -17  -3   30.64    7.50
  -5 -17   3   40.21    9.09
   5 -17  -3   32.34    9.01
   5 -17   3   16.61    6.53
  -5 -17   3   14.57    6.09
  -5  17  -4    8.22    2.88
   5 -17  -4   14.52    7.77
  -5 -17  -4    6.32    3.57
  -5 -17   4   13.12    6.15
   5 -17  -4   13.73    6.65
   5 -17   4   14.09   11.31
  -5 -17   4    3.28    2.41
  -5  17  -5   15.93    9.07
   5 -17  -5   13.00    8.03
  -5 -17  -5   20.84   12.80
  -5 -17   5   11.20    6.03
   5 -17  -5   12.29    4.93
   5 -17   5   19.40    7.49
  -5 -17   5   16.84    7.48
  -5  17  -6    3.69    2.88
   5 -17  -6    6.39    2.36
  -5 -17  -6    3.72    3.93
  -5 -17   6   11.00    4.70
   5 -17  -6    6.12    8.04
   5 -17   6    4.34    6.99
  -5 -17   6    5.39    2.86
   6   0   0  708.73   31.68
  -6   0   0  741.38   34.25
  -6   0   0  696.76   32.41
   6   0  -1  177.72   12.11
   6   0   1  181.75   12.46
  -6   0   1  196.76   13.66
  -6   0  -1  217.49   15.03
  -6   0   1  207.94   14.29
   6   0  -2   49.14   10.43
   6   0   2   44.09    8.95
  -6   0   2   25.49    6.70
  -6   0  -2   78.17   15.00
   6   0  -2   60.11    8.75
  -6   0   2   66.97   14.00
   6   0  -3  660.02   30.27
  -6   0   3  650.91   29.12
  -6   0  -3  661.01   30.52
  -6   0   3  670.80   30.84
  -6   0  -4   47.23    7.67
   6   0  -4   48.14    8.77
  -6   0   4   35.96    5.34
  -6   0  -4   54.69    8.52
   6   0  -4   30.25    5.23
  -6   0   4   40.34    9.72
  -6   0  -5  246.30   15.35
   6   0  -5  255.92   19.53
  -6   0  -5  219.85   14.72
   6   0  -5  261.56   12.58
  -6   0   5  272.23   14.40
  -6   0  -6  467.78   23.43
   6   0  -6  545.48   45.64
  -6   0  -6  448.37   26.12
   6   0  -6  467.51   21.62
  -6   0   6  452.61   23.12
  -6   0  -7  456.76   28.62
   6   0  -7  486.41   30.43
  -6   0   7  465.79   31.51
  -6   0  -8   11.11    6.08
   6   0  -8   13.11    3.88
  -6   0  -8    2.46    2.70
  -6   0   8   12.28    4.17
  -6   0  -9  298.88   20.87
   6   0  -9  292.95   20.65
  -6   0  -9  306.47   29.09
  -6   0   9  348.73   23.30
  -6   0 -10   87.89   17.49
   6   0 -10   69.55   26.01
  -6   0 -10   71.75   11.41
  -6   0  10   65.28   13.46
  -6   0 -11    3.59    4.38
   6   0 -11   -3.69    5.48
  -6   0 -11    3.50    3.25
  -6   0  11    6.93    5.10
  -6   0 -12  195.36   25.25
   6   0 -12  166.87   36.94
  -6   0 -12  179.40   21.14
  -6   0  12  187.63   32.16
  -6   0 -13   39.17    6.75
   6   0 -13   20.78    7.21
  -6   0 -13   32.09    7.74
  -6   0  13   30.25    6.42
  -6   0 -14   47.40   10.33
   6   0 -14   30.82    7.77
  -6   0 -14   43.65   11.77
  -6   0  14   40.65    9.96
  -6   0 -15  195.93   23.69
   6   0 -15  191.17   21.88
  -6   0 -15  185.31   14.48
  -6   0  15  199.54   38.84
  -6   0 -16    7.33    3.92
   6   0 -16    5.77    5.96
  -6   0 -16    8.69    4.41
  -6   0  16    4.33    2.24
  -6   0 -17    6.75    5.29
   6   0 -17   18.52    8.05
  -6   0 -17    9.95    4.36
  -6   0  17    8.70    4.46
  -6   0 -18   30.31    7.94
   6   0 -18   29.79    7.29
  -6   0 -18   26.50    7.01
  -6   0  18   25.85    8.51
  -6   0 -19   22.09    8.29
   6   0 -19    7.12    6.39
  -6   0 -19   15.72    4.11
  -6   0  19   22.52    6.05
  -6  -1   0   33.61    8.16
  -6   1   0   32.33    9.27
   6   1   0   29.35    7.52
  -6   1   0   33.88    7.33
  -6  -1   0   37.90    6.53
  -6  -1   0   32.72    6.34
   6  -1   0   24.76    6.43
  -6  -1   1   37.03    8.19
  -6   1   1   27.01    5.23
  -6  -1  -1   27.65    5.87
  -6   1  -1   47.94   10.15
   6   1  -1   23.36    5.37
   6   1   1   25.48    5.74
  -6   1   1   28.51    6.78
  -6   1  -1   35.41    6.81
  -6  -1   1   34.40    8.74
  -6  -1  -1   31.45    6.84
  -6  -1   1   44.70    9.19
   6  -1  -1   27.11    5.24
  -6   1   2  140.21   10.13
   6   1  -2  114.69    8.08
  -6   1  -2  148.18   11.90
  -6  -1  -2  130.57    9.43
   6   1   2  137.85    9.60
   6   1  -2  138.37   10.54
  -6   1  -2  156.81   18.06
   6  -1  -2  160.83   11.09
  -6  -1  -2  132.33   11.49
   6   1  -2  128.11    8.99
  -6  -1   2  156.35   11.41
   6  -1  -2  140.50    9.81
   6   1  -3  140.05   10.76
  -6   1  -3  170.55   12.31
  -6  -1  -3  145.33   10.64
   6   1   3  150.49   10.45
   6   1  -3  176.72   18.60
   6  -1  -3  170.16   14.08
  -6   1  -3  158.44   12.05
  -6  -1   3  163.24   11.14
   6  -1  -3  163.80   11.17
  -6  -1  -3  152.62   16.79
  -6  -1   3  151.50   11.20
  -6   1  -4  205.45   14.39
   6   1  -4  218.77   15.35
   6  -1  -4  211.41   23.02
  -6   1  -4  218.82   20.47
  -6  -1   4  192.14   12.78
   6  -1  -4  187.40   12.56
  -6  -1  -4  195.37   14.07
   6   1  -4  199.07   13.20
  -6  -1   4  183.80   14.91
  -6   1  -5  160.10   10.89
   6   1  -5  141.13   14.96
   6  -1  -5  161.32   18.57
  -6  -1   5  148.83    9.09
  -6   1  -5  144.87   22.60
  -6  -1  -5  123.45   22.07
   6  -1  -5  150.43    9.34
   6   1  -5  141.49    8.50
  -6  -1   5  152.68   11.53
  -6   1  -6  443.91   22.59
  -6  -1  -6  453.02   24.48
   6   1  -6  485.47   24.71
   6  -1  -6  476.74   28.62
  -6   1  -6  415.23   21.39
  -6  -1  -6  425.25   21.83
   6  -1  -6  464.09   21.81
   6   1  -6  449.13   20.72
   6  -1  -6  437.60   20.53
  -6  -1   6  457.04   24.33
  -6   1   6  481.95   23.81
  -6   1  -7  158.68    7.56
  -6  -1  -7  180.97   12.69
   6   1  -7  186.09   21.92
   6  -1  -7  211.84   28.84
   6  -1  -7  174.21   10.41
  -6  -1   7  174.27   12.66
  -6   1   7  187.85   15.65
  -6   1  -8  231.91   22.20
  -6  -1  -8  165.96   28.66
   6   1  -8  168.26   27.42
   6  -1  -8  141.78   12.09
  -6   1  -8  157.79    9.08
  -6  -1  -8  160.88   21.12
  -6  -1   8  150.41   26.31
  -6   1   8  168.51   15.09
  -6   1  -9   67.43   14.54
  -6  -1  -9   59.67    8.27
   6   1  -9   64.52   12.81
   6  -1  -9   78.51   13.71
  -6   1  -9   48.44   13.33
  -6  -1  -9   64.22   11.57
  -6  -1   9   53.44   10.22
  -6   1   9   72.86   11.57
  -6   1 -10  150.41   23.08
  -6  -1 -10  122.39   20.25
   6   1 -10  141.25   26.72
   6  -1 -10  146.61   28.93
  -6   1 -10  118.12   18.50
  -6  -1 -10  151.31   18.55
  -6   1  10  154.13   13.66
  -6   1 -11   41.19    8.04
  -6  -1 -11   35.21    7.95
   6   1 -11   28.50    8.04
   6  -1 -11   38.85    7.35
  -6   1 -11   24.15    4.95
  -6  -1 -11   28.83    5.88
  -6   1  11   38.96    8.28
  -6   1 -12   27.46    6.71
  -6  -1 -12   13.20    5.68
   6   1 -12   23.16    5.96
   6  -1 -12   36.57    6.44
  -6   1 -12   21.92    6.30
  -6  -1 -12   19.57    4.73
  -6  -1  12   28.27    5.43
  -6   1  12   13.43    4.05
  -6   1 -13    8.98    4.83
  -6  -1 -13    5.51    3.08
   6   1 -13   11.75    7.87
   6  -1 -13    7.02    3.92
  -6   1 -13    0.07    3.86
  -6  -1 -13    6.18    2.52
  -6  -1  13    6.17    3.96
  -6   1  13    0.27    2.15
  -6   1 -14   48.94   14.21
  -6  -1 -14   59.61    8.50
   6   1 -14   58.88   16.59
   6  -1 -14   51.31   13.54
  -6   1 -14   57.71    8.69
  -6  -1 -14   54.71   13.31
  -6  -1  14   66.82   12.60
  -6   1  14   64.91   13.62
  -6   1 -15   22.77    5.86
  -6  -1 -15   14.77    7.40
   6   1 -15   22.57    6.50
   6  -1 -15   34.63    9.22
  -6   1 -15   20.75    3.41
  -6  -1 -15   22.46    8.25
  -6  -1  15   21.15    7.24
  -6   1  15   33.01    9.19
  -6   1 -16   34.43    7.98
  -6  -1 -16   34.47    9.71
   6   1 -16   46.44   12.34
   6  -1 -16   35.32    9.33
  -6   1 -16   31.13   10.47
  -6  -1 -16   37.55   10.86
  -6  -1  16   25.64    7.87
  -6   1  16   30.07   10.48
  -6   1 -17   11.60    7.34
  -6  -1 -17   15.21    5.37
   6   1 -17    9.04    3.76
   6  -1 -17    9.10    4.56
  -6   1 -17    4.01    3.26
  -6  -1 -17    2.50    1.89
  -6  -1  17    6.13    3.61
  -6   1  17    3.49    2.88
  -6   1 -18   10.32    4.71
  -6  -1 -18   26.58    8.00
   6   1 -18    8.76    6.31
   6  -1 -18   28.10    9.20
  -6   1 -18   13.09    5.96
  -6  -1 -18   21.41    5.15
  -6  -1  18   15.27    5.43
  -6   1  18   21.64    5.63
  -6   1 -19    7.04    3.83
  -6  -1 -19    4.87    3.89
   6   1 -19    3.49    7.22
   6  -1 -19   12.54    6.30
  -6   1 -19    7.14    3.28
  -6  -1 -19    7.31    2.83
  -6  -1  19    6.42    3.73
  -6   1  19    9.50    3.69
  -6  -2   0  490.99   21.86
  -6   2   0  479.44   22.51
   6   2   0  454.82   20.25
  -6   2   0  456.09   21.41
  -6  -2   0  454.79   21.26
  -6  -2   0  485.08   22.84
   6  -2   0  470.12   21.44
  -6   2   1  189.45   13.40
  -6  -2  -1  192.72   12.90
  -6   2  -1  183.73   16.10
   6   2  -1  180.69   12.04
   6   2   1  170.20   11.26
   6   2  -1  195.75   13.01
  -6   2  -1  172.80   13.01
  -6  -2   1  163.25   12.81
  -6  -2  -1  191.59   15.41
  -6   2   1  182.28   12.83
  -6  -2  -1  190.17   13.65
   6  -2   1  168.90   11.50
  -6  -2   1  152.51   13.24
   6  -2  -1  159.37   11.93
  -6   2   2  444.79   22.23
   6   2  -2  461.01   20.77
  -6   2  -2  423.28   20.29
  -6  -2  -2  447.57   20.52
   6   2   2  391.50   19.42
   6   2  -2  458.80   20.85
  -6   2  -2  404.99   19.53
  -6  -2  -2  423.50   20.20
   6   2  -2  442.95   20.54
  -6   2   2  453.06   20.68
  -6  -2   2  413.11   21.01
  -6   2   3  296.46   25.73
  -6   2  -3  320.24   17.58
  -6  -2  -3  274.34   18.38
   6   2   3  288.54   24.65
   6   2  -3  297.16   25.51
  -6   2  -3  291.53   25.37
   6  -2  -3  316.37   15.13
  -6  -2   3  309.28   14.63
  -6  -2  -3  261.23   19.70
  -6   2   3  283.60   19.58
  -6  -2   3  321.04   16.62
   6  -2  -3  306.83   14.46
   6   2  -4   57.45   12.31
  -6   2  -4  102.74   19.73
  -6  -2  -4   85.72    6.22
   6   2   4   70.24   13.44
   6   2  -4   92.81   10.38
   6  -2  -4  109.39   13.12
  -6   2  -4   90.34   15.79
   6  -2  -4   94.27    7.01
  -6  -2   4   82.84    6.18
  -6  -2  -4   83.61   12.91
   6   2  -4   78.54   10.81
  -6   2   4   87.31   10.89
  -6  -2   4  104.53    7.98
   6  -2  -4   76.59   13.78
  -6   2  -5    9.47    2.30
  -6  -2  -5    4.86    1.13
   6   2  -5    4.72    2.00
   6  -2  -5   11.13    3.49
  -6   2  -5    7.26    3.56
   6  -2  -5    8.22    2.88
  -6  -2   5    9.58    2.21
  -6  -2  -5    5.37    2.10
   6   2  -5    5.94    1.42
  -6  -2   5   15.98    4.21
  -6   2   5   11.08    3.14
  -6   2  -6  102.06   19.69
   6   2  -6  103.42   12.21
   6  -2  -6  118.42   17.72
  -6   2  -6  113.67   10.37
   6  -2  -6   91.39    8.60
  -6  -2   6   99.41    6.20
  -6  -2  -6  117.81   13.08
   6   2  -6   88.74    6.71
   6  -2  -6   89.11   11.93
  -6  -2   6  106.86   13.47
  -6   2   6   72.85    8.71
  -6   2  -7   54.32   10.40
  -6  -2  -7   63.36   10.42
   6   2  -7   48.80   11.04
   6  -2  -7   68.11   16.42
   6  -2  -7   47.98    4.26
   6  -2  -7   53.14    6.80
  -6  -2   7   54.07   15.28
  -6   2  -8   24.71    7.89
  -6  -2  -8   39.32    9.84
   6   2  -8   29.63    6.93
   6  -2  -8   28.67    5.65
  -6   2  -8   36.68    8.18
   6  -2  -8   22.62    4.74
  -6  -2  -8   32.50    7.68
   6  -2  -8   24.67    4.69
  -6  -2   8   45.47    8.74
  -6   2  -9  182.35   21.59
  -6  -2  -9  202.47   14.67
   6   2  -9  188.08   20.05
   6  -2  -9  213.34   28.35
  -6   2  -9  181.77   28.65
   6  -2  -9  181.64   11.10
  -6  -2  -9  169.01   19.82
   6  -2  -9  188.59   11.52
  -6  -2   9  203.75   32.39
  -6   2   9  184.55   13.28
  -6   2 -10   73.67   15.55
  -6  -2 -10   75.89   17.88
   6   2 -10   79.09   15.22
   6  -2 -10   85.60   13.80
  -6   2 -10   68.93   10.04
  -6  -2 -10   71.14   12.31
  -6  -2  10   75.90   16.77
  -6   2  10   76.73   14.73
  -6   2 -11  113.55   20.18
  -6  -2 -11  106.82   17.00
   6   2 -11  115.67   13.65
   6  -2 -11  111.47   18.63
  -6   2 -11  106.49   19.58
  -6  -2 -11  102.07   12.16
  -6  -2  11  104.57   22.40
  -6   2  11  116.41   24.15
  -6   2 -12   79.35   16.44
  -6  -2 -12   78.08   16.10
   6   2 -12   69.78   21.25
   6  -2 -12   89.25   13.74
  -6   2 -12   63.97    6.60
  -6  -2 -12   72.41   14.16
  -6  -2  12   86.08   20.48
  -6   2  12   77.28   15.89
  -6   2 -13   14.62    4.09
  -6  -2 -13    8.17    5.49
   6   2 -13   16.18    6.47
   6  -2 -13   14.36    5.10
  -6   2 -13   16.34    4.27
  -6  -2 -13   24.64    6.68
  -6  -2  13   25.29   13.09
  -6   2  13   19.18    5.87
  -6   2 -14   41.35   11.66
  -6  -2 -14   17.60    7.00
   6   2 -14   35.77    6.80
   6  -2 -14   19.49    7.48
  -6   2 -14   31.83    5.55
  -6  -2 -14   19.24    6.36
  -6  -2  14   28.41    6.65
  -6   2  14   25.51   10.33
  -6   2 -15   44.33    9.04
  -6  -2 -15   34.36    7.94
   6   2 -15   23.49   10.54
   6  -2 -15   31.63    9.21
  -6   2 -15   44.71    8.68
  -6  -2 -15   28.99    5.64
  -6  -2  15   33.38    7.95
  -6   2  15   38.87    9.05
  -6   2 -16   12.39    3.71
  -6  -2 -16   16.80    6.01
   6   2 -16   17.98    7.53
   6  -2 -16   23.71    8.22
  -6   2 -16   16.45    4.41
  -6  -2 -16   19.18    6.23
  -6  -2  16   19.21    5.80
  -6   2  16   14.37    3.83
  -6   2 -17    5.48    4.26
  -6  -2 -17   14.61    6.08
   6   2 -17   11.61    5.76
   6  -2 -17   16.10    5.98
  -6   2 -17    4.97    3.15
  -6  -2 -17    6.50    2.96
  -6  -2  17    9.46    2.93
  -6   2  17    5.94    4.06
  -6   2 -18   18.13    6.09
  -6  -2 -18   25.06    8.15
   6   2 -18    8.26    5.80
   6  -2 -18    8.54    8.28
  -6   2 -18    8.10    4.06
  -6  -2 -18   12.56    3.57
  -6  -2  18    7.08    4.06
  -6   2  18   10.88    4.65
  -6   2 -19   11.61    5.86
  -6  -2 -19   19.37    6.56
   6   2 -19    8.51    4.97
   6  -2 -19   14.31    5.69
  -6  -2 -19   11.69    4.51
  -6  -2  19    7.28    4.50
  -6   2  19    6.59    3.01
  -6   3   0  563.16   26.35
   6   3   0  574.75   25.12
   6   3   0  563.25   24.64
  -6  -3   0  541.44   25.09
  -6  -3   0  559.22   26.32
   6  -3   0  545.73   24.99
  -6   3   1  108.60    8.59
  -6  -3  -1  101.95    8.81
  -6   3  -1  100.20    9.50
   6   3  -1  104.32    6.93
   6   3   1   98.32    9.26
   6   3  -1  107.61    7.23
  -6  -3  -1  114.52   15.93
  -6  -3   1  104.42   17.40
  -6  -3  -1  106.21   13.73
   6  -3   1   93.97    8.17
  -6  -3   1   97.87   10.05
   6  -3  -1  107.90    7.72
  -6   3   2  206.58   16.26
   6   3  -2  210.95   13.78
  -6   3  -2  249.10   17.51
  -6  -3  -2  218.65   14.32
   6   3   2  247.43   16.08
   6   3  -2  208.88   13.74
  -6  -3  -2  209.87   14.94
  -6   3   2  211.52   13.97
  -6  -3   2  242.17   17.02
   6  -3  -2  222.04   14.62
  -6   3   3  149.30   10.10
   6   3  -3  124.23    8.20
  -6   3  -3  149.02   11.24
  -6  -3  -3  135.25    8.29
   6   3   3  137.58    8.45
   6   3  -3  124.50    7.91
  -6   3  -3  152.84   16.73
  -6  -3  -3  167.50   24.64
  -6  -3   3  157.55   10.02
   6   3  -3  124.15    8.16
  -6   3   3  144.26    8.83
  -6  -3   3  164.04   11.05
   6  -3  -3  141.65    9.07
  -6   3  -4  462.59   23.30
  -6  -3  -4  406.58   19.66
   6   3   4  396.96   19.24
   6   3  -4  412.13   19.99
  -6  -3   4  375.05   18.16
   6  -3  -4  429.97   22.21
  -6   3  -4  430.38   22.75
  -6  -3  -4  417.13   21.37
  -6  -3   4  429.29   21.37
   6   3  -4  381.56   18.57
  -6   3   4  414.39   19.86
  -6  -3   4  421.26   21.63
  -6   3  -5  356.07   18.98
  -6  -3  -5  334.56   17.30
   6   3  -5  309.11   18.27
   6  -3  -5  354.50   29.25
  -6   3  -5  332.14   17.68
   6  -3  -5  295.83   15.96
  -6  -3  -5  322.00   17.38
  -6  -3   5  329.86   15.88
   6   3  -5  307.97   15.12
   6  -3  -5  318.86   17.04
  -6  -3   5  321.47   17.27
  -6   3   5  322.08   16.82
  -6   3  -6   11.54    4.22
  -6  -3  -6    3.77    1.44
   6   3  -6    7.28    3.16
   6  -3  -6   20.97    5.63
   6  -3  -6    8.61    2.38
  -6   3  -6   10.48    4.15
  -6  -3  -6    8.95    3.03
  -6  -3   6   10.06    1.96
   6   3  -6    3.30    1.82
   6  -3  -6   10.43    2.25
  -6  -3   6   10.00    2.58
  -6   3   6    6.88    1.89
  -6   3  -7  204.98   22.41
   6   3  -7  169.09   23.71
   6  -3  -7  175.37   25.23
   6  -3  -7  147.75    4.20
  -6   3  -7  185.44   29.27
  -6  -3   7  166.08    2.98
  -6  -3  -7  173.09   26.31
   6  -3  -7  154.18    5.28
  -6  -3   7  179.05   35.19
  -6   3   7  182.79   12.14
  -6   3  -8  102.75   20.02
  -6  -3  -8  102.48   16.80
   6   3  -8   97.21    9.73
   6  -3  -8  113.41   16.01
   6  -3  -8   83.31    4.71
  -6   3  -8   95.92   13.93
  -6  -3  -8  103.75   14.04
   6  -3  -8   84.79    7.51
  -6  -3   8   92.95   12.04
  -6   3   8  118.45   27.24
  -6   3  -9   78.82   17.39
  -6  -3  -9   76.88   15.97
   6   3  -9   70.65   11.99
   6  -3  -9   92.34   20.40
  -6   3  -9   66.84   11.15
  -6  -3  -9   75.04   13.55
   6  -3  -9   73.48    3.77
  -6  -3   9   94.38   20.71
  -6   3 -10    7.97    6.05
  -6  -3 -10   36.30    7.37
   6   3 -10   17.00    4.64
   6  -3 -10   35.96    8.78
  -6   3 -10   24.96    6.30
  -6  -3 -10   30.05    8.83
   6  -3 -10   15.26    4.50
  -6  -3  10   31.11    9.25
  -6   3 -11   60.66   18.80
  -6  -3 -11   71.13   16.99
   6   3 -11   55.12    6.94
   6  -3 -11   80.60   23.87
  -6   3 -11   68.62   15.57
  -6  -3 -11   53.81    9.24
   6  -3 -11   58.37    4.51
  -6  -3  11   66.33   15.08
  -6   3  11   57.73   13.61
  -6   3 -12   82.83   17.75
  -6  -3 -12  102.48   24.56
   6   3 -12   77.18   17.25
   6  -3 -12   91.38   15.66
  -6   3 -12   82.21   18.65
  -6  -3 -12   90.74   21.23
  -6  -3  12  115.33   19.38
  -6   3  12   80.98   13.35
  -6   3 -13   45.31    9.33
  -6  -3 -13   52.38   10.22
   6   3 -13   44.78    7.88
   6  -3 -13   66.06   13.29
  -6   3 -13   34.81    5.11
  -6  -3 -13   36.01    8.49
  -6  -3  13   47.38   12.22
  -6   3  13   47.96   11.65
  -6   3 -14    8.39    3.59
  -6  -3 -14    9.83    6.36
   6   3 -14   11.80    4.52
   6  -3 -14   12.08    4.14
  -6   3 -14    8.31    3.26
  -6  -3 -14    5.61    3.96
  -6  -3  14   12.38    4.57
  -6   3  14    1.69    3.80
  -6   3 -15   23.94   11.33
  -6  -3 -15   14.91    5.24
   6   3 -15   14.30    3.69
   6  -3 -15   22.03    9.17
  -6   3 -15   15.37    3.90
  -6  -3 -15   19.46    6.46
  -6  -3  15   19.25    5.33
  -6   3 -16   11.55    4.27
  -6  -3 -16   17.11    7.39
   6   3 -16   21.23    6.12
   6  -3 -16   24.93   10.37
  -6  -3 -16   11.66    6.27
  -6  -3  16   11.63    7.20
  -6   3  16   11.93    3.82
  -6   3 -17   36.29   13.23
  -6  -3 -17   30.80    6.04
   6   3 -17   28.12    8.29
   6  -3 -17   38.59   10.48
  -6  -3 -17   45.54    8.56
  -6  -3  17   35.76    8.86
  -6   3  17   27.73    8.14
  -6   3 -18   12.74    5.42
  -6  -3 -18    4.30    3.62
   6   3 -18    3.84    2.79
   6  -3 -18   11.45    6.71
  -6  -3 -18    2.52    1.33
  -6  -3  18    4.11    3.65
  -6   3  18    6.00    3.55
  -6   3 -19   15.39    4.56
  -6  -3 -19    6.46    5.82
   6   3 -19   16.33    5.94
   6  -3 -19    6.55    4.89
  -6  -3 -19   11.99    3.01
  -6  -3  19   11.97    6.21
  -6   3  19   12.04    5.29
  -6   4   0  120.62    9.06
  -6  -4   0  120.86   11.94
  -6  -4   0  130.68   19.31
   6  -4   0  112.40    6.96
  -6   4   1   47.05   17.25
  -6   4  -1   48.79   10.23
  -6  -4  -1   56.81   10.87
  -6  -4   1   43.06    5.24
   6  -4   1   41.83    5.50
  -6  -4  -1   37.25    9.61
  -6  -4   1   53.83    8.02
   6  -4  -1   40.85    4.88
  -6   4   2    5.69    2.51
   6   4  -2    6.95    1.62
  -6   4  -2    2.04    2.55
  -6  -4  -2    9.81    1.93
   6   4  -2    6.60    1.47
   6   4   2    5.70    1.20
  -6  -4  -2    8.02    2.10
  -6  -4   2    9.82    2.66
  -6  -4  -2   11.90    2.92
  -6  -4   2   10.64    3.83
   6  -4  -2    6.00    1.38
  -6   4   3  352.84   18.54
  -6   4  -3  351.35   18.48
  -6  -4  -3  362.73   17.16
   6   4  -3  333.75   16.55
   6   4   3  317.33   15.51
  -6  -4  -3  347.83   18.47
  -6   4   3  340.33   16.35
  -6  -4   3  350.17   19.26
  -6   4  -4  663.86   32.73
  -6  -4  -4  654.92   30.75
   6   4  -4  661.81   31.15
   6   4   4  596.08   28.64
  -6  -4  -4  626.34   32.17
  -6  -4   4  651.37   31.14
  -6   4   4  660.11   30.66
  -6  -4   4  685.96   33.89
  -6   4  -5   57.27   13.87
  -6  -4  -5   58.79   13.12
   6   4  -5   64.98    8.57
   6   4   5   39.51    8.71
   6  -4  -5   91.75   20.34
  -6  -4  -5   60.77   17.39
  -6  -4   5   59.32    6.71
   6   4  -5   47.93    9.60
   6  -4  -5   61.62    9.19
  -6   4   5   68.68    4.74
  -6  -4   5   88.02   16.97
  -6   4  -6   87.80   20.09
  -6  -4  -6   82.93   13.86
   6   4  -6   68.04   11.45
   6  -4  -6   95.96   23.25
  -6  -4  -6   74.57   15.43
  -6  -4   6   74.34    5.36
   6  -4  -6   83.53    8.15
   6   4  -6   45.65    8.86
  -6  -4   6   88.52   15.65
  -6   4   6   84.13    9.25
  -6   4  -7   48.34    7.26
  -6  -4  -7   42.59   10.50
   6   4  -7   46.14    8.48
   6  -4  -7   45.96   10.01
  -6  -4  -7   60.66   11.96
  -6  -4   7   39.11    6.78
   6  -4  -7   42.92    7.64
  -6  -4   7   50.11   11.76
  -6   4   7   60.24   12.36
  -6   4  -8  133.73   30.00
   6   4  -8  116.40   11.06
   6  -4  -8  156.90   20.98
  -6  -4  -8  109.67   13.36
  -6  -4   8  112.61    2.94
   6  -4  -8   98.00   13.51
  -6  -4   8  125.21   24.18
  -6   4   8  138.05   18.53
  -6   4  -9  137.21   23.15
  -6  -4  -9  135.87   20.53
   6   4  -9   99.10   14.61
   6  -4  -9  112.84   25.42
  -6  -4   9   92.50    2.41
  -6  -4  -9  119.60   16.44
  -6  -4   9   86.80    1.92
   6  -4  -9   99.29   12.37
  -6  -4   9  108.58   16.48
  -6   4   9  106.40   17.77
  -6   4 -10    9.84    3.71
  -6  -4 -10   24.35    6.43
   6   4 -10   14.15    5.06
   6  -4 -10   12.46    4.35
  -6  -4 -10   14.97    5.80
   6  -4 -10    7.58    2.93
  -6  -4  10   12.51    4.28
  -6   4  10   18.60    5.73
  -6   4 -11    1.62    3.57
  -6  -4 -11    7.05    4.60
   6   4 -11    1.33    2.50
   6  -4 -11    3.05    3.88
  -6  -4 -11    4.37    2.04
   6  -4 -11    2.08    1.61
  -6  -4  11   10.28    4.49
  -6   4 -12    5.68    3.74
  -6  -4 -12    7.12    4.79
   6   4 -12   -0.44    3.76
   6  -4 -12   14.38    4.76
  -6  -4 -12    3.73    4.29
   6  -4 -12    3.91    1.11
  -6  -4  12   -0.38    6.06
  -6   4 -13    8.44    4.83
   6   4 -13   10.98    5.65
   6  -4 -13    7.88    7.49
  -6  -4 -13   -0.80    2.63
  -6  -4  13   10.18    7.68
  -6   4  13    7.04    3.33
  -6   4 -14   12.19    4.46
  -6  -4 -14   19.25    4.60
   6   4 -14   10.82    5.24
   6  -4 -14   18.15    6.11
  -6  -4 -14   22.74    6.25
  -6  -4  14   17.04    5.32
  -6   4  14   18.60    4.93
  -6   4 -15   89.02   18.66
  -6  -4 -15   86.14   19.59
   6   4 -15   63.54   11.94
   6  -4 -15   71.51   10.57
  -6  -4 -15   74.88   13.33
  -6  -4  15   66.36   11.33
  -6   4  15   68.17   21.20
  -6   4 -16   50.06   11.01
  -6  -4 -16   35.52    7.15
   6   4 -16   48.32    9.49
   6  -4 -16   54.82   16.70
  -6  -4 -16   33.03   10.95
  -6  -4  16   48.17    8.32
  -6   4  16   30.30   13.41
  -6   4 -17    9.91    4.70
  -6  -4 -17   14.00    4.48
   6   4 -17   10.91    3.41
   6  -4 -17   23.33    9.55
  -6  -4 -17   12.98    3.32
  -6  -4  17   18.10    6.41
  -6   4  17    7.41    3.82
  -6   4 -18   14.40    5.57
  -6  -4 -18   11.43    6.00
   6   4 -18   10.17    4.65
   6  -4 -18    8.37    3.81
  -6  -4 -18    7.81    5.69
  -6  -4  18    6.94    4.26
  -6   4  18   18.62    7.54
  -6   4 -19   16.21    4.38
  -6  -4 -19   -1.10    4.44
   6   4 -19   12.48    7.50
   6  -4 -19    6.68    9.01
  -6  -4 -19   11.62    5.84
  -6  -4  19   11.81    5.89
  -6   4  19    9.18    4.47
  -6   5   0  163.97   11.65
  -6  -5   0  162.62   14.15
  -6  -5   0  165.46   13.96
   6  -5   0  161.81    9.59
  -6   5   1  120.34   21.45
  -6   5  -1  107.68   23.18
  -6  -5  -1  104.05   13.99
  -6  -5   1  108.83   15.56
  -6  -5  -1  112.07   12.96
  -6  -5   1   71.38    8.73
   6  -5  -1  106.16    6.27
  -6   5   2   39.50    9.55
   6   5  -2   37.87    4.23
  -6   5  -2   51.44   11.56
   6   5  -2   39.56    4.64
  -6  -5  -2   35.20   11.11
  -6  -5   2   45.48   11.16
  -6  -5  -2   49.44    9.45
  -6  -5   2   54.23   10.35
  -6   5   3    0.65    4.31
  -6   5  -3    1.21    2.37
  -6  -5  -3    1.38    1.18
   6   5  -3    2.12    1.44
  -6  -5   3   -0.04    0.86
   6   5   3    1.34    1.21
  -6  -5  -3    7.35    2.39
  -6  -5   3   11.75    4.06
  -6   5   4  176.32   30.23
  -6   5  -4  146.69    7.10
  -6  -5  -4  150.26    3.92
   6   5  -4  155.51    4.41
   6   5   4  142.65    4.41
  -6  -5  -4  173.61   25.53
  -6  -5   4  184.81   12.72
   6  -5  -4  168.77   17.18
  -6   5   4  158.14    2.82
  -6  -5   4  183.39   23.71
  -6   5  -5  303.91   25.38
  -6  -5  -5  326.39   20.06
   6   5  -5  318.68   19.68
   6   5   5  292.14   17.95
  -6  -5   5  285.30   18.38
   6  -5  -5  290.86   19.68
  -6  -5  -5  300.71   19.90
  -6  -5   5  353.51   22.99
   6  -5  -5  302.68   19.79
  -6   5   5  324.41   19.37
  -6  -5   5  297.08   23.67
  -6   5  -6   50.95   11.82
  -6  -5  -6   58.65   12.28
   6   5  -6   49.22    8.75
   6  -5  -6   64.62   10.45
  -6  -5  -6   54.27   11.48
  -6  -5   6   63.16    9.65
   6  -5  -6   56.76   12.09
  -6  -5   6   61.85   12.40
  -6   5   6   55.35    6.90
  -6   5  -7  202.79   31.86
  -6  -5  -7  231.46   18.18
   6   5  -7  228.62   22.67
   6  -5  -7  245.92   27.92
  -6  -5  -7  218.43   17.28
  -6  -5   7  221.37   14.60
   6  -5  -7  212.13   18.96
  -6  -5   7  209.58   15.88
  -6   5   7  238.85   15.48
  -6   5  -8   18.35    6.32
   6   5  -8   19.30    7.35
   6  -5  -8   41.41    7.42
  -6  -5  -8   27.86    9.06
  -6  -5   8   17.28    5.42
   6  -5  -8   16.59    4.93
  -6  -5   8   17.99    6.68
  -6   5   8   22.29    5.97
  -6   5  -9   -0.77    2.69
   6   5  -9    2.86    2.19
   6  -5  -9   13.26    8.44
  -6  -5  -9    3.25    3.73
  -6  -5   9    4.40    1.98
   6  -5  -9    3.32    3.07
  -6  -5   9    9.82    3.64
  -6   5   9    2.28    2.32
  -6   5 -10   56.77   13.31
  -6  -5 -10   70.67   17.63
   6   5 -10   60.66   12.15
   6  -5 -10   73.08   13.24
  -6  -5  10   41.79    5.05
  -6  -5 -10   65.07   11.98
  -6  -5  10   62.31    5.97
   6  -5 -10   53.86   12.12
  -6  -5  10   73.05   15.98
  -6   5  10   71.37   10.97
  -6   5 -11   46.74   10.08
  -6  -5 -11   57.73    9.78
   6   5 -11   46.00   11.05
   6  -5 -11   53.85   12.18
  -6  -5 -11   60.03   13.93
  -6  -5  11   27.38    2.17
   6  -5 -11   37.22    8.02
  -6  -5  11   52.78   16.22
  -6   5  11   50.03    9.18
  -6   5 -12   16.01    4.77
  -6  -5 -12   10.08    4.35
   6   5 -12    7.34    2.91
   6  -5 -12   15.84    8.32
  -6  -5 -12    9.41    3.55
   6  -5 -12    5.44    1.70
  -6  -5  12   12.30    7.17
  -6   5  12    9.24    8.24
  -6   5 -13   25.14    7.22
  -6  -5 -13   23.88    8.08
   6   5 -13   30.52    7.15
   6  -5 -13   21.81    7.42
  -6  -5 -13   37.57    6.36
  -6  -5  13   25.69   10.43
  -6   5 -14    4.77    2.22
  -6  -5 -14    3.32    2.79
   6   5 -14    5.73    2.77
   6  -5 -14   17.94    8.36
  -6  -5 -14    5.14    3.32
  -6  -5  14   15.15    5.01
  -6   5 -15   26.65    7.29
  -6  -5 -15   27.00    7.27
   6   5 -15   22.66    7.27
   6  -5 -15   17.69    6.79
  -6  -5 -15   22.19    4.87
  -6  -5  15   20.46    7.70
  -6   5  15   28.09    6.27
  -6   5 -16   15.68    4.91
  -6  -5 -16    8.90    4.93
   6   5 -16   18.01    6.83
   6  -5 -16   19.75    7.37
  -6  -5 -16   10.01    6.36
  -6  -5  16   14.12    6.62
  -6   5  16   12.16    4.42
  -6   5 -17   45.45   17.32
  -6  -5 -17   33.99   10.98
   6   5 -17   32.59   10.24
   6  -5 -17   25.77    6.29
  -6  -5 -17   42.36    7.41
  -6  -5  17   35.50   15.59
  -6   5  17   27.30    6.22
  -6   5 -18    5.47    4.16
  -6  -5 -18    6.31    4.61
   6   5 -18   13.19    5.93
   6  -5 -18    3.26    8.17
  -6  -5 -18    8.93    4.52
  -6  -5  18    4.08    4.10
  -6   5  18   10.08    4.74
  -6   6   0   32.75    8.95
  -6  -6   0   30.32    8.64
  -6  -6   0   28.19    6.55
   6  -6   0   24.06    4.37
  -6   6   1  218.08   23.02
  -6   6  -1  182.54   13.74
  -6  -6  -1  214.48   15.10
  -6  -6   1  184.18   13.38
  -6  -6  -1  191.88   14.13
  -6  -6   1  184.50   22.59
   6   6  -2  365.61   21.27
  -6   6   2  391.07   25.14
  -6   6  -2  398.59   25.39
  -6  -6  -2  383.78   24.92
  -6  -6   2  432.61   27.43
  -6  -6   2  420.73   27.39
  -6   6   3  193.67   15.22
  -6  -6  -3  192.55   11.58
  -6   6  -3  172.48   12.98
   6   6  -3  198.15   12.07
  -6  -6  -3  188.24   11.64
  -6  -6   3  177.27   10.93
  -6  -6  -3  195.89   14.20
  -6  -6   3  219.17   15.77
   6  -6  -3  202.35   27.28
  -6  -6   3  186.26   13.20
  -6   6   4   84.03   14.12
  -6   6  -4   83.80   15.11
   6   6  -4   89.51    9.28
  -6  -6  -4   78.47    3.22
  -6  -6   4   70.71    6.54
  -6  -6  -4  103.06   16.54
   6  -6  -4  100.42   17.48
  -6  -6   4   72.13    5.49
  -6   6  -5   26.70    6.76
   6   6  -5   20.57    4.96
  -6  -6  -5   23.51    5.44
  -6  -6   5   11.15    2.61
   6   6   5   15.10    4.24
   6  -6  -5   17.79    6.84
  -6  -6  -5   23.27    5.81
  -6  -6   5   23.95    4.83
   6  -6  -5   17.73    4.29
  -6   6   5   15.81    1.71
  -6  -6   5   13.74    4.42
  -6   6  -6    7.31    5.22
   6   6  -6    2.12    1.19
  -6  -6  -6    8.06    4.20
   6  -6  -6    8.68    3.64
  -6  -6  -6    6.74    4.84
  -6  -6   6    2.69    2.37
   6  -6  -6    3.98    3.49
  -6   6   6    3.74    1.22
  -6  -6   6   10.39    3.79
  -6   6  -7   36.21    8.51
   6   6  -7   25.10    7.14
  -6  -6  -7   25.47    6.51
   6  -6  -7   11.81    3.75
  -6  -6  -7   17.71    6.21
  -6  -6   7   21.60    7.05
   6  -6  -7   24.06    6.21
  -6  -6   7   20.92    5.58
  -6   6   7   23.99    6.53
  -6   6  -8   64.98   12.36
   6   6  -8   68.80   17.10
  -6  -6  -8   56.31   11.24
   6  -6  -8   78.00   15.98
  -6  -6  -8   70.11   10.57
  -6  -6   8   67.22   16.11
   6  -6  -8   55.85   10.16
  -6  -6   8   83.92   18.32
  -6   6   8   62.89   12.26
  -6   6  -9  148.77   29.77
   6   6  -9  120.04   14.85
   6  -6  -9  137.38   21.08
  -6  -6  -9  133.04   28.90
  -6  -6   9  124.15   11.03
   6  -6  -9  117.67   13.86
  -6  -6   9  152.65   21.99
  -6   6   9  136.96   15.90
  -6   6 -10  144.59   22.88
   6   6 -10  106.08   24.73
  -6  -6 -10   95.77   22.15
   6  -6 -10  154.19   23.41
  -6  -6 -10  124.05   14.42
  -6  -6  10  118.76   11.95
   6  -6 -10  100.22   20.87
  -6  -6  10  124.99   18.89
  -6   6  10   95.46   19.62
  -6   6 -11   19.05    4.44
   6   6 -11   17.12    4.24
  -6  -6 -11    8.30    3.37
   6  -6 -11   31.82    6.60
  -6  -6 -11   24.70    5.45
  -6  -6  11   17.70    5.07
   6  -6 -11   22.89    6.63
  -6  -6  11   36.89    8.32
  -6   6  11   23.81    5.39
  -6   6 -12   10.62    5.13
   6   6 -12    2.53    2.76
  -6  -6 -12    4.35    2.56
   6  -6 -12   18.87    9.79
  -6  -6 -12    5.33    4.31
   6  -6 -12    0.31    1.88
  -6  -6  12    3.74    3.69
  -6   6  12    1.24    2.27
  -6   6 -13   47.94    9.28
   6   6 -13   22.17    4.50
  -6  -6 -13   35.52    7.53
   6  -6 -13   40.43   10.77
  -6  -6 -13   28.43    7.17
  -6  -6  13   19.13    5.95
  -6   6  13   27.12    9.16
  -6   6 -14  101.15   29.92
   6   6 -14  131.27   30.96
  -6  -6 -14  111.08   23.08
   6  -6 -14  158.46   41.81
  -6  -6 -14  110.51   18.03
  -6  -6  14  150.39   41.05
  -6   6  14  120.79   15.94
  -6   6 -15   23.58   10.20
   6   6 -15   28.03   11.39
  -6  -6 -15   40.60   10.53
   6  -6 -15   40.62   13.59
  -6  -6 -15   34.69   12.96
  -6  -6  15   32.89    8.95
  -6   6 -16   11.82    6.27
   6   6 -16   13.38    5.28
  -6  -6 -16    9.94    5.09
   6  -6 -16   17.61    7.45
  -6  -6 -16   11.77    4.28
  -6  -6  16    8.40    5.17
  -6   6 -17    5.00    3.13
   6   6 -17    2.78    2.44
  -6  -6 -17    6.00    3.53
   6  -6 -17    3.09    4.38
  -6  -6 -17    8.51    3.99
  -6  -6  17    5.27    2.87
  -6   6  17    5.69    3.18
  -6   6 -18    4.84    5.21
   6   6 -18   11.82    4.78
  -6  -6 -18    7.21    2.25
   6  -6 -18   13.59    4.85
  -6  -6 -18    2.60    3.21
  -6  -6  18    4.83    4.78
  -6   6  18    4.91    2.55
  -6   7   0   42.88   11.74
  -6  -7   0   31.12    8.74
  -6  -7   0   46.64    8.91
   6  -7   0   29.42    3.61
   6  -7   0   30.99    4.05
  -6   7   1  298.46   24.24
  -6   7  -1  267.35   24.12
  -6  -7  -1  292.81   21.75
  -6  -7   1  304.47   20.58
  -6  -7  -1  310.63   30.85
  -6  -7   1  273.31   18.42
  -6   7   2  180.64   31.24
  -6   7  -2  181.95   25.04
  -6  -7   2  138.53    2.05
  -6  -7  -2  170.66   17.14
  -6  -7   2  165.06    8.00
  -6  -7  -2  166.15   13.76
  -6  -7   2  172.41   20.65
  -6   7   3   13.17    3.15
  -6  -7  -3   16.26    3.10
  -6   7  -3   17.10    4.54
   6   7  -3   19.74    4.55
  -6  -7  -3   19.65    3.91
  -6  -7   3   15.73    3.77
  -6  -7  -3   27.92    8.27
  -6  -7   3   25.56    6.09
   6  -7  -3   19.90    5.96
  -6  -7   3   23.80    5.24
  -6   7   4   62.45   16.61
  -6  -7  -4   27.64    5.22
  -6   7  -4   58.38    9.43
   6   7  -4   52.16    5.50
  -6  -7  -4   44.01    8.44
  -6  -7   4   36.17    8.69
  -6  -7  -4   55.39    9.73
  -6  -7   4   56.87   11.34
   6  -7  -4   51.37   16.61
  -6  -7   4   51.25   10.59
  -6  -7  -5  108.08    6.52
  -6   7  -5  150.81   30.30
   6   7  -5  139.09    9.63
  -6  -7  -5  143.42   11.58
   6  -7  -5  161.40   29.50
  -6  -7  -5  174.37   27.54
   6  -7  -5  132.64   27.10
  -6  -7   5  131.69   18.60
  -6   7  -6   63.84   15.98
   6   7  -6   46.06   12.56
  -6  -7  -6   50.12    7.90
   6  -7  -6   66.27   10.10
  -6  -7  -6   71.16   20.16
  -6  -7   6   65.28   12.34
   6  -7  -6   65.50   14.10
  -6  -7   6   71.71   10.78
  -6   7  -7  164.11   28.48
   6   7  -7  164.41    6.54
  -6  -7  -7  159.55   25.47
   6  -7  -7  180.83   35.68
  -6  -7  -7  166.74   27.08
  -6  -7   7  153.53   15.79
   6  -7  -7  140.03   20.24
  -6  -7   7  164.59   23.54
  -6   7   7  145.39    3.61
  -6   7  -8   26.72    5.59
   6   7  -8   31.15    4.82
  -6  -7  -8   38.21    7.91
   6  -7  -8   22.26    7.27
  -6  -7  -8   50.51   12.82
  -6  -7   8   38.80    9.43
   6  -7  -8   28.73    8.63
  -6  -7   8   25.06    4.91
  -6   7   8   34.00    7.03
  -6   7  -9    4.07    3.89
   6   7  -9    8.63    2.66
  -6  -7  -9    8.12    3.82
   6  -7  -9    8.97    3.95
  -6  -7  -9    9.04    4.66
  -6  -7   9    3.96    3.75
   6  -7  -9    8.71    3.13
  -6  -7   9    0.98    2.90
  -6   7   9    5.42    1.73
  -6   7 -10   25.54    6.36
   6   7 -10   25.63    6.10
   6  -7 -10   32.14    5.62
  -6  -7 -10   35.28    7.06
  -6  -7  10   26.43    7.75
   6  -7 -10   25.50    8.60
  -6  -7  10   41.13    7.96
  -6   7  10   19.51    5.50
  -6   7 -11   70.98   12.24
   6   7 -11   81.30   10.11
  -6  -7 -11   64.31   12.61
   6  -7 -11   65.49   20.62
  -6  -7 -11   72.05   13.68
  -6  -7  11   60.40   11.72
   6  -7 -11   60.33   15.26
  -6  -7  11   91.68   20.71
  -6   7  11   70.94   13.57
  -6   7 -12   13.69    5.22
   6   7 -12   11.37    4.66
  -6  -7 -12   10.93    3.70
   6  -7 -12    7.45    5.89
  -6  -7 -12   10.71    3.79
   6  -7 -12    8.82    3.69
  -6  -7  12    8.08    3.79
  -6   7  12   11.24    3.39
  -6   7 -13   58.15   10.70
   6   7 -13   35.34    6.68
  -6  -7 -13   41.18    8.44
   6  -7 -13   67.81   13.77
  -6  -7 -13   42.90   13.78
  -6  -7  13   60.31   15.54
  -6   7  13   45.90   15.13
  -6   7 -14   28.70   10.20
   6   7 -14   24.10    9.46
  -6  -7 -14   20.81    5.74
   6  -7 -14   16.15    5.56
  -6  -7 -14   32.21    8.77
  -6  -7  14   30.58    7.23
  -6   7  14   27.85    7.86
  -6   7 -15   17.04    7.88
   6   7 -15   14.55    4.55
  -6  -7 -15   10.42    4.66
   6  -7 -15   33.94   10.78
  -6  -7 -15   12.00    6.11
  -6  -7  15   10.20    6.86
  -6   7  15   12.03    4.44
  -6   7 -16    9.15    2.96
   6   7 -16    4.36    3.15
  -6  -7 -16    5.99    3.00
   6  -7 -16   11.95    6.47
  -6  -7 -16    6.53    5.36
  -6  -7  16   11.78    4.32
  -6   7 -17   17.00    6.78
   6   7 -17    9.43    7.36
  -6  -7 -17   19.76    7.90
   6  -7 -17   26.81   16.61
  -6  -7 -17   17.73    5.18
  -6  -7  17   26.21    7.93
  -6   7 -18   11.12    3.05
   6   7 -18   15.14    5.26
  -6  -7 -18    6.70    3.26
   6  -7 -18   20.35    9.15
  -6  -7 -18    8.92    5.37
  -6  -7  18    6.67    6.05
  -6   8   0   16.14    6.45
  -6  -8   0   21.71    7.04
  -6  -8   0    7.72    4.05
  -6   8   1   17.62    5.63
  -6   8  -1   18.19    6.18
  -6  -8  -1   12.28    4.19
  -6  -8   1   29.81    5.70
  -6  -8  -1   19.41    5.29
  -6  -8   1   21.99    6.41
   6  -8   1   16.63    3.34
  -6   8   2   43.50   10.06
   6   8  -2   35.52    3.84
  -6   8  -2   57.45   10.28
  -6  -8  -2   34.27    2.53
  -6  -8   2   33.49    5.24
  -6  -8  -2   41.21   11.91
  -6  -8   2   48.18    9.93
   6  -8  -2   37.78    7.45
  -6  -8  -2   46.23    8.24
  -6  -8   2   44.95   11.46
   6  -8   2   34.78    6.63
  -6   8   3  146.76   24.19
  -6   8  -3  156.36   32.92
   6   8  -3  144.62   12.38
  -6  -8  -3  148.64    9.51
  -6  -8  -3  138.29    9.97
  -6  -8   3  131.55   11.07
  -6  -8  -3  172.25   29.56
  -6  -8   3  171.43   28.13
   6  -8  -3  141.50   25.81
  -6  -8   3  147.63   23.70
  -6   8   4   97.50   18.77
  -6  -8  -4   88.18    9.28
  -6   8  -4  114.21   18.18
   6   8  -4  115.55    6.80
  -6  -8  -4  115.30   10.26
  -6  -8   4   76.00    9.28
  -6  -8  -4  110.78   20.99
  -6  -8   4  101.66   26.61
   6  -8  -4   86.99   26.92
  -6  -8   4  100.59   27.00
  -6  -8  -5    7.63    2.84
  -6   8  -5   25.90    7.49
   6   8  -5   14.23    4.49
  -6  -8  -5   14.47    3.94
   6  -8  -5   24.00    6.47
  -6  -8  -5   27.33    8.75
  -6  -8   5   28.68    7.53
   6  -8  -5   19.66    8.02
  -6  -8   5   17.05    5.66
  -6   8  -6   52.02   10.54
   6   8  -6   35.96   11.11
  -6  -8  -6   46.19    8.74
   6  -8  -6   75.65   13.35
  -6  -8  -6   55.58   10.47
   6  -8  -6   47.54   10.87
  -6  -8   6   59.92   11.38
  -6   8  -7   26.66    6.80
   6   8  -7   28.85    6.90
  -6  -8  -7   30.25    6.95
   6  -8  -7   30.56    7.19
  -6  -8  -7   27.43    6.08
  -6  -8   7   46.44   10.35
   6  -8  -7   33.08    8.66
  -6  -8   7   31.54    6.27
  -6   8  -8  134.96   17.70
   6   8  -8   94.18   12.69
  -6  -8  -8  106.18   13.35
   6  -8  -8  124.14   26.51
  -6  -8  -8  117.81   17.93
  -6  -8   8  108.86   19.11
   6  -8  -8   96.02   14.07
  -6  -8   8  112.25   24.42
  -6   8   8   96.23    3.33
  -6   8  -9  125.77   25.41
   6   8  -9  108.70   21.64
  -6  -8  -9  100.87   23.94
   6  -8  -9  128.05   31.62
  -6  -8  -9  129.73   29.61
  -6  -8   9  129.07   18.10
   6  -8  -9  101.68   19.96
  -6  -8   9  122.68   22.25
  -6   8   9  110.15   10.58
  -6   8 -10   39.42    9.71
   6   8 -10   25.45    7.58
   6  -8 -10   22.22    7.63
  -6  -8 -10   28.60    7.76
  -6  -8  10   29.97    7.07
   6  -8 -10   14.42    5.03
  -6  -8  10   34.05    8.82
  -6   8  10   26.53    5.95
  -6   8 -11   14.38    5.21
   6   8 -11    9.56    4.40
   6  -8 -11    3.14    3.84
  -6  -8 -11   11.19    6.20
  -6  -8  11    6.73    2.67
   6  -8 -11    5.52    2.06
  -6  -8  11   12.06    4.51
  -6   8  11    5.07    2.32
  -6   8 -12   18.36    4.80
   6   8 -12   18.86    5.13
  -6  -8 -12   20.49    8.04
   6  -8 -12   14.50    6.56
  -6  -8 -12   19.63    5.60
   6  -8 -12   20.25    5.60
  -6  -8  12   27.38    9.22
  -6   8  12   15.76    3.97
  -6   8 -13    9.59    3.38
   6   8 -13    7.46    3.22
  -6  -8 -13    6.74    3.28
   6  -8 -13   10.64    6.82
  -6  -8 -13    6.41    2.46
   6  -8 -13   11.02    4.80
  -6  -8  13   17.58    8.18
  -6   8 -14    9.63    4.15
   6   8 -14   10.25    3.88
  -6  -8 -14    5.19    2.92
   6  -8 -14    8.95    6.64
  -6  -8 -14   12.70    6.41
  -6  -8  14   13.76    7.98
  -6   8 -15   11.87    6.81
   6   8 -15   11.25    4.85
  -6  -8 -15   15.94    5.42
   6  -8 -15    9.27    5.87
  -6  -8 -15   21.25    6.98
  -6  -8  15   22.71    8.69
   6   8 -16   16.03    4.55
  -6  -8 -16   12.26    4.99
   6  -8 -16   20.72    6.25
  -6  -8 -16   18.42    8.19
  -6  -8  16   21.59    7.71
  -6   8 -17    7.70    4.50
   6   8 -17   12.25    4.84
  -6  -8 -17    6.25    5.00
   6  -8 -17   13.67    5.84
  -6  -8 -17    2.37    1.63
  -6  -8  17   14.84    5.83
  -6   9   0   47.24    8.18
  -6  -9   0   51.20   12.53
   6  -9   0   67.23   15.40
  -6  -9   0   43.91    9.08
  -6   9   1   96.18   13.57
  -6   9  -1   72.70   11.62
  -6  -9  -1   78.19    1.74
  -6  -9   1   74.63    3.99
  -6  -9  -1   88.92   20.55
  -6  -9   1   90.58   13.87
   6  -9  -1   82.44   13.58
  -6  -9  -1   73.46   13.06
  -6  -9   1   86.63   18.35
   6  -9   1   74.21    6.94
   6   9  -2   39.85    4.96
  -6   9   2   54.27   14.17
  -6   9  -2   65.25   10.22
  -6  -9  -2   39.41    4.66
  -6  -9  -2   43.74    5.70
  -6  -9   2   35.35    6.98
  -6  -9  -2   58.96   12.61
  -6  -9   2   74.48   17.11
   6  -9  -2   43.68    8.22
  -6  -9  -2   61.68   11.48
  -6  -9   2   52.81    9.63
   6  -9   2   49.39    7.12
  -6   9   3   12.80    5.14
   6   9  -3    8.68    2.56
  -6   9  -3   16.76    6.30
  -6  -9  -3    8.23    2.23
  -6  -9  -3   12.46    3.39
  -6  -9   3   12.73    3.58
  -6  -9  -3   10.37    6.04
  -6  -9   3   16.09    5.91
   6  -9  -3   10.25    5.22
  -6  -9   3    9.02    3.19
   6  -9   3   10.66    3.37
  -6   9   4  244.82   39.51
  -6  -9  -4  191.89   15.19
  -6   9  -4  202.96   29.84
   6   9  -4  261.83   13.78
  -6  -9  -4  252.88   13.33
  -6  -9  -4  255.20   26.35
  -6  -9   4  220.63   43.70
   6  -9  -4  237.81   25.66
  -6  -9   4  227.59   18.01
   6  -9   4  232.26   22.35
  -6   9   5   99.63   18.66
  -6   9  -5  122.35   28.25
   6   9  -5  110.00   11.40
  -6  -9  -5  117.27   13.55
  -6  -9  -5  101.58   22.70
  -6  -9   5  123.76   19.35
   6  -9  -5  120.43   26.63
  -6  -9   5  121.54   21.09
  -6   9  -6   11.58    4.97
   6   9  -6    0.10    1.99
  -6  -9  -6    5.74    3.01
   6  -9  -6    5.40    4.01
  -6  -9  -6   18.51    5.14
  -6  -9   6    2.70    2.92
   6  -9  -6    8.26    4.24
  -6  -9   6   14.95    4.22
  -6   9  -7  153.68   25.81
   6   9  -7  147.77    7.35
  -6  -9  -7  130.00    8.64
   6  -9  -7  158.19   39.38
  -6  -9  -7  147.93   27.25
   6  -9  -7  136.14   18.04
  -6  -9   7  158.48   28.76
  -6   9  -8  179.61   23.93
   6   9  -8  147.11   19.48
  -6  -9  -8  175.93   22.80
   6  -9  -8  189.83   38.33
  -6  -9  -8  192.71   27.56
  -6  -9   8  171.56   27.66
   6  -9  -8  166.20   32.78
  -6  -9   8  196.27   18.72
  -6   9  -9    6.71    4.42
   6   9  -9    7.34    2.44
  -6  -9  -9    7.31    3.81
   6  -9  -9   11.33    6.26
  -6  -9  -9    8.20    4.36
  -6  -9   9    4.23    4.76
   6  -9  -9    6.02    4.39
  -6  -9   9    4.79    4.53
  -6   9 -10   67.55   20.44
   6   9 -10   65.57   13.51
  -6  -9 -10   74.20   14.06
   6  -9 -10   85.41   21.58
  -6  -9 -10   89.50   21.17
  -6  -9  10   76.96   19.55
  -6  -9  10   64.78   12.41
  -6   9 -11   28.44    6.08
   6   9 -11   19.73    7.67
   6  -9 -11   35.81    7.83
  -6  -9 -11   38.64   12.92
  -6  -9  11   26.99    8.20
   6  -9 -11   32.84    7.87
  -6  -9  11   30.33    9.63
  -6   9 -12   57.46   16.94
   6   9 -12   55.15   14.22
  -6  -9 -12   70.76   17.66
   6  -9 -12   81.58   16.11
  -6  -9 -12   76.90   14.74
   6  -9 -12   58.01   14.36
  -6  -9  12   71.38   15.91
  -6   9 -13   10.13    4.18
   6   9 -13   14.88    3.97
  -6  -9 -13    9.14    3.04
   6  -9 -13   19.52    6.24
  -6  -9 -13   13.18    5.34
   6  -9 -13    9.24    3.88
  -6  -9  13   16.56    6.03
  -6   9 -14   10.29    5.91
   6   9 -14   11.79    4.51
  -6  -9 -14    8.23    3.77
   6  -9 -14    6.02    6.72
  -6  -9 -14    4.63    4.74
  -6  -9  14    9.33    5.15
  -6   9 -15    9.21    3.20
   6   9 -15   12.28    4.27
  -6  -9 -15    2.02    2.61
   6  -9 -15   -1.40    5.58
  -6  -9 -15    8.02    5.13
  -6  -9  15   10.58    3.68
  -6   9 -16   10.35    3.97
   6   9 -16   12.03    3.35
  -6  -9 -16    8.88    5.80
   6  -9 -16   16.68    5.26
  -6  -9 -16   10.82    8.00
  -6  -9  16   19.77    9.69
  -6  10   0  115.14   23.59
  -6 -10   0   91.01    6.65
  -6 -10   0   99.75    7.26
  -6 -10   0  133.85   21.22
   6 -10   0  111.38   24.43
  -6 -10   0  127.53   18.54
  -6  10   1  127.61   17.33
  -6  10  -1  123.10   18.69
  -6 -10  -1  103.01    7.14
  -6 -10   1   98.50    5.90
  -6 -10  -1  112.66    7.45
  -6 -10   1  101.36    7.72
  -6 -10  -1  122.52   27.58
   6 -10  -1  112.24   20.77
   6 -10   1  147.97   29.76
  -6 -10  -1  129.08   23.64
  -6 -10   1  103.34   11.93
   6 -10   1  114.12    8.13
   6  10  -2   50.24    6.70
  -6  10   2   68.04   10.48
  -6  10  -2   67.97   11.68
  -6 -10  -2   39.48    7.34
  -6 -10   2   35.38    7.22
  -6 -10  -2   56.84    6.36
  -6 -10  -2   93.06   16.69
  -6 -10   2   66.50   11.95
   6 -10  -2   58.30   10.59
  -6 -10  -2   70.38    9.40
  -6 -10   2   68.12   16.95
   6 -10   2   63.37    6.07
  -6  10   3   44.29    7.42
   6  10  -3   39.10    7.30
  -6  10  -3   50.95   10.85
  -6 -10  -3   37.78    8.34
  -6 -10  -3   49.18    9.23
  -6 -10   3   47.72   12.81
   6 -10  -3   40.74    6.81
  -6 -10   3   49.87   12.93
   6 -10   3   39.20    7.21
  -6  10   4   65.67   11.38
   6  10  -4   67.69    9.96
  -6  10  -4   53.01   10.65
  -6 -10  -4   57.61   14.05
  -6 -10  -4   94.32   16.00
  -6 -10   4   76.30   15.66
   6 -10  -4   71.76   17.69
  -6 -10   4   78.64   13.86
   6 -10   4   59.38   11.01
  -6  10   5   55.06    8.56
  -6  10  -5   38.17   12.87
   6  10  -5   55.13    5.66
  -6 -10  -5   48.62    9.36
  -6 -10  -5   57.99   11.80
  -6 -10   5   56.23   14.41
   6 -10  -5   46.77   13.19
  -6 -10   5   45.20   12.95
   6 -10   5   42.55   10.52
  -6  10  -6    3.67    2.58
   6  10  -6    4.92    3.02
  -6 -10  -6    5.84    2.91
   6 -10  -6    8.64    2.92
  -6 -10  -6   12.66    6.93
  -6 -10   6    7.01    3.48
   6 -10  -6    0.71    3.80
  -6 -10   6    8.08    4.43
   6 -10   6    3.04    3.19
  -6  10  -7   14.88    6.73
  -6 -10  -7    3.53    2.08
   6 -10  -7   12.12    4.88
  -6 -10  -7   11.73    4.21
  -6 -10   7    7.82    2.28
   6 -10  -7    8.41    8.29
  -6 -10   7   13.62    7.18
   6 -10   7    4.91    4.14
  -6  10  -8   21.19    7.41
   6  10  -8    7.79    3.99
  -6 -10  -8   12.54    6.53
   6 -10  -8   22.46    7.00
  -6 -10  -8   17.79    7.08
   6 -10  -8   20.15    4.52
  -6 -10   8    6.60    4.10
   6 -10   8    9.21    3.49
  -6  10  -9   30.10    8.76
   6  10  -9   28.29    7.40
  -6 -10  -9   26.47    8.23
   6 -10  -9   16.82    7.37
  -6 -10  -9   31.30    9.36
  -6 -10   9   28.84   10.18
   6 -10  -9   23.36    6.89
  -6 -10   9   17.25    5.58
  -6  10 -10   17.50    6.08
   6  10 -10   17.53    4.97
  -6 -10 -10   18.78    6.66
   6 -10 -10   14.99    7.54
  -6 -10 -10   16.30    6.21
  -6 -10  10   18.30    5.18
   6 -10 -10    8.50    3.31
  -6 -10  10   22.73    5.86
  -6  10 -11   20.07    5.97
   6  10 -11   18.32    7.47
  -6 -10 -11   27.52    7.22
   6 -10 -11   38.65   11.06
  -6 -10 -11   29.28    8.89
   6 -10 -11   31.37    8.67
  -6 -10  11   24.12    5.84
  -6 -10  11   31.13    6.72
  -6  10 -12   65.61   23.02
   6  10 -12   53.21   18.78
   6 -10 -12   75.94   20.41
  -6 -10 -12   80.18   15.69
   6 -10 -12   46.68   19.32
  -6 -10  12   83.34   18.76
  -6  10 -13   38.58   13.72
   6  10 -13   23.11    5.18
  -6 -10 -13   25.12    7.01
   6 -10 -13   38.32    9.43
  -6 -10 -13   34.00    7.29
   6 -10 -13   20.03    8.19
  -6 -10  13   35.36    7.85
  -6  10 -14   17.73    5.12
   6  10 -14   11.72    3.37
  -6 -10 -14    4.69    3.35
   6 -10 -14    3.30    3.56
  -6 -10 -14   10.90    4.69
  -6 -10  14    9.92    4.11
  -6  10 -15    5.48    4.61
   6  10 -15    9.43    4.42
  -6 -10 -15    8.44    4.92
   6 -10 -15   16.38    8.78
  -6 -10 -15    9.14    4.90
  -6 -10  15    9.49    4.34
  -6  10 -16    4.03    3.79
   6  10 -16   -0.34    3.15
  -6 -10 -16    5.06    3.75
   6 -10 -16    5.93    3.29
  -6 -10 -16    8.59    5.08
  -6 -10  16    4.22    3.51
  -6  11   0   36.02    6.87
  -6 -11   0   24.86    5.71
  -6 -11   0   47.73   15.35
   6 -11   0   41.30    6.78
  -6 -11   0   37.29   10.67
  -6  11   1   22.84    6.67
  -6  11  -1   10.93    4.30
  -6 -11  -1   11.80    2.68
  -6 -11   1   11.61    3.31
  -6 -11  -1   23.94    7.28
   6 -11  -1   23.46    6.35
   6 -11   1   17.89    6.72
  -6 -11  -1   16.96    5.13
  -6 -11   1   28.51    5.30
   6 -11   1    9.29    2.56
   6  11  -2   64.72    5.65
  -6  11   2   81.80   23.89
  -6  11  -2   60.10   18.81
  -6 -11  -2   82.68   10.93
  -6 -11  -2   83.68   19.37
  -6 -11   2   92.14   16.40
   6 -11  -2   83.44   18.45
   6 -11   2   76.85   12.86
  -6 -11  -2   78.24   18.12
  -6 -11   2   65.42   11.89
   6 -11   2   73.61    6.17
  -6  11   3    9.64    2.45
   6  11  -3   10.05    2.45
  -6  11  -3   19.38    6.62
  -6 -11  -3   10.15    2.59
  -6 -11  -3   12.62    5.22
  -6 -11   3    9.91    4.43
   6 -11  -3   -2.64    6.57
   6 -11   3    9.53    6.96
  -6 -11   3   15.40    5.22
   6 -11   3   10.11    3.11
  -6  11   4   32.92    6.78
   6  11  -4   21.98    7.24
  -6  11  -4   38.24    5.56
  -6 -11  -4   29.97    5.99
  -6 -11  -4   34.91   12.93
  -6 -11   4   42.59    9.92
   6 -11  -4   27.83    7.92
  -6 -11   4   39.27    9.67
   6 -11   4   29.17    6.16
  -6  11   5    8.49    4.74
  -6  11  -5    3.86    2.71
   6  11  -5    4.52    1.74
  -6 -11  -5    5.33    2.13
  -6 -11  -5    5.46    5.48
  -6 -11   5    9.21    5.07
   6 -11  -5   -3.36    5.14
  -6 -11   5    6.41    3.33
   6 -11   5    4.94    2.93
  -6  11  -6   68.57   15.47
   6  11  -6   77.79   10.17
  -6 -11  -6   75.71   13.30
   6 -11  -6   87.43   12.36
  -6 -11  -6   88.24   19.41
  -6 -11   6   91.62   15.72
   6 -11  -6   52.56   13.13
  -6 -11   6   70.46   14.82
   6 -11   6   60.74   13.57
  -6  11  -7   19.77    6.72
   6  11  -7   10.67    4.87
  -6 -11  -7   14.96    6.00
   6 -11  -7   19.50    6.55
  -6 -11  -7   14.94    4.07
  -6 -11   7   16.03    7.87
   6 -11  -7   11.31    5.87
  -6 -11   7   14.84    6.49
   6 -11   7    3.97    3.30
  -6  11  -8   49.95   17.09
   6  11  -8   57.10   11.36
  -6 -11  -8   51.11   17.22
   6 -11  -8   53.70   16.48
  -6 -11  -8   74.04   16.55
  -6 -11   8   51.29   15.21
   6 -11  -8   67.18   13.09
  -6 -11   8   65.52   14.04
   6 -11   8   53.63   10.20
  -6  11  -9    9.37    3.53
   6  11  -9   11.03    4.53
  -6 -11  -9    5.81    2.15
   6 -11  -9    7.99    2.67
  -6 -11  -9   10.76    6.42
   6 -11  -9    8.70    5.59
  -6 -11   9   13.50    4.90
   6 -11   9    9.88    3.70
  -6  11 -10   20.66    8.53
   6  11 -10   19.17    7.44
  -6 -11 -10   24.56    5.82
   6 -11 -10   23.88    9.03
  -6 -11 -10   30.83    8.31
  -6 -11  10   12.57    9.02
   6 -11 -10   17.56    7.88
  -6 -11  10   34.68    9.17
   6 -11  10   28.67   10.24
  -6  11 -11   22.49    8.38
   6  11 -11   19.98    5.12
  -6 -11 -11   20.33    6.38
   6 -11 -11   27.57    9.59
  -6 -11 -11   17.49    7.56
   6 -11 -11   12.09    5.06
  -6 -11  11   13.10    3.88
  -6 -11  11    9.67    4.91
   6 -11  11   21.93    7.42
  -6  11 -12   31.08    8.60
   6  11 -12    9.18    3.31
   6 -11 -12   22.46    6.85
  -6 -11 -12   18.00    7.87
   6 -11 -12   15.83    5.13
  -6 -11  12   17.92    8.14
   6 -11  12   21.14    5.37
  -6  11 -13    7.17    5.73
   6  11 -13   13.13    4.83
   6 -11 -13    6.60    5.03
  -6 -11 -13   18.04    6.84
   6 -11 -13    2.74    2.79
  -6 -11  13    8.27    3.86
   6 -11  13    9.45    4.16
  -6  11 -14    8.62    3.57
   6  11 -14    8.54    6.27
  -6 -11 -14   10.24    4.30
   6 -11 -14   14.92    8.65
  -6 -11 -14   11.96    5.30
  -6 -11  14    8.91    4.85
   6 -11  14   17.16    8.52
  -6  11 -15    1.86    4.70
   6  11 -15    5.49    3.73
  -6 -11 -15    8.49    4.46
   6 -11 -15    2.87    3.36
  -6 -11 -15    5.13    3.53
  -6 -11  15    5.36    6.99
   6 -11  15    7.11    3.82
  -6  12   0   19.06    4.94
  -6 -12   0   19.43    7.37
   6 -12   0   21.25    7.31
  -6 -12   0   21.77    4.29
  -6  12   1    7.23    2.99
  -6  12  -1    8.12    4.85
  -6 -12  -1   10.39    6.65
  -6 -12   1   -0.80    5.53
   6 -12  -1    8.25    4.52
   6 -12   1    4.63    4.28
  -6 -12  -1    3.54    4.31
  -6 -12   1    1.86    2.79
  -6  12   2   14.31    5.41
  -6  12  -2   16.99    3.63
  -6 -12  -2   25.31    5.90
  -6 -12   2   12.58    5.21
   6 -12  -2   14.61    5.98
   6 -12   2   11.54    7.82
  -6 -12  -2   14.05    4.89
  -6 -12   2   14.91    5.13
  -6  12   3   81.27   16.50
  -6  12  -3   84.42   18.45
  -6 -12  -3   90.36   18.89
  -6 -12   3   95.81   19.33
   6 -12  -3   83.54   20.92
   6 -12   3   60.98   14.15
  -6 -12   3   92.16   12.87
   6 -12   3   70.95    9.59
  -6  12   4    9.22    4.13
  -6  12  -4    5.66    3.30
  -6 -12  -4    3.80    3.68
  -6 -12   4   -0.29    4.38
   6 -12  -4   12.30    5.09
   6 -12   4   -0.51    6.19
  -6 -12   4    1.13    2.45
   6 -12   4    1.85    1.64
  -6  12  -5    8.49    6.79
  -6 -12  -5   13.41    3.61
  -6 -12  -5   10.84    6.92
  -6 -12   5   10.55    4.46
   6 -12  -5   11.41    3.99
   6 -12   5   11.48    6.41
  -6 -12   5   10.99    2.23
   6 -12   5    4.54    1.53
  -6  12  -6   58.50   15.90
   6  12  -6   34.04   10.89
  -6 -12  -6   37.30   10.06
   6 -12  -6   72.34   19.30
  -6 -12  -6   51.91   14.99
  -6 -12   6   66.44   13.72
   6 -12  -6   54.25   10.59
  -6 -12   6   34.69    9.68
   6 -12   6   38.48   12.28
  -6  12  -7   35.30    9.69
   6  12  -7   31.08   10.66
  -6 -12  -7   36.03    9.07
   6 -12  -7   42.16   11.69
  -6 -12  -7   51.65   18.18
  -6 -12   7   38.65   10.05
   6 -12  -7   41.08   11.91
  -6 -12   7   48.02   10.34
   6 -12   7   40.05    8.69
  -6  12  -8    1.03    2.88
   6  12  -8    1.76    1.17
  -6 -12  -8    3.16    1.97
   6 -12  -8    6.29    4.70
  -6 -12  -8    6.75    3.59
  -6 -12   8    6.90    2.86
   6 -12  -8    8.61    3.73
  -6 -12   8    3.27    2.81
   6 -12   8    4.40    2.08
  -6  12  -9   41.12   12.15
   6  12  -9   18.42    9.03
  -6 -12  -9   26.46    8.45
   6 -12  -9   28.06   11.74
  -6 -12  -9   27.60    8.03
  -6 -12   9   11.13    4.62
   6 -12  -9   29.69    9.86
  -6 -12   9   42.36   11.13
   6 -12   9   32.50    9.07
  -6  12 -10    6.70    3.21
   6  12 -10    3.75    3.15
  -6 -12 -10    7.94    4.49
   6 -12 -10   13.61    5.69
  -6 -12 -10   14.95    4.88
   6 -12 -10   10.03    6.68
  -6 -12  10   22.67    4.91
   6 -12  10   22.78    6.49
  -6  12 -11    8.97    4.41
   6  12 -11    1.29    1.60
   6 -12 -11   13.08    5.38
  -6 -12 -11   10.55    5.98
   6 -12 -11    6.01    3.14
  -6 -12  11    4.54    4.95
  -6 -12  11    0.24    2.50
   6 -12  11    7.97    4.11
  -6  12 -12    8.57    4.34
   6  12 -12    0.39    1.99
   6 -12 -12    4.54    5.83
  -6 -12 -12    3.86    3.39
   6 -12 -12    4.65    3.24
  -6 -12  12    6.14    5.56
   6 -12  12    6.33    3.27
  -6  12 -13   -0.82    3.42
   6 -12 -13    4.93    3.65
  -6 -12 -13    8.92    4.41
   6 -12 -13    5.65    2.65
  -6 -12  13    5.68    3.56
   6 -12  13    8.45    3.03
  -6  12 -14   12.30    6.52
   6 -12 -14   14.19    7.50
  -6 -12 -14    6.73    2.64
  -6 -12  14    8.81    5.09
   6 -12  14   -1.93    3.95
  -6  13   0   10.52    3.87
  -6 -13   0   23.48    8.06
   6 -13   0    7.43    3.02
  -6 -13   0    8.79    2.68
  -6  13   1   41.65    8.69
  -6  13  -1   44.57    8.13
  -6 -13  -1   41.59   13.84
  -6 -13   1   56.94   14.31
   6 -13  -1   31.66    8.96
   6 -13   1   40.69   11.88
  -6 -13  -1   57.55   12.11
  -6 -13   1   41.28    8.74
  -6  13   2   38.94    9.51
  -6  13  -2   37.97    7.79
  -6 -13  -2   33.47   10.17
  -6 -13   2   35.02    9.35
   6 -13  -2   30.21   13.93
   6 -13   2   30.71   11.03
  -6 -13  -2   27.87    6.29
  -6 -13   2   32.46    6.42
  -6  13   3   40.81   11.27
  -6  13  -3   20.41    8.58
  -6 -13  -3   47.92   12.76
  -6 -13   3   36.50   11.58
   6 -13  -3   39.44   11.19
   6 -13   3   29.92    7.46
  -6 -13   3   41.36    7.89
  -6  13   4   23.84    6.42
  -6  13  -4   27.17    8.87
  -6 -13  -4   19.04    6.49
  -6 -13   4   27.18    6.97
   6 -13  -4   40.16   10.25
   6 -13   4   16.53    6.85
  -6 -13   4   15.50    5.68
  -6  13  -5   10.89    3.37
   6 -13  -5   15.61    8.41
  -6 -13  -5   19.17    6.21
  -6 -13   5   11.94    5.47
   6 -13  -5    6.32    6.62
   6 -13   5   17.83    7.67
  -6 -13   5   18.06    5.59
  -6  13  -6   66.43   18.25
   6 -13  -6   58.56   17.84
  -6 -13  -6   70.34   17.83
  -6 -13   6   54.10   11.80
   6 -13  -6   52.77   14.58
   6 -13   6   58.58   13.63
  -6 -13   6   63.55   13.05
   6 -13   6   50.85   11.06
  -6  13  -7   19.92   10.49
   6 -13  -7   44.87    9.27
  -6 -13  -7   23.51    5.32
  -6 -13   7   35.40   10.60
   6 -13  -7   31.79   11.73
   6 -13   7   39.47   15.26
  -6 -13   7   32.93   12.13
   6 -13   7   23.81    8.59
  -6  13  -8   10.88    4.34
   6 -13  -8   31.15    8.71
  -6 -13  -8   18.31   10.23
  -6 -13   8   24.91    6.07
   6 -13  -8   16.86    6.74
   6 -13   8   26.88   11.91
  -6 -13   8   17.17    3.86
   6 -13   8   15.58    5.13
  -6  13  -9   22.56    6.64
   6 -13  -9   19.25    8.96
  -6 -13  -9   28.59    9.89
  -6 -13   9   29.20   12.19
   6 -13  -9   24.66    9.12
  -6 -13   9   25.65   10.79
   6 -13   9   25.82    8.32
  -6  13 -10   15.45    4.97
   6 -13 -10   13.97    4.20
  -6 -13 -10   10.12    5.64
   6 -13 -10   13.69    6.56
  -6 -13  10   17.73    8.02
   6 -13  10    7.42    3.33
  -6  13 -11    7.68    5.36
   6 -13 -11   27.62    6.58
  -6 -13 -11   12.43    5.72
   6 -13 -11    3.08    3.54
  -6 -13  11   24.62    7.19
   6 -13  11   11.80    7.31
  -6  13 -12    8.21    3.06
   6 -13 -12    4.70    3.19
  -6 -13 -12    3.60    2.93
   6 -13 -12    5.70    2.50
  -6 -13  12    3.58    3.20
   6 -13  12    6.85    4.97
  -6  13 -13   16.51    7.02
   6 -13 -13    5.16    4.01
  -6 -13 -13   16.33    5.29
   6 -13 -13    0.68    2.73
  -6 -13  13    4.95    2.87
   6 -13  13   -0.64    3.90
  -6  14   0   11.18    4.39
  -6 -14   0    5.17    3.00
   6 -14   0   -1.31    6.73
  -6 -14   0   -0.70    2.93
  -6  14   1   63.17   10.75
  -6  14  -1   52.95   13.37
  -6 -14  -1   56.96   13.70
  -6 -14   1   52.42   14.71
   6 -14  -1   52.46   17.31
   6 -14   1   58.04   22.09
  -6 -14  -1   52.65   15.79
  -6 -14   1   54.76   13.22
  -6  14   2   25.27    6.66
  -6  14  -2   44.30   10.74
  -6 -14  -2   38.11   13.09
  -6 -14   2   34.41   11.36
   6 -14  -2   36.22   17.40
   6 -14   2   35.07    9.85
  -6 -14   2   31.33    7.67
  -6  14   3   19.72    5.92
  -6  14  -3   20.63    9.07
  -6 -14  -3   39.78   11.55
  -6 -14   3   35.97   10.01
   6 -14  -3   32.18   13.50
   6 -14   3   26.04    6.82
  -6 -14   3   29.68    6.63
  -6  14   4    4.51    3.48
  -6  14  -4    2.63    1.88
  -6 -14  -4   14.64    9.28
  -6 -14   4   12.86    6.14
   6 -14  -4   18.22    5.17
   6 -14   4    3.08    5.07
  -6 -14   4    1.57    3.89
  -6  14  -5    1.66    3.06
   6 -14  -5   10.16    4.72
  -6 -14  -5    2.52    5.06
  -6 -14   5    8.30    4.24
   6 -14  -5   11.01    4.50
   6 -14   5   12.29    6.80
  -6 -14   5    7.61    4.09
  -6  14  -6   11.64    5.86
   6 -14  -6    9.80    3.86
  -6 -14  -6    3.99    5.38
  -6 -14   6    2.30    1.85
   6 -14  -6    8.37    5.01
   6 -14   6   -6.32    7.45
  -6 -14   6    2.97    2.48
  -6  14  -7    5.05    3.03
   6 -14  -7   14.63    4.91
  -6 -14  -7    5.03    4.37
  -6 -14   7    3.98    3.65
   6 -14  -7   10.11    7.07
   6 -14   7    1.38    4.66
  -6 -14   7   11.90    4.67
  -6  14  -8    9.08    4.57
   6 -14  -8   14.09    7.40
  -6 -14  -8    6.42    4.46
  -6 -14   8    8.47    3.67
   6 -14  -8    6.50    3.73
   6 -14   8   20.69    6.44
  -6 -14   8    3.71    2.63
  -6  14  -9   22.45    9.43
   6 -14  -9    9.09    2.72
  -6 -14  -9   14.32    6.52
  -6 -14   9   19.93    6.71
   6 -14  -9    7.73    5.33
   6 -14   9   22.39    7.43
  -6 -14   9    4.99    5.87
  -6  14 -10   18.04    7.98
   6 -14 -10   11.02    6.59
  -6 -14 -10   22.31    6.85
   6 -14 -10   12.53    5.58
   6 -14  10    7.92    6.57
  -6 -14  10    8.96    6.24
   6 -14  10    8.55    3.39
  -6  14 -11   18.83    6.13
   6 -14 -11   24.67    7.31
  -6 -14 -11    8.77    5.66
   6 -14 -11   11.41    7.52
   6 -14  11   10.03    6.96
  -6 -14  11    6.75    5.13
   6 -14  11    3.58    2.39
  -6  15   0   20.78    5.18
  -6 -15   0   17.48    7.95
   6 -15   0   18.61    7.11
  -6 -15   0   19.08    4.71
  -6  15   1   50.97    8.74
  -6  15  -1   48.57   10.42
  -6 -15  -1   54.80   12.41
  -6 -15   1   37.87    9.61
   6 -15  -1   51.15   12.89
   6 -15   1   38.07   14.54
  -6 -15  -1   32.21    8.15
  -6 -15   1   38.54   11.39
  -6  15   2    9.26    4.96
  -6  15  -2    6.21    3.56
  -6 -15  -2   -1.69    5.45
  -6 -15   2   10.26    5.77
   6 -15  -2   -3.12    5.84
   6 -15   2    9.19    6.83
  -6 -15   2    5.47    2.99
  -6  15   3    2.33    3.22
  -6  15  -3    7.67    2.41
  -6 -15  -3    6.39    4.43
  -6 -15   3    8.48    4.62
   6 -15  -3   13.48    7.61
   6 -15   3    8.64    7.89
  -6 -15   3    4.63    4.19
  -6  15   4    3.80    3.27
  -6  15  -4   15.79    6.26
  -6 -15  -4    7.18    4.07
  -6 -15   4   14.35    5.23
   6 -15  -4    9.30    8.29
   6 -15   4   22.03   11.38
  -6 -15   4   10.70    6.22
  -6  15  -5   32.17   11.87
   6 -15  -5   37.15   13.19
  -6 -15  -5   54.30   14.15
  -6 -15   5   41.76   15.98
   6 -15  -5   53.28   18.11
   6 -15   5   34.09   15.88
  -6 -15   5   44.11   14.21
  -6  15  -6    7.14    4.24
   6 -15  -6    4.63    2.87
  -6 -15  -6    6.29    4.21
  -6 -15   6    5.10    3.68
   6 -15  -6    8.11    5.79
   6 -15   6   14.17    6.40
  -6 -15   6    7.35    4.89
  -6  15  -7   10.38    4.87
   6 -15  -7   23.49   12.47
  -6 -15  -7   21.68    8.22
  -6 -15   7   26.35   12.00
   6 -15  -7   10.99    4.33
   6 -15   7   29.23    8.55
  -6 -15   7   27.58    9.60
  -6  15  -8    7.85    6.46
   6 -15  -8    8.84    6.01
  -6 -15  -8    6.38    5.74
  -6 -15   8   10.37    4.87
   6 -15  -8    8.83    4.47
   6 -15   8   15.31    5.52
  -6 -15   8    9.14    4.20
  -6  15  -9    1.89    2.77
   6 -15  -9   -1.71    5.18
  -6 -15  -9    3.19    5.75
  -6 -15   9    5.65    3.84
   6 -15  -9    9.67    3.80
   6 -15   9   13.60   11.59
  -6 -15   9    7.29    4.95
  -6  15 -10    6.16    2.81
   6 -15 -10   10.34    4.18
  -6 -15 -10    3.07    6.47
  -6 -15  10    4.53    2.78
   6 -15 -10    9.40    4.00
   6 -15  10    8.37    9.74
  -6 -15  10    6.80    3.76
  -6  16   0    5.13    2.79
  -6 -16   0   11.42    6.23
   6 -16   0    4.46    3.85
  -6  16   1    3.54    2.98
  -6  16  -1    3.81    3.58
  -6 -16  -1   -1.11    4.37
  -6 -16   1   14.84   10.30
   6 -16  -1   10.91    5.14
   6 -16   1    2.02    4.20
  -6 -16  -1    6.43    1.91
  -6 -16   1    5.44    1.91
  -6  16   2    8.43    3.14
  -6  16  -2    7.19    4.39
  -6 -16  -2   10.48    5.62
  -6 -16   2    8.53    5.25
   6 -16  -2    3.15    3.59
   6 -16   2   11.66    4.54
  -6 -16   2    4.95    2.45
  -6  16   3   34.53    8.03
  -6  16  -3   24.70    9.88
  -6 -16  -3   28.88   10.41
  -6 -16   3   15.98    3.90
   6 -16  -3   17.12    5.70
   6 -16   3   31.90    8.00
  -6 -16   3   27.89    8.75
  -6  16   4   17.54    8.60
  -6  16  -4   19.51    6.27
  -6 -16  -4   21.66   10.95
  -6 -16   4   25.69    9.91
   6 -16  -4   33.43   15.93
   6 -16   4   27.53   10.15
  -6 -16   4   19.16    9.46
  -6  16  -5   17.89    4.47
   6 -16  -5   14.21    4.97
  -6 -16  -5   31.95   12.68
  -6 -16   5   18.16    6.42
   6 -16  -5   26.67    7.79
   6 -16   5   18.40    7.39
  -6 -16   5   12.06    5.61
  -6  16  -6    7.76    4.16
   6 -16  -6    1.76    3.53
  -6 -16  -6    0.45    4.07
  -6 -16   6    6.79    3.27
   6 -16  -6   15.49    4.22
   6 -16   6    5.35    4.63
  -6 -16   6    5.38    4.38
  -6  16  -7    6.00    2.69
   6 -16  -7    9.76    4.98
  -6 -16  -7   19.48    8.68
  -6 -16   7   15.13    7.95
   6 -16  -7   17.97    7.65
   6 -16   7    9.19    8.30
  -6 -16   7   15.44    7.18
  -6  16  -8   16.41    5.72
   6 -16  -8   18.14    8.13
  -6 -16  -8   15.98    6.72
  -6 -16   8   11.94    6.13
   6 -16  -8   16.90    6.19
   6 -16   8   19.21   12.55
  -6 -16   8   17.96    5.08
  -6  17   0   10.73    3.97
  -6 -17   0    8.63    4.23
   6 -17   0   11.84    4.52
  -6 -17   0    5.37    4.82
  -6  17   1   10.19    7.48
  -6  17  -1    8.76    5.54
  -6 -17  -1    6.80    3.47
  -6 -17   1   10.95    5.00
   6 -17  -1   14.98    6.10
   6 -17   1   14.40   10.16
  -6 -17   1    3.86    3.38
  -6  17   2    1.82    3.77
  -6  17  -2    2.04    2.68
  -6 -17  -2    5.14    3.78
  -6 -17   2    9.00    4.47
   6 -17  -2    8.26    3.75
   6 -17   2   10.34    5.11
  -6 -17   2    6.23    3.38
  -6  17   3    3.61    2.79
  -6  17  -3    3.95    4.64
  -6 -17  -3   12.40    6.78
  -6 -17   3    7.50    4.38
   6 -17  -3    6.63    6.72
   6 -17   3    5.03    5.95
  -6 -17   3    5.96    2.77
  -6  17  -4   -0.12    3.28
   6 -17  -4    7.01    6.94
  -6 -17  -4    6.85    5.45
  -6 -17   4    9.81    6.06
   6 -17  -4    9.96    2.89
   6 -17   4   11.99    5.68
  -6 -17   4    5.66    4.41
  -7   0   0    2.06    1.74
  -7   0   0    3.70    2.43
  -7   0   1   38.17    9.94
  -7   0  -1   36.01    8.47
  -7   0   1   35.43    8.45
  -7   0  -2   39.71    7.51
  -7   0   2   40.02    7.80
   7   0  -3  273.47   14.60
  -7   0   3  284.88   14.22
  -7   0  -3  285.49   15.96
   7   0  -3  274.67   13.71
  -7   0   3  273.52   15.55
  -7   0  -4   40.76    9.55
   7   0  -4   49.96   11.22
  -7   0   4   45.02    7.21
  -7   0  -4   49.15   10.03
   7   0  -4   28.23    5.57
  -7   0   4   40.96    9.09
  -7   0  -5   15.59    4.28
   7   0  -5   13.14    4.35
  -7   0  -5   15.95    4.97
   7   0  -5   10.71    3.06
  -7   0   5   12.07    3.11
  -7   0  -6   22.94    5.82
   7   0  -6   26.79    6.65
  -7   0  -6   25.62    5.08
   7   0  -6   16.63    4.29
  -7   0   6   30.80    8.61
  -7   0  -7   80.53   14.55
   7   0  -7   61.60    9.33
  -7   0  -7   80.32   11.03
   7   0  -7   60.89    1.81
   7   0  -7   63.33    2.18
  -7   0   7   70.01   13.16
  -7   0  -8  161.02   23.98
   7   0  -8  176.54   28.57
  -7   0  -8  149.10   30.36
  -7   0   8  154.75   16.42
  -7   0  -9   74.01   14.84
   7   0  -9   64.22   12.23
  -7   0  -9   53.33   11.23
  -7   0   9   73.93   15.68
  -7   0 -10   11.24    6.26
   7   0 -10    6.82    5.21
  -7   0 -10   14.36    4.50
  -7   0  10   11.79    5.37
  -7   0 -11  139.03   29.56
   7   0 -11  164.42   14.07
  -7   0 -11  157.48   19.26
  -7   0  11  160.51   35.42
  -7   0 -12    6.96    3.14
   7   0 -12    7.96    3.07
  -7   0 -12    4.40    3.19
  -7   0  12    8.20    5.37
  -7   0 -13   20.35    5.00
   7   0 -13   30.48    7.14
  -7   0 -13   26.24    4.43
  -7   0  13   32.84   10.41
  -7   0 -14   32.02    6.52
   7   0 -14   41.60    9.14
  -7   0 -14   39.30    9.39
  -7   0  14   33.23   14.83
  -7   0 -15   56.33   18.24
   7   0 -15   47.11    9.20
  -7   0 -15   47.17   11.64
  -7   0  15   52.00   10.92
  -7   0 -16   25.45    9.39
   7   0 -16   11.33    7.25
  -7   0 -16   29.70    5.39
  -7   0  16   28.15    7.84
  -7   0 -17    4.79    4.71
   7   0 -17   30.09    9.26
  -7   0 -17   12.59    4.78
  -7   0  17   23.63    7.09
  -7   0 -18    7.72    6.14
   7   0 -18   -2.50    5.27
  -7   0 -18    7.57    4.58
  -7   0  18    6.39    4.49
  -7   0 -19    4.28    4.52
   7   0 -19    3.12    3.55
  -7   0 -19    1.52    1.62
  -7   0  19    3.43    3.94
  -7  -1   0   32.06    6.76
  -7   1   0   37.08    9.56
   7   1   0   26.50    6.64
  -7   1   0   39.67    8.56
  -7  -1   0   34.03    7.72
  -7  -1   0   31.45    8.17
  -7  -1   1  335.66   16.42
  -7   1   1  271.31   16.69
  -7  -1  -1  284.08   14.07
  -7   1  -1  312.82   19.10
   7   1  -1  269.64   13.40
   7   1   1  303.02   14.87
  -7   1   1  301.25   15.39
  -7   1  -1  340.99   17.70
  -7  -1   1  311.58   16.18
  -7  -1  -1  292.42   15.91
  -7  -1   1  325.62   16.68
  -7   1   2  306.92   15.74
   7   1  -2  278.34   13.91
  -7   1  -2  323.91   16.59
  -7  -1  -2  281.91   14.17
   7   1   2  272.07   13.58
   7   1  -2  305.96   15.43
  -7   1  -2  303.85   16.07
  -7  -1  -2  295.95   15.72
  -7  -1   2  307.08   16.05
  -7   1  -3   31.59    7.85
  -7  -1  -3   40.71   10.19
   7   1  -3   31.03    7.01
   7  -1  -3   43.52    9.25
  -7   1  -3   29.37    4.93
  -7  -1   3   39.34    9.47
  -7  -1  -3   39.72    7.08
   7   1  -3   24.03    5.98
  -7  -1   3   32.67    7.64
  -7   1  -4   80.07   15.56
  -7  -1  -4   42.77    9.35
   7   1  -4   91.82   14.25
   7  -1  -4   88.01   14.51
  -7   1  -4   67.03   15.69
  -7  -1   4   76.63    8.99
  -7  -1  -4   90.39   18.52
   7  -1  -4   57.25    7.85
   7   1  -4   69.46    5.33
  -7  -1   4   92.12   16.07
  -7   1  -5  489.56   28.02
   7   1  -5  499.02   27.42
   7  -1  -5  532.43   27.08
  -7  -1   5  494.70   23.46
  -7   1  -5  499.06   25.49
  -7  -1  -5  499.77   25.40
   7  -1  -5  489.98   23.23
   7   1  -5  477.77   22.63
  -7  -1   5  489.53   24.69
  -7   1  -6   41.86    9.75
  -7  -1  -6   33.59    8.77
   7   1  -6   27.56    5.69
   7  -1  -6   30.15    8.02
  -7   1  -6   33.02    9.05
  -7  -1  -6   17.52    4.80
   7  -1  -6   19.01    4.48
   7   1  -6   17.64    4.18
  -7   1   6   29.32    7.51
  -7  -1   6   23.88    6.41
  -7   1  -7  284.62   19.05
  -7  -1  -7  277.92   18.48
   7   1  -7  279.91   22.51
   7  -1  -7  305.43   20.85
  -7   1  -7  278.18   34.12
  -7  -1  -7  263.07   17.86
   7  -1  -7  265.36   15.79
   7  -1  -7  256.06   15.38
  -7  -1   7  295.36   19.56
  -7   1   7  281.43   18.63
  -7  -1  -8   84.28   16.75
   7   1  -8   64.07   19.37
   7  -1  -8   82.38   12.76
  -7   1  -8   78.54   13.18
  -7  -1  -8   80.75   11.62
  -7  -1   8  100.48   21.44
  -7   1   8   71.89   14.64
  -7  -1  -9   37.61    5.57
   7   1  -9   33.63    6.82
   7  -1  -9   35.07    8.33
  -7   1  -9   27.29    9.32
  -7  -1  -9   31.35   10.32
  -7  -1   9   30.16    8.67
  -7   1   9   40.76    7.21
  -7  -1 -10  148.92   11.04
   7   1 -10  168.25   21.69
   7  -1 -10  189.65   31.59
  -7   1 -10  147.44   18.17
  -7  -1 -10  152.71   18.80
  -7  -1  10  200.32   30.95
  -7   1  10  176.95   12.48
  -7  -1 -11  112.06   19.80
   7   1 -11   98.83   14.94
   7  -1 -11   91.66   25.22
  -7   1 -11   84.30   10.88
  -7  -1 -11   81.75   18.09
  -7  -1  11  110.54   20.47
  -7   1  11   78.24   16.68
  -7  -1 -12    4.37    3.03
   7   1 -12    5.69    2.68
   7  -1 -12    8.96    6.11
  -7   1 -12   13.76    3.71
  -7  -1 -12    8.77    4.03
  -7  -1  12   10.31    5.60
  -7   1  12    8.36    3.18
  -7   1 -13   65.34   12.10
  -7  -1 -13   53.79   13.54
   7   1 -13   56.43   15.53
   7  -1 -13   51.31   10.18
  -7   1 -13   61.42    7.98
  -7  -1 -13   75.78   12.32
  -7  -1  13   59.68   11.24
  -7   1  13   48.36   12.03
  -7   1 -14  112.46   28.84
  -7  -1 -14   98.54   22.08
   7   1 -14   85.18   14.86
   7  -1 -14  101.79   16.66
  -7   1 -14  102.97   24.12
  -7  -1 -14   92.82   16.63
  -7  -1  14  102.51   18.07
  -7   1  14  105.11   29.59
  -7   1 -15    7.73    4.15
  -7  -1 -15   11.49    5.09
   7   1 -15   26.30    8.95
   7  -1 -15   25.78    8.79
  -7   1 -15   26.59    9.75
  -7  -1 -15   19.52    6.06
  -7  -1  15   16.66    5.57
  -7   1 -16   13.97    5.70
  -7  -1 -16    2.79    3.65
   7   1 -16   13.98    5.73
   7  -1 -16   30.37    7.82
  -7   1 -16    7.14    3.63
  -7  -1 -16   12.90    5.02
  -7  -1  16   12.34    4.77
  -7   1  16   15.54    4.65
  -7   1 -17   35.52    8.33
  -7  -1 -17   34.86   11.10
   7   1 -17   31.86   12.38
   7  -1 -17   26.86    9.18
  -7   1 -17   23.21    6.69
  -7  -1 -17   41.61    7.48
  -7  -1  17   34.56   10.13
  -7   1  17   29.38    9.76
  -7   1 -18    3.69    3.57
  -7  -1 -18   17.90    6.10
   7   1 -18   10.47    4.41
   7  -1 -18    9.83    4.46
  -7   1 -18    8.95    3.66
  -7  -1 -18    8.72    4.07
  -7  -1  18   11.72    5.62
  -7   1  18    7.55    4.34
  -7   1 -19   15.08    5.94
  -7  -1 -19   16.69    8.61
   7   1 -19    9.11    5.85
   7  -1 -19    8.41    3.33
  -7   1 -19    6.01    3.51
  -7  -1  19    5.28    3.55
  -7   1  19    3.06    2.59
  -7  -2   0   92.85    5.96
  -7   2   0   89.85   10.26
   7   2   0   81.53    6.81
  -7   2   0  101.30   15.72
  -7  -2   0   91.62   17.20
  -7  -2   0   97.83   17.73
  -7   2   1   16.22    3.72
  -7  -2  -1   14.64    3.97
  -7   2  -1    8.21    2.52
   7   2  -1   12.92    2.46
   7   2   1   11.09    2.32
   7   2  -1   12.70    3.66
  -7   2  -1    7.50    2.04
  -7  -2   1   15.44    3.56
  -7  -2  -1   17.85    4.08
  -7  -2  -1   10.08    2.46
  -7  -2   1   12.06    2.89
  -7   2   2  183.51   11.98
   7   2  -2  163.32   10.11
  -7   2  -2  169.57   16.00
  -7  -2  -2  177.78   10.77
   7   2   2  147.18   15.16
   7   2  -2  186.99   12.31
  -7   2  -2  142.81    9.99
  -7  -2  -2  169.61   11.29
  -7   2   2  171.89   11.17
  -7  -2   2  186.53   12.64
  -7   2   3  270.88   14.66
   7   2  -3  244.28   14.52
  -7   2  -3  267.41   18.28
  -7  -2  -3  247.06   15.48
   7   2   3  245.35   15.00
   7   2  -3  257.56   13.91
  -7   2  -3  278.46   20.45
  -7  -2   3  292.28   14.63
  -7  -2  -3  233.09   15.26
  -7   2   3  261.62   13.27
  -7  -2   3  274.57   15.35
  -7   2  -4   37.15    9.93
  -7  -2  -4   37.29    8.41
   7   2  -4   35.22    9.82
   7  -2  -4   38.08    8.00
  -7   2  -4   37.21    9.21
  -7  -2   4   37.75    9.53
  -7  -2  -4   41.66    9.57
   7   2  -4   26.77    7.89
  -7   2   4   34.56    8.88
  -7  -2   4   40.41    9.88
  -7   2  -5  417.00   26.26
  -7  -2  -5  404.04   24.80
   7   2  -5  418.51   26.15
   7  -2  -5  410.40   26.24
  -7   2  -5  362.29   23.16
  -7  -2   5  416.22   25.30
   7  -2  -5  418.60   25.23
  -7  -2  -5  379.54   24.70
   7   2  -5  371.64   22.38
  -7   2   5  399.50   24.48
  -7  -2   5  392.08   24.93
  -7   2  -6  363.18   23.47
   7   2  -6  351.60   23.17
   7  -2  -6  442.84   41.43
  -7   2  -6  342.26   24.66
  -7  -2   6  348.34   21.13
   7  -2  -6  339.61   20.54
   7   2  -6  340.60   20.38
   7  -2  -6  335.07   21.19
  -7  -2   6  390.02   27.21
  -7   2   6  363.39   23.20
  -7   2  -7  198.82   15.40
   7   2  -7  217.62   16.57
   7  -2  -7  241.48   25.59
  -7   2  -7  220.96   32.02
   7  -2  -7  199.36   12.65
  -7  -2  -7  222.80   22.68
   7  -2  -7  193.76   12.55
   7   2  -7  184.46   11.57
  -7  -2   7  219.84   16.16
  -7   2  -8   97.77   16.11
  -7  -2  -8  104.00   18.66
   7   2  -8   85.37   15.64
   7  -2  -8  103.00   20.27
  -7   2  -8   90.92   11.75
  -7  -2  -8   90.04   11.41
   7  -2  -8   83.01    4.26
   7  -2  -8   81.77    6.55
  -7  -2   8   82.98   14.80
  -7   2  -9  179.67   23.41
  -7  -2  -9  166.32   17.67
   7   2  -9  148.70   11.95
   7  -2  -9  164.37   21.98
  -7   2  -9  144.71   28.34
  -7  -2  -9  139.84   28.95
   7  -2  -9  138.49    2.12
  -7  -2   9  169.87   28.57
  -7   2   9  140.18    6.84
  -7   2 -10   44.08   11.48
  -7  -2 -10   45.40    9.72
   7   2 -10   37.47    8.01
   7  -2 -10   57.12   10.41
  -7   2 -10   41.25    7.99
  -7  -2 -10   53.63    8.77
  -7  -2  10   51.05   11.51
  -7   2  10   51.39    9.20
  -7   2 -11    8.68    4.58
  -7  -2 -11    6.50    3.34
   7   2 -11    3.00    3.42
   7  -2 -11    8.24    5.16
  -7   2 -11    7.51    3.85
  -7  -2 -11    0.38    1.93
  -7   2  11    6.33    4.65
  -7   2 -12   44.19    8.68
  -7  -2 -12   47.84   10.08
   7   2 -12   40.26    9.56
   7  -2 -12   43.94   13.46
  -7   2 -12   47.61    9.84
  -7  -2 -12   49.83   18.00
  -7  -2  12   52.93   10.80
  -7   2  12   47.96   10.07
  -7   2 -13    4.85    4.42
  -7  -2 -13    6.87    2.95
   7   2 -13    3.66    2.96
   7  -2 -13   -0.89    5.24
  -7   2 -13    4.71    3.57
  -7  -2 -13    6.76    3.55
  -7  -2  13    9.10    4.05
  -7   2  13    8.62    4.65
  -7   2 -14   32.75   10.66
  -7  -2 -14   21.41    6.32
   7   2 -14   29.55   12.62
   7  -2 -14   40.52    8.14
  -7   2 -14   32.48   12.32
  -7  -2 -14   33.71    7.05
  -7  -2  14   36.15   11.48
  -7   2  14   33.69    7.36
  -7   2 -15   16.71    6.59
  -7  -2 -15    8.96    6.29
   7   2 -15    9.63    4.18
   7  -2 -15    5.96    6.19
  -7   2 -15    8.94    3.60
  -7  -2 -15    7.46    3.93
  -7  -2  15   13.25    4.72
  -7   2  15   10.44    3.33
  -7   2 -16    6.39    5.32
  -7  -2 -16    4.69    3.11
   7   2 -16    3.52    3.79
   7  -2 -16    7.97    3.77
  -7   2 -16    4.73    3.01
  -7  -2 -16   14.77    5.17
  -7  -2  16    9.37    4.48
  -7   2  16    4.49    3.01
  -7   2 -17   18.42    7.26
  -7  -2 -17    9.31    5.15
   7   2 -17   13.91    5.94
   7  -2 -17   10.53   10.31
  -7   2 -17   15.35    8.01
  -7  -2 -17   15.43    3.80
  -7  -2  17   22.12    9.09
  -7   2  17   17.59    5.45
  -7   2 -18    9.61    4.75
  -7  -2 -18   14.10    4.28
   7   2 -18    6.66    5.08
   7  -2 -18    4.49    5.15
  -7   2 -18    8.37    4.31
  -7  -2 -18   10.18    3.23
  -7  -2  18    9.55    3.87
  -7   2  18    6.30    3.47
  -7   2 -19   18.03    5.04
  -7  -2 -19    9.34    4.30
   7   2 -19    9.52    3.71
   7  -2 -19   26.36    8.97
  -7   2 -19   16.81    5.59
  -7  -2 -19   17.65    4.26
  -7  -2  19   16.48    9.87
  -7   2  19   14.35    7.46
  -7   3   0  133.12    9.51
   7   3   0  145.84    8.60
   7   3   0  141.39    8.38
  -7  -3   0  124.08   10.12
  -7  -3   0  139.62   10.40
   7  -3   0  138.07    9.01
  -7  -3  -1  182.14   10.59
  -7   3   1  186.69   23.00
  -7   3  -1  169.13   12.46
   7   3  -1  165.89   11.77
   7   3   1  174.67   10.22
   7   3  -1  168.91   10.07
  -7  -3  -1  173.49   12.00
  -7  -3   1  185.45   11.81
  -7  -3  -1  164.03   15.12
  -7  -3   1  163.58   11.39
   7  -3  -1  182.55   11.17
  -7   3   2   95.51   17.63
   7   3  -2   82.73    6.54
  -7  -3  -2  101.10    6.63
  -7   3  -2  115.15   16.25
   7   3   2  107.41    8.72
   7   3  -2  100.22    7.14
  -7  -3  -2  110.62   14.53
  -7   3   2   96.56    6.59
  -7  -3   2  116.41   19.15
   7  -3  -2  101.78   13.34
  -7   3   3   65.50   12.55
   7   3  -3   42.87    6.80
  -7   3  -3   65.96   15.96
  -7  -3  -3   67.12    6.60
   7   3   3   56.42    8.52
   7   3  -3   52.52   10.09
  -7   3  -3   71.06   12.39
  -7  -3  -3   60.56   11.01
  -7  -3   3   65.09    8.50
  -7   3   3   60.98    5.94
  -7  -3   3   85.48   16.24
   7  -3  -3   50.41    7.87
   7   3  -4  390.04   24.38
  -7   3  -4  445.11   27.98
  -7  -3  -4  453.66   27.25
   7   3   4  409.57   24.72
   7   3  -4  446.46   26.95
   7  -3  -4  463.20   29.22
  -7   3  -4  434.35   27.65
  -7  -3  -4  435.66   27.28
  -7  -3   4  437.85   26.37
   7   3  -4  416.68   25.28
  -7   3   4  447.48   26.92
  -7  -3   4  474.71   29.73
   7  -3  -4  409.26   24.69
  -7   3  -5   84.86   14.64
  -7  -3  -5   64.65   12.63
   7   3  -5   64.66    8.82
   7  -3  -5   85.86   14.39
  -7   3  -5   78.82   12.12
  -7  -3   5   83.42    6.23
  -7  -3  -5   63.49   13.39
   7   3  -5   62.32    3.29
  -7   3   5   71.39    9.02
  -7  -3   5  103.79   14.10
  -7   3  -6   15.30    4.26
  -7  -3  -6   15.03    4.26
   7   3  -6   23.57    5.27
   7  -3  -6    8.66    4.78
  -7   3  -6   13.28    4.02
   7  -3  -6    7.74    2.57
  -7  -3   6   11.27    2.72
  -7  -3  -6   13.85    4.27
   7   3  -6   10.67    3.19
   7  -3  -6   15.60    4.39
  -7   3   6   12.68    3.51
  -7  -3   6   13.47    4.13
  -7   3  -7   72.45   14.63
   7   3  -7   50.41   14.14
   7  -3  -7   67.50   15.12
  -7   3  -7   66.63   10.56
   7  -3  -7   50.25    5.12
  -7  -3   7   54.12    4.64
  -7  -3  -7   64.02    9.18
   7  -3  -7   50.56    5.26
   7   3  -7   47.22    5.14
  -7  -3   7   58.93   16.33
  -7   3   7   63.96   13.60
  -7   3  -8  212.42   11.64
   7   3  -8  208.38   23.69
   7  -3  -8  277.06   29.61
  -7   3  -8  214.47   18.40
   7  -3  -8  195.87    6.47
  -7  -3  -8  220.81   32.15
   7  -3  -8  221.36    5.63
  -7  -3   8  225.69   10.77
  -7   3   8  217.91   13.00
  -7   3  -9   57.84   10.43
  -7  -3  -9   52.15   14.49
   7   3  -9   41.17    9.91
   7  -3  -9   75.12   14.77
  -7   3  -9   69.32   14.53
   7  -3  -9   43.35    5.56
  -7  -3  -9   54.04    9.85
   7  -3  -9   48.83    5.10
  -7  -3   9   54.69   11.27
  -7   3   9   66.73    8.55
  -7   3 -10   28.14   12.01
  -7  -3 -10   19.93    6.20
   7   3 -10   18.33    5.70
   7  -3 -10   21.25    8.33
  -7   3 -10   22.57    6.61
  -7  -3 -10   27.60    5.01
   7  -3 -10   14.31    4.76
  -7  -3  10   16.01    4.90
  -7   3 -11   55.15   12.24
  -7  -3 -11   46.95    6.63
   7   3 -11   48.92   10.01
   7  -3 -11   76.71   21.14
  -7   3 -11   39.43    6.41
  -7  -3 -11   50.39   12.12
  -7  -3  11   64.63   11.42
  -7   3 -12   13.89    4.97
  -7  -3 -12   28.76    7.56
   7   3 -12   19.35    4.66
   7  -3 -12   14.60    6.25
  -7   3 -12   10.43    2.91
  -7  -3 -12   12.30    3.91
  -7  -3  12   18.18    5.34
  -7   3  12   22.00    5.11
  -7   3 -13   81.37   23.30
  -7  -3 -13   58.08   20.98
   7   3 -13   58.36   17.92
   7  -3 -13   70.56   18.87
  -7   3 -13   75.73   16.94
  -7  -3 -13   47.65   12.57
  -7  -3  13   63.76   14.96
  -7   3  13   50.89   11.27
  -7   3 -14    4.22    2.60
  -7  -3 -14   10.98    5.14
   7   3 -14    5.00    3.06
   7  -3 -14    3.07    3.13
  -7   3 -14    8.45    4.00
  -7  -3 -14   12.49    5.58
  -7  -3  14    9.17    4.30
  -7   3  14    6.32    2.06
  -7   3 -15   40.72   13.48
  -7  -3 -15   32.08    6.87
   7   3 -15   35.24   13.08
   7  -3 -15   48.08   13.11
  -7   3 -15   36.97    9.52
  -7  -3 -15   36.14    8.59
  -7  -3  15   40.07    7.81
  -7   3  15   41.80   11.31
  -7   3 -16   45.26   15.00
  -7  -3 -16   40.73    8.63
   7   3 -16   36.89    9.72
   7  -3 -16   42.65   11.34
  -7   3 -16   43.91   15.08
  -7  -3 -16   42.09   13.33
  -7  -3  16   55.29   16.81
  -7   3  16   38.44    8.47
  -7   3 -17    8.34    3.65
  -7  -3 -17    8.64    5.53
   7   3 -17    6.18    4.71
   7  -3 -17   14.43    7.61
  -7  -3 -17    4.35    3.27
  -7  -3  17    4.62    2.76
  -7   3  17    5.56    2.78
  -7   3 -18    7.87    4.47
  -7  -3 -18    7.86    3.62
   7   3 -18    3.99    4.02
   7  -3 -18   17.79    5.70
  -7  -3 -18    3.07    2.98
  -7  -3  18    5.15    2.94
  -7   3  18    3.22    2.02
  -7   4   0  469.13   23.82
  -7  -4   0  463.62   23.17
  -7  -4   0  463.48   24.07
   7  -4   0  449.53   22.08
  -7   4   1   64.27   13.98
  -7   4  -1   75.91   14.29
   7   4  -1   77.29    4.65
   7   4  -1   62.75    5.44
  -7  -4  -1   76.73   11.60
  -7  -4   1   68.46   12.70
  -7  -4  -1   74.17   16.62
   7  -4   1   50.64    9.78
  -7  -4   1   54.06   10.36
   7  -4  -1   53.30    5.50
  -7   4   2    2.54    1.69
  -7  -4  -2    4.24    1.33
   7   4  -2    2.40    0.58
  -7   4  -2    7.14    2.47
   7   4  -2    1.31    1.02
   7   4   2    3.05    0.82
  -7  -4  -2    6.02    1.82
  -7  -4   2    6.01    3.58
  -7  -4   2    6.88    4.21
   7  -4  -2    0.67    0.93
  -7   4   3  103.03   19.32
   7   4  -3   86.20    5.51
  -7   4  -3  103.56   20.49
  -7  -4  -3  100.15    2.90
   7   4  -3   83.37    4.01
   7   4   3   93.55    6.18
  -7  -4  -3  122.96   18.21
  -7   4   3  101.94    4.67
  -7  -4   3  114.55   17.92
   7  -4  -3   86.11    4.54
  -7   4   4  342.40   24.31
  -7   4  -4  418.24   28.13
  -7  -4  -4  363.77   22.10
   7   4  -4  316.32   19.33
   7   4   4  353.42   21.42
  -7  -4  -4  340.10   22.19
  -7  -4   4  387.92   23.71
  -7   4   4  337.58   20.89
  -7  -4   4  415.31   26.83
  -7   4  -5   29.55    9.05
  -7  -4  -5   37.77    9.93
   7   4  -5   37.24    8.94
   7   4   5   27.20    6.46
   7  -4  -5   47.88   11.57
  -7  -4  -5   42.07   13.88
  -7  -4   5   40.88    8.96
   7  -4  -5   39.81    8.20
  -7   4   5   36.97    7.01
  -7  -4   5   40.89    8.86
  -7   4  -6   16.69    5.00
  -7  -4  -6   15.05    3.78
   7   4  -6   18.55    5.47
   7  -4  -6   10.87    4.67
  -7  -4  -6   22.06    5.81
  -7  -4   6   13.35    3.65
   7   4  -6   10.11    3.47
   7  -4  -6   16.55    5.66
  -7   4   6   20.58    4.54
  -7  -4   6   20.28    5.03
  -7   4  -7   -0.52    4.75
  -7  -4  -7    5.61    2.27
   7   4  -7    6.44    2.72
   7  -4  -7   -3.12    5.86
  -7  -4  -7    7.85    4.46
  -7  -4   7    2.09    0.98
   7  -4  -7    4.93    3.61
   7   4  -7   -1.31    1.35
  -7  -4   7   11.59    4.29
  -7   4   7    0.85    1.56
  -7   4  -8   84.25   13.77
   7   4  -8   88.84   12.40
   7  -4  -8   94.35   23.97
  -7   4  -8   63.77   11.04
  -7  -4   8   76.50    2.71
  -7  -4  -8   82.19   10.14
   7  -4  -8   85.08    6.02
  -7  -4   8  104.79   16.25
  -7   4   8   88.52   11.22
  -7   4  -9   22.75    6.63
  -7  -4  -9    9.78    5.10
   7   4  -9    3.78    3.96
   7  -4  -9   17.31    8.92
  -7   4  -9   18.82    5.92
  -7  -4  -9   25.84    6.90
   7  -4  -9   10.64    3.57
  -7  -4   9    7.03    2.76
  -7   4   9   17.78    4.97
  -7   4 -10   13.83    4.46
  -7  -4 -10   11.16    4.51
   7   4 -10   11.63    3.23
   7  -4 -10   18.14    5.67
  -7   4 -10    9.28    3.15
  -7  -4 -10    9.40    4.61
   7  -4 -10    5.75    2.05
  -7  -4  10    8.68    5.41
  -7   4  10   11.71    3.47
  -7   4 -11    3.51    3.46
  -7  -4 -11    4.13    2.03
   7   4 -11    5.84    2.37
   7  -4 -11   10.23    5.04
  -7  -4 -11    6.36    4.84
   7  -4 -11    5.11    1.75
  -7  -4  11   14.68    3.59
  -7   4  11    4.13    1.93
  -7   4 -12   74.11   15.53
  -7  -4 -12   59.88   12.78
   7   4 -12   37.48   11.46
   7  -4 -12   54.50   18.06
  -7  -4 -12   42.20    9.67
  -7  -4  12   37.97   13.55
  -7   4 -13   32.70    9.80
  -7  -4 -13   26.30    7.26
   7   4 -13   30.41    7.15
   7  -4 -13   25.51   11.25
  -7  -4 -13   26.39    6.17
  -7  -4  13   16.31    6.25
  -7   4 -14    6.94    4.53
  -7  -4 -14    6.31    2.38
   7   4 -14    8.12    3.43
   7  -4 -14    8.27    6.86
  -7  -4 -14    3.82    2.70
  -7  -4  14    7.28    4.54
  -7   4  14    3.20    2.43
  -7   4 -15   35.48    7.96
  -7  -4 -15   21.66    4.38
   7   4 -15   25.10    8.12
   7  -4 -15   21.86    8.03
  -7  -4 -15   19.74    4.78
  -7  -4  15   27.74    5.93
  -7   4  15   20.30    7.82
  -7   4 -16   52.82   12.15
  -7  -4 -16   46.96   17.18
   7   4 -16   40.64   11.24
   7  -4 -16   51.03   23.77
  -7  -4 -16   64.76   14.90
  -7  -4  16   60.53   10.64
  -7   4  16   35.91   14.88
  -7   4 -17    9.72    3.28
  -7  -4 -17    4.50    2.74
   7   4 -17    2.14    2.50
   7  -4 -17    6.11    5.26
  -7  -4 -17    3.88    3.54
  -7  -4  17    4.45    3.82
  -7   4  17    7.23    3.26
  -7   4 -18    9.34    5.96
  -7  -4 -18    0.44    2.43
   7   4 -18    8.40    6.26
   7  -4 -18    7.38    5.65
  -7  -4 -18    3.60    2.34
  -7  -4  18    4.81    2.87
  -7   4  18    7.82    3.51
  -7   5   0   70.72   14.70
  -7  -5   0   54.06   13.71
  -7  -5   0   77.30   11.38
   7  -5   0   54.30    5.48
  -7   5   1   69.71   15.65
  -7   5  -1   64.16   13.84
  -7  -5  -1  102.63   14.95
  -7  -5   1   68.80   14.60
  -7  -5  -1   77.57   12.23
   7  -5   1   57.73    5.28
  -7  -5   1   66.98   18.66
   7  -5  -1   56.73    5.01
  -7   5   2  280.12   18.64
  -7   5  -2  253.13   17.42
  -7  -5  -2  260.34   22.61
  -7  -5   2  275.33   17.83
  -7  -5   2  242.93   16.61
   7  -5  -2  260.46   15.56
  -7   5   3  312.51   21.67
   7   5  -3  277.13   16.53
  -7   5  -3  263.58   17.79
  -7  -5  -3  291.55   17.32
   7   5  -3  279.88   17.21
   7   5   3  251.50   15.42
  -7  -5  -3  283.29   23.85
  -7  -5   3  278.57   20.27
  -7   5   4  142.27   18.29
  -7   5  -4  164.68   32.29
  -7  -5  -4  156.46    4.07
   7   5  -4  162.84    6.35
   7   5   4  146.17    5.90
  -7  -5  -4  162.04   22.87
  -7  -5   4  163.39    8.20
  -7   5   4  152.24    3.86
  -7  -5   4  160.92   13.65
  -7   5  -5   28.95    6.65
  -7  -5  -5   29.23    6.18
   7   5  -5   26.26    5.69
   7   5   5   17.12    4.97
  -7  -5   5   14.80    4.45
   7  -5  -5   28.71    6.88
  -7  -5  -5   33.62    6.87
  -7  -5   5   30.41    6.35
   7  -5  -5   21.24    3.78
  -7   5   5   20.56    4.53
  -7  -5   5   27.43    8.92
  -7   5  -6   47.41    8.58
  -7  -5  -6   38.11    9.83
   7   5  -6   30.09    7.18
   7  -5  -6   46.40    8.86
  -7  -5  -6   31.54   10.23
  -7  -5   6   31.89    6.67
   7  -5  -6   30.50    9.80
  -7   5   6   35.76    7.71
  -7  -5   6   39.98    9.10
  -7   5  -7   31.45    9.49
  -7  -5  -7   25.30    6.28
   7   5  -7   23.81    8.04
   7  -5  -7   39.46    8.49
  -7  -5  -7   26.21    6.69
  -7  -5   7   23.17    7.29
   7  -5  -7   21.58    7.50
   7   5  -7   15.93    4.54
  -7  -5   7   40.80    8.55
  -7   5   7   27.86    8.23
  -7   5  -8   10.06    3.14
  -7  -5  -8   12.09    5.64
   7   5  -8    7.91    4.08
   7  -5  -8   10.55    4.65
  -7  -5  -8   13.11    4.56
  -7  -5   8   10.39    2.63
   7  -5  -8    8.63    3.44
  -7  -5   8   17.55    5.07
  -7   5   8   11.88    3.96
  -7   5  -9  189.76   31.41
   7   5  -9  147.37   18.18
   7  -5  -9  207.78   34.34
  -7  -5  -9  150.20   14.73
  -7  -5   9  153.84    8.17
   7  -5  -9  156.18   17.84
  -7  -5   9  179.27   33.55
  -7   5   9  170.53   10.27
  -7   5 -10   36.61    7.24
  -7  -5 -10   25.98    8.38
   7   5 -10   28.55    9.17
   7  -5 -10   55.62    9.61
  -7  -5 -10   37.60    9.05
  -7  -5  10   24.86    2.55
   7  -5 -10   30.09    7.13
  -7  -5  10   40.08    8.34
  -7   5  10   43.47    9.83
  -7   5 -11   10.27    2.84
  -7  -5 -11   11.12    4.47
   7   5 -11    7.18    4.20
   7  -5 -11   11.80    6.89
  -7  -5 -11   10.71    5.22
   7  -5 -11    8.10    3.17
  -7  -5  11   17.69    4.24
  -7   5  11   18.54    4.97
  -7   5 -12    2.32    3.32
  -7  -5 -12   -1.34    3.73
   7   5 -12    5.53    2.65
   7  -5 -12    1.61    3.65
  -7  -5 -12    9.72    5.34
  -7  -5  12   10.47    4.75
  -7   5  12    8.43    3.83
  -7   5 -13   -0.91    4.30
  -7  -5 -13   11.09    4.77
   7   5 -13   12.96    3.35
   7  -5 -13   11.07    4.78
  -7  -5 -13   13.22    5.77
  -7  -5  13   10.96    5.03
  -7   5  13    4.26    2.24
  -7   5 -14   89.10   18.93
  -7  -5 -14   55.15   15.62
   7   5 -14   65.25   15.91
   7  -5 -14   78.89   16.52
  -7  -5 -14   69.92   15.70
  -7  -5  14   91.76   15.91
  -7   5  14   64.08   15.69
  -7   5 -15   11.61    4.77
  -7  -5 -15   25.65    6.53
   7   5 -15   29.92    7.78
   7  -5 -15   34.49    8.31
  -7  -5 -15   24.03    6.05
  -7  -5  15   35.15    8.14
  -7   5 -16   13.42    5.48
  -7  -5 -16   25.67    9.75
   7   5 -16   33.07    6.47
   7  -5 -16   31.91   12.15
  -7  -5 -16   21.72    4.21
  -7  -5  16   29.20    6.73
  -7   5 -17    9.08    3.37
  -7  -5 -17    3.97    3.94
   7   5 -17    7.06    2.41
   7  -5 -17   11.58    5.89
  -7  -5 -17    3.77    2.70
  -7  -5  17    2.63    2.52
  -7   5  17    3.00    3.04
  -7   5 -18   12.97    4.29
  -7  -5 -18   18.83    6.46
   7   5 -18   11.68    2.86
   7  -5 -18   11.18    5.36
  -7  -5 -18    8.73    3.87
  -7  -5  18   12.19    5.51
  -7   5  18   10.76    4.04
  -7   6   0   61.37   13.41
  -7  -6   0   87.11   12.85
  -7  -6   0   52.65    9.93
   7  -6   0   65.58    5.00
  -7   6   1   92.97   24.66
  -7   6  -1  101.18   15.23
  -7  -6  -1   99.13   16.68
  -7  -6   1   88.03   16.20
   7  -6   1   71.66    4.15
  -7  -6  -1   94.25   16.81
  -7  -6   1   87.92   19.95
   7  -6  -1   89.69    2.67
  -7   6   2  110.25   14.11
  -7   6  -2  144.66   26.05
  -7  -6  -2  110.10   14.95
  -7  -6   2  128.46   24.36
  -7  -6  -2  109.17   15.77
  -7  -6   2  123.50   22.22
  -7   6   3   59.59   13.78
   7   6  -3   43.33    3.57
  -7  -6  -3   46.33    2.34
  -7   6  -3   61.72   10.38
   7   6  -3   53.24    3.70
  -7  -6  -3   45.87    8.38
  -7  -6   3   61.51   12.77
  -7  -6   3   63.28   13.61
  -7   6   4   17.38    5.22
  -7   6  -4   19.65    4.05
  -7  -6  -4   11.55    2.24
   7   6  -4    7.74    2.18
  -7  -6   4    8.60    1.74
   7   6   4    8.91    1.79
  -7  -6  -4   16.97    4.56
   7  -6  -4   22.34    5.37
  -7  -6   4   16.06    6.95
  -7   6  -5  109.91   13.87
  -7  -6  -5  115.93   11.07
   7   6  -5  102.26    6.40
  -7  -6   5   82.74    9.29
   7   6   5   88.39    6.66
   7  -6  -5  120.51   27.43
  -7  -6  -5  106.18   20.10
  -7  -6   5  103.46   17.40
   7  -6  -5  103.66   15.71
  -7  -6   5  118.80   28.47
  -7   6  -6  311.86   12.51
  -7  -6  -6  329.08   11.34
   7   6  -6  339.05    7.61
   7  -6  -6  385.34   92.21
  -7  -6  -6  336.19   13.49
  -7  -6   6  341.82   10.38
   7  -6  -6  346.02   10.71
  -7   6   6  325.53    5.04
  -7  -6   6  380.59   89.09
  -7   6  -7    4.97    3.12
  -7  -6  -7   14.06    4.78
   7   6  -7    5.83    3.79
   7  -6  -7   17.10    6.33
  -7  -6  -7   22.83    7.45
  -7  -6   7   11.33    3.23
   7  -6  -7    8.25    4.25
  -7   6   7   14.19    3.73
  -7  -6   7    6.07    3.75
  -7   6  -8    6.25    3.17
  -7  -6  -8    5.79    2.77
   7   6  -8    8.87    3.68
   7  -6  -8    8.07    5.58
  -7  -6  -8    7.84    3.64
  -7  -6   8    1.65    1.72
   7  -6  -8    6.56    4.53
  -7  -6   8    4.08    2.48
  -7   6   8    4.41    1.63
  -7   6  -9   23.73    6.25
  -7  -6  -9   16.10    4.20
   7   6  -9   19.18    4.05
   7  -6  -9   23.34    7.95
  -7  -6  -9   20.84    8.12
  -7  -6   9   10.64    2.08
   7  -6  -9   17.27    6.96
  -7  -6   9   18.91    5.23
  -7   6   9   13.51    3.02
  -7   6 -10   92.64   22.62
   7   6 -10   82.56   15.28
   7  -6 -10   88.26   20.34
  -7  -6 -10   98.52   27.13
  -7  -6  10   78.15    9.35
   7  -6 -10   61.81   12.32
  -7  -6  10   86.85   18.08
  -7   6  10   70.60   14.50
  -7   6 -11   12.54    6.26
  -7  -6 -11    5.72    3.28
   7   6 -11   10.24    4.77
   7  -6 -11   14.06    6.30
  -7  -6 -11   -1.82    3.69
   7  -6 -11    2.34    2.22
  -7  -6  11    4.77    3.93
  -7   6  11    6.48    3.13
  -7   6 -12    8.91    4.10
  -7  -6 -12    3.41    2.64
   7   6 -12    4.85    4.05
   7  -6 -12    2.61    3.79
  -7  -6 -12    5.00    2.71
  -7  -6  12    8.34    4.00
  -7   6  12    3.07    1.62
  -7   6 -13   39.46    7.30
  -7  -6 -13   22.01    7.29
   7   6 -13   21.32    4.67
   7  -6 -13   45.31    9.34
  -7  -6 -13   28.89    8.35
  -7  -6  13   28.48   12.78
  -7   6  13   15.52    4.45
  -7   6 -14    2.49    2.83
  -7  -6 -14    9.26    4.75
   7   6 -14    8.10    4.26
   7  -6 -14   16.72    6.93
  -7  -6 -14    8.94    5.10
  -7  -6  14    2.41    2.83
  -7   6  14    0.54    1.62
  -7   6 -15   21.98    7.09
  -7  -6 -15   22.59    9.79
   7  -6 -15    9.70    5.34
  -7  -6 -15   22.23    7.84
  -7  -6  15   30.83    8.88
  -7   6  15   22.87    5.89
  -7   6 -16    5.11    3.22
  -7  -6 -16    5.83    3.21
   7   6 -16    3.77    3.05
   7  -6 -16    7.48    4.95
  -7  -6 -16    6.12    3.02
  -7  -6  16    3.93    2.68
  -7   6 -17    5.07    4.09
  -7  -6 -17    4.92    5.08
   7   6 -17    4.88    3.12
   7  -6 -17    8.61    4.88
  -7  -6 -17    4.74    3.78
  -7  -6  17    6.66    4.44
  -7   6 -18   48.43   15.61
  -7  -6 -18   38.57   17.68
   7   6 -18   30.09   20.88
   7  -6 -18   56.11   18.33
  -7  -6 -18   45.05   15.63
  -7  -6  18   58.14   25.36
  -7   7   0   60.32   11.30
  -7  -7   0   49.77   10.93
  -7  -7   0   60.48   11.32
   7  -7   0   53.48    3.02
  -7   7   1    7.84    3.46
  -7   7  -1   15.88    5.50
  -7  -7  -1    7.66    3.06
  -7  -7   1   12.30    3.44
   7  -7   1    8.23    2.28
  -7  -7  -1   13.12    3.14
  -7  -7   1    9.22    4.55
  -7   7   2  250.25   22.85
  -7   7  -2  243.33   17.94
  -7  -7  -2  259.76   24.50
  -7  -7   2  274.27   19.08
  -7  -7  -2  259.36   36.62
  -7  -7   2  258.20   41.37
   7   7  -3  128.76    8.34
  -7   7   3  135.20   31.93
  -7   7  -3  158.33   31.99
   7   7  -3  149.71    9.26
  -7  -7  -3  166.06   30.84
  -7  -7   3  178.84   13.47
   7  -7  -3  177.08   22.20
  -7  -7   3  157.87   26.38
  -7   7   4   28.06    7.79
  -7  -7  -4   18.70    5.14
  -7   7  -4   29.59    8.61
   7   7  -4   29.77    7.76
  -7  -7  -4   23.56    6.39
  -7  -7   4   15.08    4.25
  -7  -7  -4   29.86    7.45
  -7  -7   4   15.54    5.56
   7  -7  -4   16.75    8.33
  -7  -7   4   31.84   10.47
  -7  -7  -5   20.82    6.04
  -7   7  -5   40.60    9.47
   7   7  -5   41.23    6.86
  -7  -7  -5   43.62    8.33
  -7  -7   5   23.59    7.71
   7  -7  -5   58.80    8.36
  -7  -7  -5   51.75   10.88
  -7  -7   5   27.77    9.09
   7  -7  -5   44.47    6.93
  -7  -7   5   40.77    8.47
  -7   7  -6   43.47    7.35
   7   7  -6   26.09    6.32
  -7  -7  -6   33.63    6.86
   7  -7  -6   41.82    9.69
  -7  -7  -6   27.31   10.06
  -7  -7   6   37.72   11.36
   7  -7  -6   33.00    8.24
  -7  -7   6   40.09   11.51
  -7   7  -7   37.22    7.06
   7   7  -7   31.29    8.44
  -7  -7  -7   37.13    7.81
   7  -7  -7   42.11    6.86
  -7  -7  -7   46.14    6.56
  -7  -7   7   36.36    7.67
   7  -7  -7   24.37    6.00
  -7   7   7   25.18    2.97
  -7  -7   7   37.20   10.32
  -7   7  -8    9.86    3.73
   7   7  -8   11.69    3.75
  -7  -7  -8   12.63    2.77
   7  -7  -8    9.90    6.14
  -7  -7  -8    3.79    4.68
  -7  -7   8   13.39    5.38
   7  -7  -8   -0.26    3.39
  -7   7   8    7.64    2.15
  -7  -7   8   12.26    5.90
  -7   7  -9   66.94   20.96
   7   7  -9   66.70   16.36
  -7  -7  -9   69.62   15.02
   7  -7  -9  101.87   21.53
  -7  -7  -9   89.69   14.63
  -7  -7   9   80.62    5.44
   7  -7  -9   59.53   15.77
  -7  -7   9   77.18   14.53
  -7   7   9   78.14    6.09
  -7   7 -10  117.81   27.13
   7   7 -10   77.75   17.97
  -7  -7 -10  107.71   16.17
   7  -7 -10  112.90   19.77
  -7  -7 -10  102.90   18.11
  -7  -7  10   89.75    6.48
   7  -7 -10   64.53   17.35
  -7  -7  10   96.37   18.68
  -7   7  10   92.60   10.84
  -7   7 -11    4.92    3.76
   7   7 -11    4.03    1.69
   7  -7 -11   14.96    6.21
  -7  -7 -11   10.62    4.05
   7  -7 -11    8.10    2.43
  -7  -7  11    8.12    5.36
  -7   7  11    2.46    1.85
  -7   7 -12   42.89   14.23
   7   7 -12   30.40   11.34
  -7  -7 -12   37.01    8.03
   7  -7 -12   46.36   12.76
  -7  -7 -12   39.84    7.00
   7  -7 -12   32.97    8.43
  -7  -7  12   42.57   12.43
  -7   7  12   41.93    9.08
  -7   7 -13    7.29    3.08
   7   7 -13   14.10    4.33
  -7  -7 -13    8.44    3.70
   7  -7 -13    1.27    3.60
  -7  -7 -13    4.48    2.42
  -7  -7  13   10.48    5.36
  -7   7  13    5.14    1.72
  -7   7 -14   59.77   18.71
   7   7 -14   66.13   18.78
  -7  -7 -14   70.07   16.04
   7  -7 -14   71.11   16.31
  -7  -7 -14   80.96   18.78
  -7  -7  14   76.30   12.98
  -7   7 -15   28.63    6.92
   7   7 -15   24.95    8.10
  -7  -7 -15   20.96    7.82
   7  -7 -15   19.97    6.35
  -7  -7 -15   27.82    7.49
  -7  -7  15   25.66    5.89
  -7   7 -16   11.15    4.41
   7   7 -16    7.11    3.14
   7  -7 -16   27.39   12.74
  -7  -7 -16    1.03    2.43
  -7  -7  16    4.88    3.68
  -7   7 -17    3.43    2.90
   7   7 -17   11.45    3.33
  -7  -7 -17   16.66    7.99
   7  -7 -17    3.33    3.93
  -7  -7 -17   19.71    9.10
  -7  -7  17   10.85    6.14
  -7   8   0  122.28   19.68
  -7  -8   0  133.43   15.65
  -7  -8   0  137.35   14.09
  -7   8   1   66.67   21.70
  -7   8  -1   61.70   17.16
  -7  -8  -1   56.70   14.24
  -7  -8   1   65.80   15.22
   7  -8   1   38.79    3.73
  -7  -8  -1   59.78   11.52
  -7  -8   1   56.56   13.68
   7  -8   1   45.30    6.46
  -7   8   2   46.86   12.63
  -7   8  -2   37.62   10.30
  -7  -8  -2   60.32   10.67
  -7  -8   2   50.12   11.93
   7  -8  -2   40.61    8.95
  -7  -8  -2   43.77    7.93
  -7  -8   2   42.68    9.53
  -7   8  -3  169.74   24.62
  -7  -8  -3  186.50   25.01
  -7  -8   3  178.87   28.57
   7  -8  -3  161.61   12.47
  -7  -8   3  151.87   27.18
  -7   8   4  165.18   17.59
  -7  -8  -4  142.93    7.92
  -7   8  -4  155.49   31.32
   7   8  -4  166.47    9.25
  -7  -8  -4  141.36    7.68
  -7  -8   4  126.08    7.22
  -7  -8  -4  165.26   13.66
  -7  -8   4  182.00   12.19
   7  -8  -4  158.82   22.14
  -7  -8   4  158.77   23.87
  -7  -8  -5   11.72    3.86
  -7   8  -5   30.26    5.88
   7   8  -5   23.15    5.24
  -7  -8  -5   19.96    6.41
  -7  -8  -5   25.48    5.65
   7  -8  -5   29.99    6.42
  -7  -8   5   22.54    6.44
  -7   8  -6    8.48    3.19
   7   8  -6   13.75    4.00
  -7  -8  -6   10.94    4.21
   7  -8  -6   14.01    5.53
  -7  -8  -6   15.78    6.40
  -7  -8   6   15.19    4.95
   7  -8  -6   12.31    5.00
  -7  -8   6    3.63    5.62
  -7   8  -7   70.74   14.34
   7   8  -7   52.44   11.44
  -7  -8  -7   47.48   11.42
   7  -8  -7   70.55   13.66
  -7  -8  -7   55.20   10.54
  -7  -8   7   56.48   18.74
   7  -8  -7   49.28    9.00
  -7  -8   7   60.62   10.29
  -7   8  -8  100.40   17.58
   7   8  -8  108.52   11.28
  -7  -8  -8  107.06   13.18
   7  -8  -8   97.37   17.96
  -7  -8  -8  121.28   17.58
  -7  -8   8  107.01   18.03
   7  -8  -8  102.07   23.70
  -7  -8   8  105.39   19.82
  -7   8  -9   59.99   11.83
   7   8  -9   48.32   13.18
  -7  -8  -9   50.60   11.64
   7  -8  -9   68.76   11.12
  -7  -8  -9   36.70    9.10
  -7  -8   9   45.16   14.52
   7  -8  -9   51.91   10.57
  -7  -8   9   80.28   15.74
  -7   8 -10   52.19   11.84
   7   8 -10   49.17   13.51
  -7  -8 -10   64.30   13.75
   7  -8 -10   72.33   18.36
  -7  -8 -10   73.36   19.58
  -7  -8  10   48.05   11.27
   7  -8 -10   50.43   15.59
  -7  -8  10   57.04   13.29
  -7   8 -11   24.22   10.63
   7   8 -11   16.80    8.32
  -7  -8 -11   23.27    6.66
   7  -8 -11   18.11    6.69
  -7  -8 -11   11.97    4.80
   7  -8 -11   13.28    5.59
  -7  -8  11   19.66    7.67
  -7   8 -12   76.91   14.70
   7   8 -12   58.11   19.89
   7  -8 -12   91.48   19.96
  -7  -8 -12   99.55   24.22
   7  -8 -12   54.44   17.18
  -7  -8  12   87.86   16.35
  -7   8 -13   35.00    7.99
   7   8 -13   26.12   13.47
  -7  -8 -13   21.36    8.53
   7  -8 -13   43.11   13.61
  -7  -8 -13   46.12    8.96
  -7  -8  13   24.99   10.55
  -7   8 -14    6.86    2.87
   7   8 -14    8.00    3.90
  -7  -8 -14   11.91    3.87
   7  -8 -14    2.31    4.96
  -7  -8 -14    9.12    3.01
  -7  -8  14    2.98    4.68
  -7   8 -15   66.56   18.44
   7   8 -15   28.88    6.67
  -7  -8 -15   31.83    8.03
   7  -8 -15   51.05   12.32
  -7  -8 -15   37.10    7.19
  -7  -8  15   56.58   14.64
  -7   8 -16    9.29    4.82
   7   8 -16    9.16    3.80
  -7  -8 -16   11.33    5.00
   7  -8 -16    3.62    5.40
  -7  -8 -16   12.80    4.50
  -7  -8  16   16.54    7.43
  -7   8 -17    8.27    3.62
   7   8 -17    4.18    2.91
  -7  -8 -17   -1.67    3.41
   7  -8 -17    6.05    4.08
  -7  -8 -17    5.82    4.16
  -7  -8  17    6.53    3.56
  -7   9   0   28.41    6.59
  -7  -9   0   49.28   11.72
  -7  -9   0   29.04    6.31
  -7   9   1  233.62   23.87
  -7   9  -1  204.14   15.16
  -7  -9  -1  196.40   29.69
  -7  -9   1  203.61   31.20
   7  -9  -1  212.59   27.38
  -7  -9  -1  196.77   29.02
  -7  -9   1  196.72   28.31
   7  -9   1  205.13   10.30
  -7   9   2   12.60    4.70
  -7   9  -2   14.21    5.36
  -7  -9  -2    2.01    3.93
  -7  -9   2   28.29    8.07
   7  -9  -2   17.19    5.83
  -7  -9  -2   14.69    6.41
  -7  -9   2   11.50    5.23
   7  -9   2    9.93    3.12
  -7   9   3  125.30   25.42
   7   9  -3  111.86    5.69
  -7   9  -3  124.52   23.98
  -7  -9   3  109.51    5.63
  -7  -9  -3  145.35   21.77
  -7  -9   3  160.16   29.40
   7  -9  -3  150.88   29.04
  -7  -9   3  130.01   23.52
   7  -9   3  110.12   15.61
  -7   9   4    2.68    3.97
  -7   9  -4    2.62    3.00
   7   9  -4    3.58    1.72
  -7  -9  -4    2.43    0.95
  -7  -9  -4   10.93    3.91
  -7  -9   4    6.08    5.34
   7  -9  -4   13.83    5.69
  -7  -9   4    2.64    3.20
  -7   9   5   37.93    7.16
  -7   9  -5   30.25    7.79
   7   9  -5   29.40    6.70
  -7  -9  -5   23.60    5.21
  -7  -9  -5   37.04    6.78
  -7  -9   5   39.71    8.86
   7  -9  -5   31.52    7.07
  -7  -9   5   33.90    7.92
  -7   9  -6   88.43   18.13
   7   9  -6   75.36    9.74
  -7  -9  -6   86.60    9.34
   7  -9  -6  115.78   31.33
  -7  -9  -6  103.65   12.91
   7  -9  -6   84.54   29.23
  -7  -9   6  105.81   15.51
  -7   9  -7    4.55    3.13
   7   9  -7    2.43    1.17
  -7  -9  -7    4.50    2.62
   7  -9  -7   12.27    4.55
  -7  -9  -7    1.94    2.84
  -7  -9   7    6.53    3.76
   7  -9  -7   -2.84    4.36
  -7  -9   7    6.05    3.44
  -7   9  -8   52.96   10.14
   7   9  -8   59.54    8.68
  -7  -9  -8   59.36   14.94
   7  -9  -8   71.67   15.45
  -7  -9  -8   56.55   11.49
  -7  -9   8   72.46   15.90
   7  -9  -8   75.92   13.91
  -7  -9   8   77.42   17.51
  -7   9  -9    8.98    5.32
   7   9  -9    9.76    3.33
  -7  -9  -9   15.27    4.07
   7  -9  -9   15.84    4.31
  -7  -9  -9   10.44    5.59
  -7  -9   9   12.18    2.68
   7  -9  -9    3.83    2.57
  -7  -9   9    5.87    4.02
  -7   9 -10    3.90    2.63
   7   9 -10    1.04    1.80
  -7  -9 -10    7.55    2.71
   7  -9 -10    2.71    3.91
  -7  -9 -10    9.93    4.93
  -7  -9  10    3.89    2.25
   7  -9 -10    0.10    2.26
  -7  -9  10   13.97    5.09
  -7   9 -11  119.86   18.62
   7   9 -11  102.08   20.31
  -7  -9 -11   98.67   23.11
   7  -9 -11  109.59   17.77
  -7  -9 -11  128.04   29.41
   7  -9 -11   92.39   14.46
  -7  -9  11  122.24   28.75
  -7   9 -12    5.21    4.02
   7   9 -12    6.29    4.07
   7  -9 -12   16.58    5.89
  -7  -9 -12   17.07    6.55
   7  -9 -12    9.41    3.38
  -7  -9  12    9.39    3.61
  -7   9 -13   41.13   12.32
   7   9 -13   23.10    8.33
   7  -9 -13   36.88   14.55
  -7  -9 -13   43.38   13.93
  -7  -9  13   32.46   11.04
  -7   9 -14    8.30    4.08
   7   9 -14    3.47    1.89
  -7  -9 -14    2.15    3.10
   7  -9 -14    7.46    5.23
  -7  -9 -14   15.70    5.94
  -7  -9  14    0.98    2.80
  -7   9 -15   12.34    5.70
   7   9 -15    5.44    4.43
  -7  -9 -15   15.87    5.22
   7  -9 -15   21.73    7.68
  -7  -9 -15    8.48    3.57
  -7  -9  15    4.46    3.85
  -7   9 -16    5.98    2.96
   7   9 -16    4.54    4.69
  -7  -9 -16    9.31    5.29
   7  -9 -16    4.08    6.37
  -7  -9 -16    6.52    4.57
  -7  -9  16    4.01    4.73
  -7  10   0   31.84    7.34
  -7 -10   0   53.18   10.15
   7 -10   0   32.52    6.79
  -7 -10   0   22.41    7.11
  -7  10   1   12.59    4.28
  -7  10  -1    8.29    3.94
  -7 -10  -1   12.40    5.31
  -7 -10   1    8.56    3.57
   7 -10  -1    4.78    3.83
  -7 -10  -1    6.96    4.14
  -7 -10   1   12.00    5.04
   7 -10   1    2.98    0.89
  -7  10   2    5.59    3.31
  -7  10  -2   16.53    4.62
  -7 -10  -2    5.48    2.70
  -7 -10   2    4.30    3.85
   7 -10  -2   -0.84    6.39
  -7 -10  -2    7.00    3.30
  -7 -10   2    2.97    2.54
   7 -10   2    3.59    1.84
  -7  10   3   28.25    7.77
  -7  10  -3   21.73    5.31
  -7 -10  -3   34.06    7.91
  -7 -10   3   23.61    5.51
   7 -10  -3   23.17    8.65
  -7 -10   3   18.02    3.78
   7 -10   3   24.58    5.78
  -7  10   4    9.45    4.32
   7  10  -4    5.79    1.84
  -7  10  -4    7.62    4.27
  -7 -10  -4    5.22    2.09
  -7 -10  -4   10.21    4.67
  -7 -10   4    6.85    3.59
   7 -10  -4    0.48    3.95
  -7 -10   4   13.35    5.39
   7 -10   4    8.36    2.47
  -7  10   5   57.46   13.71
  -7  10  -5   60.00    9.21
   7  10  -5   50.81   11.49
  -7 -10  -5   50.68    4.94
  -7 -10  -5   75.56   16.92
  -7 -10   5   62.39   14.96
   7 -10  -5   60.86   16.14
  -7 -10   5   57.75   11.85
   7 -10   5   51.15   13.00
  -7  10  -6   25.37    8.68
   7  10  -6   15.00    5.29
  -7 -10  -6   14.30    6.21
   7 -10  -6   20.96   10.52
  -7 -10  -6   27.98    7.47
  -7 -10   6   24.34    5.50
   7 -10  -6   23.28   11.12
  -7 -10   6   19.75    4.98
   7 -10   6   19.58    5.60
  -7  10  -7  129.20   27.73
   7  10  -7  106.82    9.69
  -7 -10  -7  125.34   14.34
   7 -10  -7  119.61   26.90
  -7 -10  -7   98.03   26.72
   7 -10  -7  109.68   20.13
  -7 -10   7  105.17   21.13
  -7  10  -8   19.05    6.49
   7  10  -8    9.96    3.62
  -7 -10  -8    6.89    2.74
   7 -10  -8   15.42    4.82
  -7 -10  -8   12.44    4.70
  -7 -10   8   18.11    5.29
   7 -10  -8   24.43    8.71
  -7 -10   8   20.68    7.12
  -7  10  -9   42.63   14.17
   7  10  -9   19.91    5.22
  -7 -10  -9   33.01   11.47
   7 -10  -9   33.55    9.40
  -7 -10  -9   50.88    9.71
  -7 -10   9   34.97    8.35
   7 -10  -9   30.80    8.08
  -7 -10   9   44.91   10.02
  -7  10 -10   12.35    7.01
   7  10 -10   13.98    4.30
  -7 -10 -10   21.36    6.98
   7 -10 -10   15.47    6.73
  -7 -10 -10   34.09    6.85
  -7 -10  10   13.46    5.69
   7 -10 -10   19.55    8.34
  -7 -10  10   10.39    4.07
  -7  10 -11   10.32    5.21
   7  10 -11    7.66    4.81
  -7 -10 -11    7.11    4.48
   7 -10 -11    3.18    4.08
  -7 -10 -11    8.84    4.45
   7 -10 -11    3.98    4.10
  -7 -10  11    5.03    3.05
  -7  10 -12   10.51    4.64
   7  10 -12    4.17    2.63
  -7 -10 -12    4.65    3.86
   7 -10 -12   -1.30    5.89
  -7 -10 -12   14.77    5.02
   7 -10 -12    2.57    1.72
  -7 -10  12    7.51    4.78
  -7  10 -13    6.26    4.17
   7  10 -13    2.92    1.45
   7 -10 -13   13.06    4.20
  -7 -10 -13    0.41    2.79
  -7 -10  13    4.35    1.99
  -7  10 -14    0.67    2.08
   7  10 -14    4.85    2.70
   7 -10 -14   12.97    5.27
  -7 -10 -14    6.76    5.63
  -7 -10  14    6.65    4.80
  -7  10 -15    6.75    3.16
   7  10 -15    8.28    4.00
  -7 -10 -15   16.76    4.84
   7 -10 -15    7.60    5.72
  -7 -10 -15    7.30    3.98
  -7 -10  15    9.63    5.32
  -7  11   0    3.01    2.81
   7 -11   0    4.92    3.07
  -7 -11   0    4.36    3.57
  -7  11   1   62.01   15.56
  -7  11  -1   60.84   11.63
  -7 -11  -1   69.42   19.74
  -7 -11   1   50.66   14.68
   7 -11  -1   62.83   12.64
   7 -11   1   69.76   14.70
  -7 -11  -1   43.22    9.80
  -7 -11   1   52.48   12.10
  -7  11   2   37.67    6.53
  -7  11  -2   46.60   12.46
  -7 -11  -2   43.44    9.45
  -7 -11   2   31.44    9.06
   7 -11  -2   35.75    7.80
   7 -11   2   52.32   13.58
  -7 -11  -2   41.14   10.11
  -7 -11   2   40.03    7.75
  -7  11   3    8.81    5.42
  -7  11  -3   14.36    5.43
  -7 -11  -3   11.84    6.66
  -7 -11   3   23.60    5.33
   7 -11  -3   15.59    6.78
  -7 -11   3   17.78    5.06
   7 -11   3    6.35    2.86
  -7  11   4   17.36    6.33
  -7  11  -4   14.75    5.46
  -7 -11  -4    0.87    3.26
  -7 -11   4   11.15    7.82
   7 -11  -4    8.40    3.62
  -7 -11   4   10.18    4.44
   7 -11   4    7.67    3.17
  -7  11   5   68.13   14.05
  -7  11  -5   72.87   17.93
  -7 -11  -5   65.77   16.16
  -7 -11   5   71.22   17.25
   7 -11  -5   47.38   13.60
  -7 -11   5   68.06   10.73
   7 -11   5   47.38    5.86
  -7  11  -6    8.95    3.81
   7 -11  -6   11.11    5.69
  -7 -11  -6    3.73    4.43
  -7 -11   6    3.40    3.26
   7 -11  -6    5.04    4.35
  -7 -11   6    5.47    2.91
   7 -11   6    4.19    3.48
  -7  11  -7   73.91   15.88
   7 -11  -7   78.07   16.85
  -7 -11  -7   78.71   16.98
  -7 -11   7   84.51   19.23
   7 -11  -7   60.80   12.88
  -7 -11   7   68.50   18.53
   7 -11   7   52.45   11.77
  -7  11  -8   29.67    8.59
   7 -11  -8   14.41    5.00
  -7 -11  -8   25.57    8.93
   7 -11  -8   27.30    6.47
  -7 -11   8   21.14    8.22
   7 -11   8   18.01    5.45
  -7  11  -9    8.43    3.14
   7 -11  -9    9.54    3.95
  -7 -11  -9   10.44    5.59
  -7 -11   9    4.94    2.69
   7 -11  -9    8.77    4.08
  -7 -11   9   11.27    3.73
   7 -11   9    6.82    3.26
  -7  11 -10    8.32    3.33
   7 -11 -10    0.01    4.30
  -7 -11 -10    8.90    3.52
  -7 -11  10    3.45    3.18
   7 -11 -10    3.67    2.96
  -7 -11  10    4.82    2.89
   7 -11  10    4.02    4.66
  -7  11 -11   34.76    7.96
   7 -11 -11   15.69    8.93
  -7 -11 -11   27.77   10.70
   7 -11 -11   11.65    4.83
  -7 -11  11   22.57   12.02
   7 -11  11   24.84    8.53
  -7  11 -12    7.09    3.93
   7 -11 -12   15.64    6.84
  -7 -11 -12    9.70    5.38
   7 -11 -12   10.55    5.12
  -7 -11  12   13.38    4.45
   7 -11  12    7.95    4.27
  -7  11 -13   13.97    4.45
   7 -11 -13    6.08    4.69
  -7 -11 -13   11.04    5.00
   7 -11  13   10.12    8.02
  -7  11 -14   19.11    5.03
   7 -11 -14   11.71    5.81
  -7 -11 -14    7.00    2.59
  -7 -11  14    4.21    3.19
   7 -11  14    3.55    2.81
  -7  12   0   30.04    8.42
  -7 -12   0   23.50   11.50
   7 -12   0   32.73    8.83
  -7 -12   0   17.03    5.64
  -7  12   1   81.20   16.51
  -7  12  -1   68.21   13.53
  -7 -12  -1   72.81   23.29
  -7 -12   1   92.04   18.90
   7 -12  -1   65.09   13.29
   7 -12   1   73.40   25.97
  -7 -12  -1   74.22    9.69
  -7 -12   1   76.70    9.28
  -7  12   2   10.10    5.26
  -7  12  -2   17.65    4.47
  -7 -12  -2   17.53    7.00
  -7 -12   2   13.83    5.92
   7 -12  -2   10.12    4.89
   7 -12   2   15.23    9.10
  -7 -12  -2    3.90    2.17
  -7 -12   2    9.92    3.93
  -7  12   3   68.94   22.29
  -7  12  -3   71.93   21.82
  -7 -12  -3   89.16   20.36
  -7 -12   3   75.44   15.45
   7 -12  -3   62.99   16.15
   7 -12   3   97.92   21.06
  -7 -12   3   77.83   10.22
  -7  12   4   30.71   11.28
  -7  12  -4   17.85    5.59
  -7 -12  -4   14.16   10.44
  -7 -12   4   22.64    8.84
   7 -12  -4   14.82    9.44
   7 -12   4   11.53    5.14
  -7 -12   4   24.58    5.38
  -7  12  -5    3.45    4.58
  -7 -12  -5    7.16    3.93
  -7 -12   5    2.52    2.60
   7 -12  -5    9.21    4.69
  -7 -12   5   -1.26    4.05
  -7  12  -6    7.55    3.06
   7 -12  -6    7.85    4.32
  -7 -12  -6    7.39    3.89
  -7 -12   6    5.87    6.27
   7 -12  -6   15.31    5.57
  -7 -12   6    4.79    3.24
   7 -12   6    1.63    1.47
  -7  12  -7    4.47    2.74
   7 -12  -7    8.59    3.62
  -7 -12  -7   17.77    6.93
  -7 -12   7    9.84    3.00
   7 -12  -7   15.29    8.52
  -7 -12   7    3.88    3.54
   7 -12   7    4.49    3.42
  -7  12  -8   26.82   13.14
   7 -12  -8   26.28    7.92
  -7 -12  -8   23.40    5.90
  -7 -12   8   24.64    8.66
   7 -12  -8   23.38    5.05
  -7 -12   8   24.04    8.78
   7 -12   8   23.37    9.70
  -7  12  -9   32.17    9.90
   7 -12  -9   36.99   12.04
  -7 -12  -9   38.57   12.67
   7 -12  -9   26.02    6.80
  -7 -12   9   31.19   12.48
   7 -12   9   24.12   12.15
  -7  12 -10    6.42    4.02
   7 -12 -10   16.08    6.15
  -7 -12 -10   11.06    4.22
  -7 -12  10    8.16    4.30
   7 -12 -10    4.29    2.37
  -7 -12  10   17.89    6.29
   7 -12  10   12.91    5.17
  -7  12 -11   29.91   10.81
   7 -12 -11   42.84   10.40
  -7 -12 -11   28.42   11.06
   7 -12 -11   24.87    8.78
  -7 -12  11   38.28   14.52
   7 -12  11   28.42    6.86
  -7  12 -12   16.73    4.69
   7 -12 -12   14.40    7.48
  -7 -12 -12   12.03    7.31
   7 -12 -12    6.37    3.54
  -7 -12  12   12.95    4.62
   7 -12  12    6.87    5.30
  -7  12 -13   14.87    4.79
   7 -12 -13   10.36    4.85
  -7 -12 -13   16.72    5.19
  -7 -12  13   21.74    6.89
   7 -12  13   16.35    5.81
  -7  13   0   42.45    9.03
  -7 -13   0   33.04   11.09
   7 -13   0   40.72   12.70
  -7 -13   0   38.24    9.02
  -7  13   1   29.18    5.87
  -7  13  -1   40.50    9.39
  -7 -13  -1   29.41    6.54
  -7 -13   1   26.44    9.16
   7 -13  -1   27.68    7.94
   7 -13   1   30.70   12.09
  -7 -13  -1   45.20    7.61
  -7 -13   1   27.53    6.50
  -7  13   2   81.17   15.99
  -7  13  -2   69.36   18.67
  -7 -13  -2   79.79   18.41
  -7 -13   2   76.62   22.97
   7 -13  -2   74.59   17.51
   7 -13   2   69.16   15.57
  -7 -13  -2   88.88   21.11
  -7 -13   2   47.54   12.25
  -7  13   3   28.56    4.81
  -7  13  -3   22.87    6.83
  -7 -13  -3   15.91    5.22
  -7 -13   3   23.76    6.63
   7 -13  -3   33.31   11.67
   7 -13   3   28.19    8.20
  -7 -13   3   20.47    5.21
  -7  13   4    6.22    3.56
  -7  13  -4    3.96    3.78
  -7 -13  -4    7.45    5.03
  -7 -13   4    8.59    5.66
   7 -13  -4   10.39    3.59
   7 -13   4    0.24    4.43
  -7 -13   4   13.65    5.54
  -7  13  -5   19.48    4.91
   7 -13  -5   14.04    6.26
  -7 -13  -5   15.77    6.90
   7 -13  -5   13.97    4.74
   7 -13   5   14.73    8.40
  -7 -13   5   16.42    6.87
  -7  13  -6   10.63    3.65
   7 -13  -6    9.60    4.63
  -7 -13  -6   28.36   11.89
  -7 -13   6    7.87    5.47
   7 -13  -6    8.28    5.35
   7 -13   6   10.48   10.69
  -7 -13   6   11.18    4.93
  -7  13  -7   12.82    4.61
   7 -13  -7   11.75    4.81
  -7 -13  -7    4.98    4.60
  -7 -13   7   11.77    4.99
   7 -13  -7    8.17    5.37
  -7 -13   7    9.02    4.75
  -7  13  -8    4.98    4.28
   7 -13  -8    7.98    3.32
  -7 -13  -8    8.84    4.93
  -7 -13   8    2.98    1.88
   7 -13  -8   11.98    5.23
  -7 -13   8    8.76    3.79
  -7  13  -9    8.90    3.94
   7 -13  -9   11.27    5.42
  -7 -13  -9    7.15    3.76
  -7 -13   9   -0.06    3.04
   7 -13  -9    8.16    6.78
  -7 -13   9    6.20    3.43
   7 -13   9    5.17    2.69
  -7  13 -10   26.50   11.51
   7 -13 -10   24.36    8.40
  -7 -13 -10   29.71    9.89
   7 -13 -10   18.61    9.65
  -7 -13  10    7.99    4.64
   7 -13  10   15.45    7.70
  -7  13 -11    8.74    4.80
   7 -13 -11   18.66    9.20
  -7 -13 -11    6.91    3.77
   7 -13 -11   11.07    4.91
  -7 -13  11   12.80    5.44
   7 -13  11    7.57    4.05
  -7  13 -12    9.49    2.91
   7 -13 -12    7.42    4.05
  -7 -13 -12    2.09    2.40
   7 -13 -12    7.61    2.99
  -7 -13  12   12.74    4.33
   7 -13  12    2.71    1.91
  -7  14   0   16.83    6.45
  -7 -14   0    5.05    3.07
   7 -14   0    1.87    3.43
  -7 -14   0    8.95    2.87
  -7  14   1   -0.13    3.39
  -7  14  -1    5.79    3.66
  -7 -14  -1    6.37    4.41
  -7 -14   1   10.59    5.35
   7 -14  -1   13.04    4.58
   7 -14   1    9.35    6.56
  -7 -14  -1    7.21    3.45
  -7 -14   1    2.03    2.53
  -7  14   2   19.00    4.89
  -7  14  -2   18.85    6.63
  -7 -14  -2   20.84    6.03
  -7 -14   2   21.76    5.55
   7 -14  -2   34.60   11.26
   7 -14   2   11.47    5.72
  -7 -14   2   20.03    5.45
  -7  14   3   23.63    7.27
  -7  14  -3   28.07    4.96
  -7 -14  -3   38.83    9.45
  -7 -14   3   16.61    6.06
   7 -14  -3   33.76    9.48
   7 -14   3   31.59    8.52
  -7 -14   3   31.34    8.68
  -7  14   4    7.39    3.01
  -7  14  -4    2.69    2.66
  -7 -14  -4   -0.35    4.96
  -7 -14   4    5.91    3.38
   7 -14  -4   12.44    9.06
   7 -14   4    4.05    3.87
  -7 -14   4    5.25    3.95
  -7  14  -5   23.30    8.03
   7 -14  -5   17.15    5.93
  -7 -14  -5   21.44   10.55
  -7 -14   5   22.84    8.58
   7 -14  -5   27.87   11.78
   7 -14   5    6.88    9.94
  -7 -14   5   26.28    7.17
  -7  14  -6   64.91   13.48
   7 -14  -6   65.53   15.22
  -7 -14  -6   62.95    9.30
  -7 -14   6   58.17   20.22
   7 -14  -6   70.68   17.14
   7 -14   6   67.62   14.37
  -7 -14   6   43.64   17.99
  -7  14  -7   28.34    8.66
   7 -14  -7   20.09    7.48
  -7 -14  -7   19.03    9.07
  -7 -14   7   21.77    7.55
   7 -14  -7   27.25    7.22
   7 -14   7   39.94   17.92
  -7 -14   7   23.68   11.90
  -7  14  -8    5.79    3.17
   7 -14  -8   11.60    6.61
  -7 -14  -8    7.68    4.04
  -7 -14   8    4.76    3.06
   7 -14  -8    4.30    2.75
   7 -14   8    8.96    7.32
  -7 -14   8    9.10    6.01
  -7  14  -9   10.26    3.64
   7 -14  -9   10.06    4.54
  -7 -14  -9   26.80    7.13
  -7 -14   9   11.34    5.45
   7 -14  -9    7.28    3.12
   7 -14   9   33.59    9.58
  -7 -14   9   12.34    5.28
  -7  14 -10   18.93    5.54
   7 -14 -10   20.76    8.28
  -7 -14 -10   19.79    7.87
   7 -14 -10    9.37    7.16
   7 -14  10   26.09    7.40
  -7 -14  10   17.69    4.39
  -7  14 -11    3.65    3.21
   7 -14 -11    8.33    4.40
  -7 -14 -11   10.85    5.99
   7 -14 -11    2.03    3.23
   7 -14  11    4.31    5.52
  -7 -14  11    5.96    4.73
  -7  15   0   20.16    4.92
  -7 -15   0   21.44    9.67
   7 -15   0   20.20    9.08
  -7 -15   0   10.02    4.95
  -7  15   1   11.43    4.79
  -7  15  -1    9.23    3.56
  -7 -15  -1   -3.41    4.84
  -7 -15   1    4.58    5.32
   7 -15  -1    4.79    4.25
   7 -15   1    9.42    5.69
  -7 -15  -1   11.69    5.70
  -7 -15   1   10.46    4.33
  -7  15   2   14.10    3.88
  -7  15  -2   17.63    5.59
  -7 -15  -2   18.79    8.06
  -7 -15   2   19.65    8.60
   7 -15  -2   23.07    5.96
   7 -15   2   19.39   12.06
  -7 -15   2   18.05    4.50
  -7  15   3    8.14    4.48
  -7  15  -3    7.46    2.73
  -7 -15  -3   11.02    3.86
  -7 -15   3    5.98    3.84
   7 -15  -3   11.24    5.91
   7 -15   3    6.24    6.15
  -7 -15   3    2.00    1.93
  -7  15   4   60.14   17.88
  -7  15  -4   67.74   19.31
  -7 -15  -4   62.11   19.69
  -7 -15   4   54.64   14.98
   7 -15  -4   46.30   21.02
   7 -15   4   62.59   19.08
  -7 -15   4   65.93   17.93
  -7  15  -5    2.93    2.88
   7 -15  -5    2.11    3.94
  -7 -15  -5   10.47    7.81
  -7 -15   5   15.21    7.38
   7 -15  -5    7.88    5.51
   7 -15   5   10.65    5.98
  -7 -15   5    7.13    4.54
  -7  15  -6   10.13    4.87
   7 -15  -6   10.39    4.45
  -7 -15  -6    4.81    4.14
  -7 -15   6   12.15    5.39
   7 -15  -6   14.09    5.98
   7 -15   6   14.88    6.79
  -7 -15   6   15.78    6.75
  -7  15  -7    4.81    3.70
   7 -15  -7    7.24    3.59
  -7 -15  -7   15.13   12.11
  -7 -15   7    4.63    5.38
   7 -15  -7    6.03    6.24
   7 -15   7   10.46    6.51
  -7 -15   7    5.12    3.58
  -7  15  -8   14.38    8.26
   7 -15  -8   14.07    8.30
  -7 -15  -8   44.94   16.03
  -7 -15   8   22.99   13.65
   7 -15  -8   15.17   10.11
   7 -15   8   24.23   14.74
  -7 -15   8   25.36   10.77
  -7  15  -9    8.56    3.03
   7 -15  -9   -1.92    5.65
  -7 -15  -9    3.36    4.33
  -7 -15   9    3.93    2.52
   7 -15  -9    4.02    2.40
   7 -15   9   11.36    7.30
  -7 -15   9    4.99    2.73
  -7  16   0   42.37   11.67
  -7 -16   0   41.12   18.46
   7 -16   0   61.33   19.11
  -7 -16   0   42.45   10.18
  -7  16   1   -4.24    4.07
  -7  16  -1    5.50    4.31
  -7 -16  -1   13.79    6.79
  -7 -16   1    7.66    3.79
   7 -16  -1    1.89    4.82
   7 -16   1   -3.44    6.25
  -7 -16  -1    3.53    2.28
  -7 -16   1    1.61    2.22
  -7  16   2    5.09    4.78
  -7  16  -2    7.42    4.75
  -7 -16  -2    9.27    4.42
  -7 -16   2    7.11    5.97
   7 -16  -2    5.29    5.10
   7 -16   2   -2.24    6.38
  -7  16   3    7.60    2.91
  -7  16  -3    7.23    3.39
  -7 -16  -3   29.46    7.54
  -7 -16   3   16.90    6.78
   7 -16  -3    9.51    3.71
   7 -16   3   12.89    5.68
  -7 -16   3    6.89    4.41
  -7  16   4   21.32    7.26
  -7  16  -4   29.60    8.23
  -7 -16  -4   30.10   12.82
  -7 -16   4   25.18   13.66
   7 -16  -4   20.51    6.92
   7 -16   4   18.99    6.90
  -7 -16   4   12.07    4.04
  -7  16  -5    2.36    2.10
   7 -16  -5    5.64    6.62
  -7 -16  -5    8.31    5.73
  -7 -16   5   16.69    5.38
   7 -16  -5    5.87    5.05
   7 -16   5   15.02    9.39
  -7 -16   5    2.94    2.26
  -7  16  -6    4.21    2.36
   7 -16  -6    9.89    5.69
  -7 -16  -6    6.89    5.11
   7 -16  -6   15.28    7.81
   7 -16   6   10.16    4.27
  -7 -16   6    8.28    3.89
  -7  17   0    3.22    4.36
  -7 -17   0   22.59    6.81
   7 -17   0   17.21    6.62
  -7 -17   0   17.53    5.42
  -7  17   1   15.13    6.15
  -7  17  -1   14.20    3.54
  -7 -17  -1    5.87    4.59
  -7 -17   1   13.04    8.50
   7 -17  -1   12.01    4.36
   7 -17   1   18.57    5.52
  -7 -17   1   15.06    7.00
  -7  17  -2   29.58   14.48
  -7 -17  -2   26.54    9.96
  -7 -17   2   19.45    8.19
   7 -17  -2   20.18    6.62
   7 -17   2   44.87   21.32
  -7 -17   2   15.73    6.33
  -8   0   0  358.41   18.42
  -8   0  -1   45.16   11.54
  -8   0   1   44.26    9.20
  -8   0  -2   10.42    2.72
  -8   0   2   12.55    3.71
   8   0  -3  282.37   18.41
  -8   0   3  285.49   17.78
  -8   0  -3  257.88   17.25
  -8   0   3  252.50   16.33
   8   0  -4  301.05   19.57
  -8   0   4  293.12   18.17
  -8   0  -4  286.54   19.46
  -8   0   4  302.88   19.54
  -8   0  -5  163.36    6.68
   8   0  -5  186.12   16.57
  -8   0  -5  174.47   29.11
   8   0  -5  153.02    4.79
  -8   0   5  155.44    6.98
  -8   0  -6    5.49    3.26
   8   0  -6    4.01    2.92
  -8   0  -6    6.50    4.32
  -8   0   6   10.61    4.01
  -8   0  -7  131.90   21.06
   8   0  -7  122.51   27.87
  -8   0  -7  119.08   27.16
   8   0  -7  115.52    3.91
  -8   0   7  132.53   21.56
  -8   0  -8   41.01    8.01
   8   0  -8   51.73   10.74
  -8   0  -8   43.82    7.56
  -8   0   8   44.96    9.01
  -8   0  -9   29.39    6.80
   8   0  -9   39.70    9.12
  -8   0  -9   37.38   12.02
  -8   0   9   20.74    6.58
  -8   0 -10    7.73    2.95
   8   0 -10   10.18    3.74
  -8   0 -10    6.50    2.84
  -8   0  10    3.76    2.87
  -8   0 -11    6.20    3.84
   8   0 -11    3.21    2.41
  -8   0 -11    1.89    2.75
  -8   0  11    3.13    2.36
  -8   0 -12  305.28   28.70
   8   0 -12  295.96   33.59
  -8   0 -12  291.56   18.31
  -8   0  12  294.54   18.86
   8   0 -13   -5.97    5.09
  -8   0 -13    9.09    3.66
  -8   0  13    4.21    4.36
  -8   0 -14   -0.98    4.14
   8   0 -14    5.97    4.66
  -8   0 -14    3.94    2.41
  -8   0  14    8.60    2.97
  -8   0 -15   21.88    4.95
   8   0 -15   26.30    6.86
  -8   0 -15   23.99    5.74
  -8   0  15   24.95    6.28
  -8   0 -16   42.75    9.33
   8   0 -16   37.07   11.08
  -8   0 -16   63.40   12.76
  -8   0  16   49.21   16.82
  -8   0 -17   17.22    8.17
   8   0 -17    4.37    3.38
  -8   0 -17    7.96    2.88
  -8   0  17    4.81    3.26
  -8   0 -18    3.32    2.86
   8   0 -18    9.58    6.46
  -8   0 -18    2.35    2.91
  -8   0  18    1.04    2.68
  -8  -1   0    3.18    1.16
  -8   1   0    3.54    1.89
   8   1   0    3.49    1.57
  -8   1   0    3.13    2.87
  -8  -1   0    5.29    1.81
  -8  -1   0    5.85    2.89
  -8  -1   1   44.50    7.98
  -8   1   1   40.25    7.15
  -8  -1  -1   40.74    9.50
  -8   1  -1   43.86    8.74
  -8   1   1   46.22   10.83
  -8   1  -1   37.88    8.54
  -8  -1   1   36.94    9.53
  -8  -1  -1   46.55   10.06
  -8   1   1   42.83   11.56
  -8  -1   1   34.10    9.54
  -8   1   2   97.32    5.00
  -8  -1  -2   87.57    8.55
  -8   1  -2   99.56    6.80
   8   1  -2  113.64   10.99
  -8   1  -2  109.43   16.85
  -8  -1  -2  114.57   16.72
  -8   1  -3  233.77   15.53
  -8  -1  -3  229.33   14.66
   8   1  -3  252.33   19.90
   8  -1  -3  242.37   16.18
  -8   1  -3  210.79   19.70
  -8  -1   3  241.89   15.28
  -8  -1  -3  221.02   15.16
  -8  -1   3  217.81   19.05
  -8   1  -4  192.02   13.33
  -8  -1  -4  214.92   14.60
   8   1  -4  207.54   21.97
   8  -1  -4  231.92   22.51
  -8  -1   4  201.72   12.94
  -8   1  -4  190.62   31.10
  -8  -1  -4  192.78   13.96
  -8  -1   4  199.37   14.15
  -8   1  -5   22.23    6.42
   8   1  -5   20.40    5.19
   8  -1  -5   19.59    6.24
  -8  -1   5   12.14    3.45
  -8   1  -5   14.97    5.15
  -8  -1  -5   16.18    6.38
   8  -1  -5    9.51    2.96
   8   1  -5    9.90    2.65
  -8  -1   5   17.88    3.62
  -8   1  -6   99.28   21.73
   8   1  -6   82.29   18.47
   8  -1  -6   78.58   22.69
  -8   1  -6   85.97   13.58
  -8  -1  -6  101.17   14.52
   8  -1  -6   75.04    5.19
   8   1  -6   77.08    5.51
  -8   1   6   99.92   18.40
  -8  -1   6  108.32   21.16
  -8   1  -7    6.89    3.92
  -8  -1  -7    4.56    2.42
   8   1  -7   11.19    5.51
   8  -1  -7    1.63    3.07
  -8   1  -7    4.94    2.99
  -8  -1  -7    5.83    2.94
   8  -1  -7    2.17    1.19
   8   1  -7    2.10    1.33
   8  -1  -7    3.31    1.75
  -8  -1   7    7.04    1.91
  -8   1   7    3.63    2.87
  -8   1  -8  246.08   21.07
  -8  -1  -8  246.70    9.46
   8   1  -8  272.63   22.52
  -8   1  -8  255.04   19.90
  -8  -1  -8  249.00   32.26
   8  -1  -8  237.46    2.72
  -8   1   8  251.55    8.64
  -8  -1   8  235.83    9.16
  -8   1  -9  108.38   24.02
  -8  -1  -9  132.73   23.78
   8   1  -9  143.20   19.49
   8  -1  -9  141.21   29.18
  -8   1  -9  105.26   24.73
  -8  -1  -9  120.44   21.46
  -8  -1   9  126.05   24.77
  -8   1   9  139.23    9.92
  -8   1 -10   53.44   10.69
  -8  -1 -10   65.99   11.86
   8   1 -10   49.93   14.52
   8  -1 -10   81.34   16.71
  -8   1 -10   64.36   12.77
  -8  -1 -10   55.28    9.91
  -8  -1  10   51.36   11.71
  -8   1  10   64.19   12.52
  -8   1 -11   14.34    5.08
  -8  -1 -11   11.31    4.01
   8   1 -11   12.50    3.85
   8  -1 -11   31.03    5.91
  -8   1 -11   23.05    5.17
  -8  -1 -11   10.85    3.97
  -8  -1  11   21.01    5.02
  -8   1  11   23.39    6.77
  -8   1 -12    2.87    2.35
  -8  -1 -12    4.63    2.68
   8   1 -12   12.06    5.86
   8  -1 -12   -2.82    4.65
  -8   1 -12    7.67    5.10
  -8  -1 -12    7.55    3.50
  -8  -1  12    4.23    3.34
  -8   1  12    1.57    2.27
  -8   1 -13   21.52    6.85
  -8  -1 -13   25.37    9.07
   8   1 -13   23.74    7.48
   8  -1 -13   15.60    4.33
  -8   1 -13   23.07    5.73
  -8  -1 -13   27.71    6.57
  -8  -1  13   18.76    5.33
  -8   1  13   16.50    5.06
  -8   1 -14   10.12    3.73
  -8  -1 -14   11.02    4.65
   8   1 -14   12.85    4.84
   8  -1 -14    8.05    4.47
  -8   1 -14   20.89    7.51
  -8  -1 -14   11.83    5.46
  -8  -1  14   12.60    3.48
  -8   1  14    5.27    4.00
  -8   1 -15   38.97    9.67
  -8  -1 -15   29.38    6.64
   8   1 -15   42.16   13.47
   8  -1 -15   30.25    9.31
  -8   1 -15   31.19    7.99
  -8  -1 -15   38.66    8.41
  -8  -1  15   30.25   10.82
  -8   1  15   35.08   10.01
  -8   1 -16   48.37   17.02
  -8  -1 -16   34.24    7.51
   8   1 -16   30.29   10.83
   8  -1 -16   41.19    9.32
  -8   1 -16   27.69    8.49
  -8  -1 -16   39.28   10.65
  -8  -1  16   48.03   15.08
  -8   1  16   45.25   16.02
  -8   1 -17    1.05    2.56
  -8  -1 -17    6.58    3.45
   8   1 -17    2.42    3.36
   8  -1 -17    5.74    3.98
  -8   1 -17    6.00    1.82
  -8  -1 -17    3.81    2.09
  -8  -1  17    7.40    3.87
  -8   1  17    5.00    4.89
  -8   1 -18    9.74    4.38
  -8  -1 -18   14.33    5.70
   8   1 -18   14.85    6.12
   8  -1 -18    9.96    3.80
  -8   1 -18   17.87    5.42
  -8  -1 -18   11.64    4.38
  -8  -1  18    9.69    4.83
  -8  -2   0    2.90    1.69
  -8   2   0    3.09    2.94
   8   2   0   -0.02    0.69
  -8   2   0    4.04    2.83
  -8  -2   0    3.20    2.43
  -8  -2   0    5.28    2.41
  -8   2   1  124.15    6.53
  -8  -2  -1  130.19    6.81
  -8   2  -1  143.25   11.68
   8   2  -1  120.55    8.80
   8   2   1  134.44   10.27
   8   2  -1  131.37    4.54
  -8   2  -1  147.44    6.81
  -8  -2   1  130.63   17.32
  -8  -2  -1  125.14    6.12
  -8  -2   1  137.56   22.15
  -8   2   2  396.91   24.89
  -8  -2  -2  380.74   23.16
  -8   2  -2  390.98   24.68
   8   2  -2  342.27   20.76
   8   2   2  369.93   22.41
   8   2  -2  387.84   24.13
  -8   2  -2  380.02   24.07
  -8  -2  -2  370.14   23.66
  -8   2   2  353.77   23.51
  -8  -2   2  381.15   25.25
  -8   2   3  315.37   22.25
  -8   2  -3  330.15   21.45
  -8  -2  -3  319.78   19.71
   8   2   3  292.57   18.08
   8   2  -3  321.38   20.60
  -8   2  -3  310.24   20.32
  -8  -2   3  315.34   20.92
  -8  -2  -3  287.77   18.99
  -8   2   3  303.44   18.97
  -8  -2   3  315.91   20.55
  -8   2  -4   64.68   11.35
  -8  -2  -4   58.52   11.91
   8   2  -4   58.91   11.45
   8  -2  -4   57.43   10.94
  -8   2  -4   49.36   12.43
  -8  -2   4   43.48   12.00
  -8  -2  -4   59.15   11.84
  -8   2   4   48.50   12.30
  -8  -2   4   50.84   13.85
  -8   2  -5   51.92   12.81
  -8  -2  -5   44.54   12.48
   8   2  -5   47.31   11.72
   8  -2  -5   56.96   15.77
  -8   2  -5   48.80    8.46
  -8  -2   5   47.96    5.73
  -8  -2  -5   55.82    9.66
   8   2  -5   28.15    7.28
  -8   2   5   43.65    8.89
  -8  -2   5   39.90   11.89
  -8   2  -6  415.11   27.21
  -8  -2  -6  406.12   25.88
   8   2  -6  399.41   26.19
   8  -2  -6  399.04   33.00
  -8   2  -6  375.51   29.29
  -8  -2   6  395.04   24.37
  -8  -2  -6  343.85   29.46
   8   2  -6  344.24   21.42
  -8   2   6  400.64   26.58
  -8  -2   6  383.16   29.77
   8   2  -7   42.02   10.54
   8  -2  -7   46.02    7.93
  -8   2  -7   42.25    6.68
  -8  -2  -7   46.61    9.09
   8  -2  -7   25.87    7.11
   8   2  -7   28.65    7.30
   8  -2  -7   27.99    8.36
  -8  -2   7   43.20    7.00
  -8  -2  -8   37.01    9.75
   8   2  -8   36.44    9.49
   8  -2  -8   26.53    7.99
  -8   2  -8   35.96    8.69
  -8  -2  -8   49.45    8.26
   8  -2  -8   24.29    5.45
   8  -2  -8   23.90    6.68
  -8  -2  -9   59.52   14.04
   8   2  -9   60.10   10.09
   8  -2  -9   66.93   14.67
  -8   2  -9   63.82   15.54
  -8  -2  -9   65.27   13.94
   8  -2  -9   58.42    2.06
   8  -2  -9   54.65    2.42
  -8  -2   9   62.93   11.24
  -8  -2 -10   83.18   13.25
   8   2 -10   76.95   16.81
   8  -2 -10   98.78   15.38
  -8   2 -10   93.00   20.84
  -8  -2 -10   95.87   12.80
  -8  -2  10  111.02   20.48
  -8   2  10   91.87   19.12
  -8   2 -11    6.67    2.90
  -8  -2 -11    2.96    2.61
   8   2 -11    6.30    2.46
   8  -2 -11   16.41    6.48
  -8   2 -11   10.27    3.78
  -8  -2 -11    2.35    3.58
  -8  -2  11    5.27    3.53
  -8   2  11    4.78    2.79
  -8   2 -12    9.18    4.43
  -8  -2 -12   13.33    5.47
   8   2 -12   21.47    6.01
   8  -2 -12   18.42    3.57
  -8   2 -12   14.06    5.40
  -8  -2 -12   13.92    5.57
  -8  -2  12   14.78    6.30
  -8   2  12    9.86    3.77
  -8   2 -13   46.02   10.23
  -8  -2 -13   59.29   12.74
   8   2 -13   35.07   13.80
   8  -2 -13   55.21   10.68
  -8   2 -13   43.84    8.35
  -8  -2 -13   53.97   15.79
  -8  -2  13   53.68   11.71
  -8   2  13   56.70   16.04
  -8   2 -14   53.07   10.08
  -8  -2 -14   51.45   11.86
   8   2 -14   47.33   10.96
   8  -2 -14   49.83   12.04
  -8   2 -14   45.13   13.87
  -8  -2 -14   44.23   10.32
  -8  -2  14   53.86   11.73
  -8   2  14   48.24   10.47
  -8   2 -15   30.57    7.57
  -8  -2 -15   31.84    6.47
   8   2 -15   16.09    5.49
   8  -2 -15   26.36    9.44
  -8   2 -15   33.89    8.49
  -8  -2 -15   33.19    9.77
  -8  -2  15   29.06    7.57
  -8   2  15   19.85    8.17
  -8   2 -16    3.10    3.36
  -8  -2 -16   14.14    4.72
   8   2 -16    6.90    4.11
   8  -2 -16    8.60    3.32
  -8   2 -16    7.44    2.94
  -8  -2 -16    7.44    4.64
  -8  -2  16   -2.31    3.94
  -8   2  16    5.90    2.30
  -8   2 -17   23.61    4.80
  -8  -2 -17   10.44    3.91
   8   2 -17    4.61    3.23
   8  -2 -17   16.24    4.86
  -8   2 -17    8.14    2.43
  -8  -2 -17   13.03    4.16
  -8  -2  17    7.12    3.33
  -8   2  17    5.38    5.18
  -8   2 -18   26.52    6.54
  -8  -2 -18   12.11    4.83
   8   2 -18   35.45   10.78
   8  -2 -18   26.21    8.25
  -8  -2 -18   26.25    7.00
  -8  -2  18   26.73   11.01
  -8   2  18   27.66   10.32
  -8   3   0   10.97    3.51
   8   3   0   11.81    3.01
   8   3   0   11.97    3.12
  -8  -3   0   14.30    3.05
  -8  -3   0   19.30    5.24
  -8  -3  -1   48.50    4.32
  -8   3   1   44.87    9.31
  -8   3  -1   54.61   10.87
   8   3  -1   40.07    4.87
   8   3   1   45.02    6.98
   8   3  -1   43.88    8.89
  -8  -3   1   49.34   10.63
  -8  -3  -1   56.11    9.95
  -8  -3  -1   49.13    9.50
  -8  -3   1   51.02   13.07
  -8   3   2  206.32   14.20
  -8  -3  -2  200.90   12.57
  -8   3  -2  199.96   15.18
   8   3  -2  186.15   11.55
   8   3   2  199.92   12.37
   8   3  -2  195.60   12.39
  -8   3  -2  211.32   14.72
  -8  -3  -2  169.61   14.46
  -8  -3   2  214.37   16.80
  -8   3   3   86.71   20.51
   8   3  -3   57.42    5.29
  -8   3  -3   64.97   14.85
  -8  -3  -3   78.22    8.02
   8   3   3   54.01    6.18
   8   3  -3   60.08    8.34
  -8   3  -3   66.48   13.20
  -8  -3   3   58.83   13.00
  -8  -3  -3   86.68   15.04
  -8   3   3   69.26    9.60
  -8  -3   3   54.64   19.40
   8   3  -4   24.68    6.17
  -8   3  -4   53.84   12.27
  -8  -3  -4   40.95   10.03
   8   3   4   28.85    8.09
   8   3  -4   35.12    8.32
   8  -3  -4   55.06   11.93
  -8   3  -4   51.02    9.86
  -8  -3   4   49.00   11.75
  -8  -3  -4   45.09    9.91
  -8   3   4   39.68   10.52
  -8  -3   4   48.78    9.32
  -8   3  -5  235.08   16.80
  -8  -3  -5  232.22   15.59
   8   3  -5  225.20   14.98
   8  -3  -5  267.64   31.45
  -8   3  -5  238.87   16.99
  -8  -3   5  237.44   15.31
  -8  -3  -5  213.07   16.66
  -8   3   5  224.54   15.48
  -8  -3   5  229.07   22.81
  -8   3  -6   14.06    4.52
  -8  -3  -6    2.52    2.40
   8   3  -6    4.20    1.96
   8  -3  -6    4.13    2.71
  -8   3  -6   12.40    4.96
  -8  -3   6    4.09    2.45
  -8  -3  -6    6.54    4.31
   8   3  -6    1.36    1.56
  -8   3   6    1.28    1.41
  -8  -3   6   11.82    3.91
  -8   3  -7  194.50   29.58
  -8  -3  -7  174.29    6.79
   8   3  -7  152.20   19.90
   8  -3  -7  195.57   29.07
  -8   3  -7  136.04   16.60
  -8  -3   7  169.06    4.14
   8  -3  -7  146.81    5.63
  -8  -3  -7  136.45   26.51
   8   3  -7  132.68    9.18
   8  -3  -7  156.39    5.56
  -8   3   7  156.88    7.01
  -8  -3   7  172.17   25.26
  -8   3  -8   78.02   17.07
   8   3  -8   74.24   17.62
   8  -3  -8   94.32   20.42
  -8   3  -8   72.37   15.81
   8  -3  -8   42.25    9.49
  -8  -3  -8   71.08   13.60
   8  -3  -8   62.75   10.52
  -8  -3   8   70.55   16.54
  -8   3   8   68.72   12.65
  -8   3  -9   24.94    5.55
  -8  -3  -9   27.82    6.86
   8   3  -9   22.65    4.73
   8  -3  -9   19.34    7.23
  -8   3  -9   18.81    5.81
  -8  -3  -9   26.62    6.29
   8  -3  -9   14.57    5.35
  -8  -3   9   29.42    6.01
  -8   3   9   25.87    7.70
  -8   3 -10   16.55    4.92
  -8  -3 -10   21.53    4.59
   8   3 -10   17.70    4.47
   8  -3 -10   13.62    4.63
  -8   3 -10   19.00    4.41
  -8  -3 -10   12.40    3.69
   8  -3 -10    7.81    2.78
  -8  -3  10   19.69    5.23
  -8   3  10   21.90    5.40
  -8   3 -11    3.61    2.70
  -8  -3 -11   11.17    5.72
   8   3 -11   10.42    3.13
   8  -3 -11   16.95    7.49
  -8   3 -11    6.09    2.75
  -8  -3 -11    2.07    3.58
  -8   3 -12   13.63    4.59
  -8  -3 -12   22.16    5.47
   8   3 -12    8.16    2.91
   8  -3 -12   29.01    6.50
  -8   3 -12   13.45    4.29
  -8  -3 -12    7.50    4.96
  -8  -3  12    4.64    2.57
  -8   3 -13   12.72    4.10
  -8  -3 -13   20.36    5.54
   8   3 -13   14.68    6.37
   8  -3 -13   25.22   10.18
  -8   3 -13   17.60    5.05
  -8  -3 -13   16.88    4.94
  -8  -3  13   30.31    5.82
  -8   3  13   17.88    6.09
  -8   3 -14   36.59   10.59
  -8  -3 -14   29.64    7.10
   8   3 -14   34.18    8.64
   8  -3 -14   26.50    6.67
  -8   3 -14   44.89    9.75
  -8  -3 -14   33.64    8.20
  -8  -3  14   42.66   10.57
  -8   3  14   25.08    7.54
  -8   3 -15    4.87    2.73
  -8  -3 -15    3.41    2.71
   8   3 -15    5.98    4.30
   8  -3 -15    2.53    3.49
  -8   3 -15    2.84    2.92
  -8  -3 -15    6.33    3.02
  -8  -3  15    4.20    3.42
  -8   3  15    3.20    2.16
  -8   3 -16   17.89    5.89
  -8  -3 -16   19.78    6.61
   8   3 -16   11.24    5.28
   8  -3 -16   14.85    4.77
  -8   3 -16   16.15    6.05
  -8  -3 -16   21.96    5.37
  -8  -3  16   13.78    4.35
  -8   3  16    9.11    4.16
  -8   3 -17   11.50    5.90
  -8  -3 -17    6.12    4.32
   8   3 -17   14.01    4.68
   8  -3 -17   16.49    7.74
  -8  -3 -17   17.03    3.29
  -8  -3  17   23.98    6.54
  -8   3  17   19.37    6.63
  -8   3 -18    4.23    2.95
  -8  -3 -18    8.71    3.89
   8   3 -18    3.33    2.88
   8  -3 -18   15.86    4.30
  -8  -3 -18   15.03    5.62
  -8  -3  18   17.69    5.27
  -8   3  18    9.39    5.50
  -8   4   0   88.01   17.94
  -8  -4   0  105.09   16.76
  -8  -4   0  104.83   23.35
   8  -4   0   85.13   11.17
  -8   4   1  279.59   19.93
  -8   4  -1  286.14   22.81
   8   4  -1  296.45   17.46
   8   4   1  266.27   15.64
   8   4  -1  246.98   14.59
   8   4   1  281.43   16.52
  -8  -4  -1  256.37   19.98
  -8  -4   1  279.80   18.06
  -8  -4  -1  256.98   18.08
  -8  -4   1  237.98   21.43
   8  -4  -1  266.44   17.12
  -8   4   2    3.71    3.98
  -8  -4  -2    1.32    0.78
  -8   4  -2    3.46    5.21
   8   4  -2    0.65    0.62
   8   4  -2    2.65    1.31
   8   4   2    1.64    1.00
  -8  -4  -2    4.07    3.06
  -8  -4   2    2.11    2.23
  -8  -4   2    5.00    3.60
   8  -4  -2    0.92    0.92
  -8   4   3   64.41    9.70
   8   4  -3   28.95    7.08
  -8   4  -3   45.07    7.82
  -8  -4  -3   44.40    4.81
   8   4  -3   35.57    7.33
   8   4   3   27.18    6.27
  -8  -4  -3   47.64   10.44
  -8  -4   3   46.48   12.96
   8  -4  -3   29.40    7.58
  -8   4   4  249.49   18.08
   8   4  -4  190.51   15.26
  -8   4  -4  268.76   19.28
  -8  -4  -4  239.54   15.31
   8   4  -4  223.50   14.45
   8   4   4  213.91   14.42
  -8  -4  -4  208.20   20.25
  -8  -4   4  244.01   16.60
  -8   4   4  217.38   14.86
  -8  -4   4  251.92   22.98
  -8   4  -5    7.77    4.35
  -8  -4  -5    6.63    2.50
   8   4  -5    2.47    1.92
   8   4   5    4.10    1.19
   8  -4  -5   12.40    5.91
  -8  -4  -5    3.10    3.64
  -8  -4   5    4.02    2.00
  -8   4   5    2.22    1.44
  -8  -4   5    7.64    2.87
  -8   4  -6   43.08    6.60
  -8  -4  -6   37.64    7.65
   8   4  -6   31.74    9.07
   8  -4  -6   47.15    8.53
  -8  -4   6   39.19    6.27
  -8  -4  -6   41.93    7.47
   8   4  -6   26.91    8.19
   8  -4  -6   38.08    6.95
  -8   4   6   36.16    7.44
  -8  -4   6   56.13    8.37
  -8   4  -7    8.17    3.80
  -8  -4  -7   20.27    5.56
   8   4  -7    4.54    2.36
   8  -4  -7   10.44    4.26
  -8  -4   7    8.29    2.86
  -8  -4  -7   11.07    5.18
   8  -4  -7   11.21    4.61
   8   4  -7    8.71    2.83
  -8   4   7   14.71    4.76
  -8  -4   7   16.07    5.09
  -8   4  -8  148.04   23.34
  -8  -4  -8  132.24   20.89
   8   4  -8  122.46   15.85
   8  -4  -8  149.10   19.89
  -8   4  -8  137.47   21.79
  -8  -4   8  110.90    6.54
  -8  -4  -8  148.07   15.25
   8  -4  -8  118.38   14.20
  -8   4   8  122.91    7.77
  -8  -4   8  148.08   26.33
  -8   4  -9   65.72   10.78
   8   4  -9   42.31    7.27
   8  -4  -9   57.89    9.67
  -8   4  -9   64.20   13.53
  -8  -4  -9   44.17   10.69
   8  -4  -9   39.20   11.50
  -8  -4   9   68.82   13.68
  -8   4   9   33.60    9.45
  -8   4 -10   11.44    3.87
  -8  -4 -10    8.47    3.28
   8   4 -10   10.30    4.45
   8  -4 -10   18.03    6.58
  -8   4 -10    9.18    3.07
  -8  -4 -10    6.82    2.98
   8  -4 -10    7.77    2.71
  -8  -4  10   15.85    4.99
  -8   4  10   15.26    3.65
  -8   4 -11   87.46   18.46
  -8  -4 -11   69.15   17.04
   8   4 -11   59.13   19.24
   8  -4 -11   86.77   12.94
  -8   4 -11   83.61   13.99
  -8  -4 -11   78.61   13.34
  -8  -4  11   94.11   13.53
  -8   4  11   75.63   13.75
  -8   4 -12   27.35    8.16
  -8  -4 -12   17.39    6.85
   8   4 -12   16.40    5.88
   8  -4 -12   40.72    9.49
  -8  -4 -12   11.66    3.64
  -8  -4  12   37.94    7.87
  -8   4  12   28.90    8.32
  -8   4 -13   93.94   13.90
  -8  -4 -13   77.77   19.08
   8   4 -13   77.46   15.44
   8  -4 -13   81.96   18.20
  -8  -4 -13   83.13   19.35
  -8  -4  13   81.49   16.46
  -8   4 -14   10.90    3.22
  -8  -4 -14   10.42    3.27
   8   4 -14   11.39    4.19
   8  -4 -14    5.61    5.44
  -8  -4 -14   10.57    3.42
  -8  -4  14   10.71    3.42
  -8   4 -15   40.99   12.64
  -8  -4 -15   43.78   10.33
   8   4 -15   25.41    8.04
   8  -4 -15   52.54    9.53
  -8  -4 -15   57.17   11.64
  -8  -4  15   50.43   15.16
  -8   4 -16   28.43    9.35
  -8  -4 -16   22.42    6.99
   8   4 -16   14.15    5.74
   8  -4 -16   33.48    7.47
  -8  -4 -16   10.96    5.90
  -8  -4  16   23.29    8.85
  -8   4  16    6.84    4.09
  -8   4 -17   11.16    5.16
  -8  -4 -17    6.88    4.13
   8   4 -17    4.70    4.18
   8  -4 -17    7.13    4.47
  -8  -4 -17    4.90    2.33
  -8  -4  17    4.33    5.01
  -8   4  17    3.34    3.25
  -8   4 -18    1.43    2.53
  -8  -4 -18    1.67    4.37
   8   4 -18    4.65    2.86
   8  -4 -18   12.46    6.14
  -8  -4 -18    6.25    3.14
  -8  -4  18    5.85    5.92
  -8   4  18    1.74    3.79
  -8   5   0   42.14    8.93
  -8  -5   0   39.14    6.37
  -8  -5   0   32.33   10.10
   8  -5   0   30.49    7.84
  -8   5   1  113.90   18.59
  -8   5  -1  128.56   21.05
  -8  -5  -1  103.20   13.37
  -8  -5   1  120.84   30.07
  -8  -5  -1  113.51   24.68
  -8  -5   1  115.42   20.43
   8  -5   1   83.49    8.87
   8  -5  -1  116.86    4.27
  -8   5   2   55.12   13.40
  -8   5  -2   72.94   14.78
  -8  -5  -2   51.84    9.65
  -8  -5   2   55.28   12.51
  -8  -5   2   38.63    8.87
   8  -5  -2   43.51    4.54
  -8   5   3    6.19    3.61
   8   5  -3    4.34    0.93
  -8  -5  -3    1.73    0.83
  -8   5  -3    9.68    6.34
   8   5  -3    4.50    0.96
   8   5   3    4.81    0.91
  -8  -5  -3    5.19    2.20
  -8  -5   3   10.41    3.83
   8  -5  -3    5.31    1.53
  -8   5   4   93.82   15.62
   8   5  -4   58.07    3.90
  -8   5  -4   87.52   18.53
  -8  -5  -4   84.52    4.64
   8   5  -4   80.02    6.71
   8   5   4   53.73    6.54
  -8  -5  -4   79.31   13.80
  -8  -5   4   84.10   14.11
  -8  -5   4   98.84   19.70
  -8   5  -5  197.75   15.36
  -8  -5  -5  168.58    6.93
   8   5  -5  150.24   13.09
   8   5   5  141.05   10.47
   8  -5  -5  201.22   25.83
  -8  -5  -5  155.18   23.34
  -8  -5   5  167.73    6.48
   8  -5  -5  188.01   15.39
  -8   5   5  152.43    3.71
  -8  -5   5  169.71   31.73
  -8   5  -6   24.34    6.74
  -8  -5  -6   20.29    5.90
   8   5  -6   23.23    6.52
   8  -5  -6   24.42    7.02
  -8  -5  -6   22.61    6.59
  -8  -5   6   19.27    5.59
   8  -5  -6   21.67    5.72
  -8   5   6   20.26    5.66
  -8  -5   6   20.00    6.04
  -8   5  -7   52.13    9.98
  -8  -5  -7   48.52    9.30
   8   5  -7   48.96   12.16
   8  -5  -7   55.34   10.43
  -8  -5  -7   40.72    6.82
  -8  -5   7   37.17    8.00
   8  -5  -7   31.31   10.60
  -8   5   7   55.87    5.88
  -8  -5   7   53.62    7.03
  -8   5  -8   69.42   21.25
  -8  -5  -8   62.56   13.14
   8   5  -8   55.78   14.74
   8  -5  -8   82.54   17.12
  -8  -5  -8   72.90   13.50
  -8  -5   8   57.55    3.64
   8  -5  -8   54.13   13.77
  -8   5   8   64.31    8.90
  -8  -5   8   77.34   16.95
  -8   5  -9   14.10    4.70
  -8  -5  -9   16.48    5.63
   8   5  -9   17.37    6.16
   8  -5  -9   10.91    3.74
  -8  -5   9    7.50    2.17
  -8  -5  -9   10.24    3.82
   8  -5  -9    8.44    3.81
  -8  -5   9    6.50    3.23
  -8   5   9    9.51    2.47
  -8   5 -10    6.73    3.13
   8   5 -10    6.37    4.70
   8  -5 -10    3.83    3.57
  -8  -5 -10    3.89    2.15
   8  -5 -10    7.08    2.89
  -8  -5  10   10.30    3.03
  -8   5  10    6.63    2.58
  -8   5 -11   65.14   12.01
  -8  -5 -11   45.52   12.87
   8   5 -11   54.73   10.95
   8  -5 -11   77.43   15.58
  -8  -5 -11   40.03    8.55
  -8  -5  11   52.58   14.16
  -8   5  11   54.90   15.96
  -8   5 -12    6.20    3.18
  -8  -5 -12   11.09    3.16
   8   5 -12    7.73    3.64
   8  -5 -12   17.46    5.25
  -8  -5 -12   10.97    4.32
  -8  -5  12   13.26    5.29
  -8   5  12    8.98    3.63
  -8   5 -13   38.37    7.17
  -8  -5 -13   30.26    9.11
   8   5 -13   32.47    7.04
   8  -5 -13   16.23    7.76
  -8  -5 -13   52.68   12.61
  -8  -5  13   29.62    5.15
  -8   5  13   34.42    7.86
  -8   5 -14    8.79    3.33
  -8  -5 -14   16.65    5.06
   8   5 -14   13.61    4.05
   8  -5 -14    5.92    3.11
  -8  -5 -14   18.64    5.19
  -8  -5  14   19.60    5.92
  -8   5 -15    7.01    3.81
  -8  -5 -15   19.55    8.01
   8   5 -15   16.47    5.96
   8  -5 -15   25.10   10.64
  -8  -5 -15   18.93    6.12
  -8  -5  15   12.92    4.72
  -8   5  15   13.06    4.50
  -8   5 -16    7.89    4.31
  -8  -5 -16   11.26    4.29
   8   5 -16   11.53    6.02
   8  -5 -16    9.60    5.90
  -8  -5 -16    5.40    2.19
  -8  -5  16    7.27    3.90
  -8   5 -17    9.90    6.04
  -8  -5 -17    9.79    4.67
   8   5 -17   15.63    5.56
   8  -5 -17    8.94    5.03
  -8  -5 -17   10.74    8.40
  -8  -5  17   24.81    6.93
  -8   6   0    2.61    3.90
  -8  -6   0    1.58    4.51
   8  -6   0    1.25    0.81
  -8   6   1   -3.10    4.12
  -8   6  -1   11.25    5.36
  -8  -6  -1    6.13    2.98
  -8  -6   1    1.78    1.82
  -8  -6  -1    6.30    3.42
   8  -6   1    1.02    0.99
  -8  -6   1    6.27    4.25
   8  -6  -1    4.60    1.05
  -8   6   2  174.86   19.07
  -8   6  -2  200.92   14.90
  -8  -6  -2  223.93   34.11
  -8  -6   2  213.11   28.96
  -8  -6  -2  224.72   32.88
  -8  -6   2  182.28   35.55
  -8   6   3  152.16   20.91
  -8   6  -3  151.23    8.86
  -8  -6  -3  162.83    8.20
  -8  -6   3  179.64    7.41
  -8  -6   3  168.87   32.33
  -8   6   4   13.44    6.74
   8   6  -4    4.78    1.29
  -8   6  -4   11.48    4.35
  -8  -6  -4    5.06    1.58
   8   6  -4    7.38    2.14
   8   6   4    7.25    2.25
  -8  -6  -4    6.46    3.18
  -8  -6   4    9.21    3.17
  -8   6  -5  113.40   23.78
  -8  -6  -5   92.90    8.45
   8   6  -5   83.82   10.76
   8   6   5   67.12   10.39
   8  -6  -5  109.18   16.04
  -8  -6  -5  105.05   12.68
  -8  -6   5   98.78   16.10
   8  -6  -5  116.43   16.65
  -8  -6   5  109.12   18.19
  -8   6  -6    7.86    4.17
  -8  -6  -6    3.33    2.01
   8   6  -6    2.92    2.26
   8  -6  -6    7.03    2.75
  -8  -6  -6   16.12   10.44
  -8  -6   6    3.10    1.93
   8  -6  -6    9.82    5.21
  -8   6   6    1.52    0.81
  -8  -6   6    4.43    3.47
  -8   6  -7   70.15   13.99
  -8  -6  -7   66.05   15.26
   8   6  -7   65.96   14.51
   8  -6  -7   58.43    9.67
  -8  -6  -7   54.23   15.23
  -8  -6   7   74.08   11.68
   8  -6  -7   65.81   15.84
  -8   6   7   61.16    6.74
  -8  -6   7   77.92   16.38
  -8   6  -8   28.93    6.50
  -8  -6  -8   30.87    8.58
   8   6  -8   30.53    5.33
   8  -6  -8   36.43   12.72
  -8  -6  -8   36.20    6.19
  -8  -6   8   20.38    5.53
   8  -6  -8   25.03    5.12
  -8   6   8   21.21    6.06
  -8  -6   8   29.87    7.58
  -8   6  -9  152.61   20.58
  -8  -6  -9  153.44   18.26
   8   6  -9  127.22   19.59
   8  -6  -9  166.79   37.83
  -8  -6  -9  153.95   29.43
  -8  -6   9  138.08    5.70
   8  -6  -9  124.60   22.28
  -8   6   9  139.29    4.52
  -8  -6   9  172.53   14.73
  -8   6 -10   45.32    9.26
  -8  -6 -10   54.11   12.84
   8   6 -10   35.16   10.25
   8  -6 -10   56.86   11.53
  -8  -6 -10   47.40   11.66
   8  -6 -10   34.77    9.54
  -8  -6  10   43.39    8.82
  -8   6  10   34.47    9.55
  -8   6 -11    9.32    3.21
   8  -6 -11   18.20    6.57
  -8  -6 -11    9.43    3.47
   8  -6 -11    5.95    2.09
  -8  -6  11    8.54    4.16
  -8   6  11   10.19    2.24
  -8   6 -12    6.18    4.05
   8   6 -12    4.04    3.23
   8  -6 -12    4.16    3.41
  -8  -6 -12    5.22    2.55
  -8  -6  12    4.98    3.12
  -8   6  12    2.04    1.25
  -8   6 -13    5.22    2.77
  -8  -6 -13    3.17    2.04
   8   6 -13    5.74    3.52
   8  -6 -13   11.90    5.23
  -8  -6 -13    5.41    3.01
  -8  -6  13    9.76    5.09
  -8   6  13   -0.55    1.86
  -8   6 -14   47.38   14.34
  -8  -6 -14   41.03    7.58
   8   6 -14   47.81   15.91
   8  -6 -14   51.57   16.49
  -8  -6 -14   57.82   11.18
  -8  -6  14   45.84    7.83
  -8   6 -15   16.10    7.83
  -8  -6 -15    7.99    4.04
   8   6 -15   16.48    6.15
   8  -6 -15   10.13    4.10
  -8  -6 -15   19.53    5.97
  -8  -6  15    9.38    4.78
  -8   6 -16    5.71    3.86
  -8  -6 -16    5.01    3.12
   8   6 -16    7.14    2.51
   8  -6 -16   17.80    6.61
  -8  -6 -16    6.45    3.46
  -8  -6  16    8.74    4.91
  -8   6 -17   39.52   10.27
  -8  -6 -17   17.25    9.95
   8   6 -17   29.39    6.41
   8  -6 -17   29.79   14.54
  -8  -6 -17   36.55    7.89
  -8  -6  17   36.20   12.46
  -8   7   0    8.07    5.14
  -8  -7   0    4.93    3.10
  -8  -7   0    9.86    4.29
   8  -7   0    3.73    2.07
  -8   7   1  113.51   21.41
  -8   7  -1  141.98   16.17
  -8  -7  -1  108.06   16.37
  -8  -7  -1   92.74   17.74
  -8  -7   1  129.13   26.20
  -8   7   2    5.22    2.12
  -8   7  -2    6.74    5.13
  -8  -7  -2    9.18    4.05
  -8  -7   2    7.06    4.03
  -8  -7  -2    3.21    3.45
   8  -7   2    2.10    1.05
  -8  -7   2    7.27    3.22
  -8   7   3  189.45   35.12
  -8   7  -3  199.60   27.40
  -8  -7  -3  210.56   25.92
  -8  -7   3  191.35    8.24
  -8  -7   3  167.72   32.32
  -8   7   4  128.37   12.07
   8   7  -4  118.38    6.20
  -8   7  -4  162.59   26.38
  -8  -7  -4  142.47    7.29
   8   7  -4  149.62    9.75
  -8  -7  -4  142.30   29.94
   8  -7  -4  160.40   15.42
  -8  -7   4  187.57   27.36
  -8  -7  -5   94.01    8.15
  -8   7  -5  119.60   21.17
  -8  -7  -5  112.75   11.80
   8   7  -5  113.56    8.06
  -8  -7   5   90.62    8.47
   8  -7  -5  133.84   16.99
  -8  -7  -5  128.77   16.61
  -8  -7   5  136.04   17.87
   8  -7  -5  112.31   14.35
  -8  -7   5  116.36   20.55
  -8   7  -6    8.44    5.38
  -8  -7  -6    3.33    1.69
   8   7  -6    4.96    1.75
   8  -7  -6   -2.62    4.99
  -8  -7  -6   -0.19    2.35
  -8  -7   6    4.02    2.57
   8  -7  -6    1.18    2.80
  -8  -7   6   12.20    4.60
  -8   7  -7   71.20   17.33
  -8  -7  -7   49.79    9.99
   8   7  -7   47.37   13.17
   8  -7  -7   45.84   11.46
  -8  -7  -7   62.22   14.37
  -8  -7   7   58.54   13.77
   8  -7  -7   60.38   17.16
  -8  -7   7   65.41   11.82
  -8   7  -8  100.57   20.97
  -8  -7  -8  109.25   13.83
   8   7  -8   85.88   16.47
   8  -7  -8  102.08   22.52
  -8  -7  -8  117.30   20.33
  -8  -7   8   90.42   13.38
   8  -7  -8   83.28   16.85
  -8  -7   8  101.56   21.76
  -8   7  -9   74.94   22.54
  -8  -7  -9   74.37   17.78
   8   7  -9   81.74   10.83
   8  -7  -9  119.95   18.38
  -8  -7  -9   99.95   15.95
  -8  -7   9   97.04   10.74
   8  -7  -9   59.19   14.66
  -8  -7   9   86.68   16.98
  -8   7 -10   19.76    6.44
  -8  -7 -10   23.10    6.33
   8   7 -10   23.64    8.10
   8  -7 -10   17.52    5.48
  -8  -7 -10   22.40    6.67
   8  -7 -10   12.27    3.87
  -8  -7  10   18.72    6.72
  -8   7 -11   89.12   20.21
   8   7 -11   74.18   15.41
  -8  -7 -11   81.99   18.20
   8  -7 -11   87.89   17.03
  -8  -7 -11   74.86   12.14
   8  -7 -11   47.55   14.31
  -8  -7  11   82.07   26.83
  -8   7 -12   16.64    6.27
   8   7 -12    6.51    4.89
   8  -7 -12    5.00    3.59
  -8  -7 -12   13.61    7.03
  -8  -7  12    3.59    3.04
  -8   7 -13   23.56    9.49
   8   7 -13   29.42    6.98
  -8  -7 -13   20.73    6.83
   8  -7 -13   32.99    9.05
  -8  -7 -13   31.12   14.47
  -8  -7  13   45.74   10.71
  -8   7 -14    8.29    4.19
  -8  -7 -14    3.62    2.38
   8   7 -14    2.82    1.65
   8  -7 -14    9.13    5.35
  -8  -7 -14    8.88    3.84
  -8  -7  14   10.81    6.77
  -8   7 -15   20.16    8.62
   8   7 -15    8.20    3.28
  -8  -7 -15    7.18    3.79
   8  -7 -15   14.82    5.12
  -8  -7 -15    7.35    4.81
  -8  -7  15    5.31    2.64
  -8   7 -16   29.10    7.04
   8   7 -16   23.13    5.67
  -8  -7 -16   20.88    7.36
   8  -7 -16   11.97    5.76
  -8  -7 -16   20.54    7.13
  -8  -7  16   25.68    6.93
  -8   8   0  162.28   17.48
  -8  -8   0  190.15   28.95
  -8  -8   0  174.80   32.09
  -8   8  -1  160.52   27.23
  -8  -8  -1  173.12   29.68
  -8  -8   1  161.78   25.03
  -8  -8  -1  158.48   28.12
  -8  -8   1  178.82   27.66
   8  -8   1  141.77   10.67
  -8   8   2   41.36    6.18
  -8   8  -2   45.58    9.44
  -8  -8  -2   51.24    9.78
  -8  -8   2   65.20    9.62
  -8  -8  -2   58.82   11.51
  -8  -8   2   56.42   10.92
  -8   8   3   35.62    8.46
  -8   8  -3   35.18    8.73
  -8  -8  -3   29.72    8.77
  -8  -8   3   28.00    7.98
   8  -8  -3   33.11    9.15
  -8  -8   3   24.41    7.79
  -8   8   4   40.97    8.64
  -8   8  -4   59.47   10.11
   8   8  -4   26.61    2.68
  -8  -8  -4   38.34    9.14
  -8  -8   4   61.14   10.94
   8  -8  -4   53.77   11.40
  -8  -8   4   53.51    6.74
  -8   8  -5   34.20   10.50
   8   8  -5   35.65    5.20
  -8  -8  -5   26.71    5.74
  -8  -8  -5   40.66    8.42
   8  -8  -5   41.39   11.17
  -8  -8   5   30.29    7.29
  -8   8  -6   64.70   11.85
   8   8  -6   35.76    8.50
  -8  -8  -6   34.64    9.26
   8  -8  -6   59.20    9.60
  -8  -8  -6   55.86   17.46
  -8  -8   6   39.55   14.07
   8  -8  -6   38.80   10.64
  -8  -8   6   49.64   19.55
  -8   8  -7    6.87    4.42
   8   8  -7    4.33    2.35
  -8  -8  -7    1.88    1.83
   8  -8  -7   10.43    4.29
  -8  -8  -7    9.55    5.02
  -8  -8   7    1.38    2.13
   8  -8  -7    7.78    4.94
  -8  -8   7    3.39    2.90
  -8   8  -8   20.12    6.59
   8   8  -8   18.44    6.23
  -8  -8  -8   29.77    5.47
   8  -8  -8   43.11    7.84
  -8  -8  -8   35.63    7.47
  -8  -8   8   28.08    9.61
   8  -8  -8   32.43    8.58
  -8  -8   8   46.01    9.88
  -8   8  -9   25.59    6.10
   8   8  -9   22.72    6.14
  -8  -8  -9   28.91    7.19
   8  -8  -9   37.24    7.97
  -8  -8  -9   32.52    8.95
  -8  -8   9   22.69    7.20
   8  -8  -9   11.17    4.27
  -8  -8   9   25.27    6.35
  -8   8 -10    6.57    3.73
   8   8 -10    4.79    2.12
  -8  -8 -10    5.34    2.74
   8  -8 -10   -0.26    5.45
  -8  -8 -10    8.60    4.32
   8  -8 -10    4.15    4.02
  -8  -8  10    5.51    3.81
  -8   8 -11   42.15   16.89
   8   8 -11   28.32    8.36
  -8  -8 -11   42.71   12.87
   8  -8 -11   58.17   12.65
  -8  -8 -11   50.18   13.74
   8  -8 -11   31.83    9.97
  -8  -8  11   51.37   12.09
  -8   8 -12   92.80   26.15
   8   8 -12   70.99   22.15
  -8  -8 -12   76.11   16.62
   8  -8 -12  111.26   20.83
  -8  -8 -12   97.15   12.00
  -8  -8  12   98.69   17.21
  -8   8 -13   41.45   11.13
   8   8 -13   33.96    9.59
   8  -8 -13   46.72   10.52
  -8  -8 -13   27.96   11.90
  -8  -8  13   35.77    9.65
  -8   8 -14    4.31    4.78
   8   8 -14   -0.71    3.04
  -8  -8 -14    0.23    2.28
   8  -8 -14    8.17    5.23
  -8  -8 -14    2.87    3.77
  -8  -8  14    5.49    2.00
  -8   8 -15   11.02    4.95
   8   8 -15    1.20    1.25
  -8  -8 -15    9.19    6.39
   8  -8 -15   13.71    7.28
  -8  -8  15    4.67    3.78
  -8   8 -16    6.60    3.15
   8   8 -16    6.30    3.36
  -8  -8 -16    9.13    4.30
   8  -8 -16    2.83    4.88
  -8  -8 -16    4.78    3.59
  -8  -8  16    6.06    4.78
  -8   9   0   45.62    8.54
  -8  -9   0   65.27   15.91
  -8  -9   0   44.32    8.00
  -8   9   1    7.26    3.95
  -8   9  -1    7.47    4.24
  -8  -9  -1   14.66    4.00
  -8  -9   1   13.33    5.52
  -8  -9  -1   10.21    4.70
  -8  -9   1   10.04    4.47
   8  -9   1    2.71    0.90
  -8   9   2   58.09    9.19
  -8   9  -2   45.85    5.93
  -8  -9  -2   52.15   11.10
  -8  -9   2   63.29   16.77
   8  -9  -2   39.62   10.57
  -8  -9  -2   53.25   11.54
  -8  -9   2   61.78   11.73
   8  -9   2   35.96    8.60
  -8   9   3   22.85    9.07
  -8   9  -3    7.85    4.95
  -8  -9  -3    7.11    2.92
  -8  -9   3    8.15    4.91
   8  -9  -3    5.55    4.46
  -8  -9   3   13.95    5.24
  -8   9   4   34.19    7.20
  -8   9  -4   54.24   15.04
  -8  -9  -4   40.31    8.12
  -8  -9   4   38.28    8.47
   8  -9  -4   53.05   10.84
  -8  -9   4   36.55    6.44
  -8   9   5   28.82    7.46
  -8   9  -5   24.39    6.19
  -8  -9  -5   32.60    8.83
  -8  -9   5   25.85    5.92
   8  -9  -5   15.90    6.87
  -8  -9   5   18.27    6.40
  -8   9  -6   19.51    7.28
   8   9  -6    9.19    2.76
  -8  -9  -6    7.22    2.99
   8  -9  -6    8.84    4.40
  -8  -9  -6    5.77    4.10
   8  -9  -6    9.58    4.80
  -8  -9   6   16.24    5.52
  -8   9  -7   92.92   11.87
   8   9  -7   80.37    9.66
  -8  -9  -7   72.25   10.57
   8  -9  -7   98.54   19.24
  -8  -9  -7   79.00   15.77
  -8  -9   7  101.08   19.79
   8  -9  -7   74.84   21.14
  -8  -9   7   78.04   15.82
  -8   9  -8   15.11    5.34
   8   9  -8   17.14    4.54
  -8  -9  -8   20.03    4.94
   8  -9  -8   21.80    9.05
  -8  -9  -8   18.36    5.95
  -8  -9   8   27.17    8.07
   8  -9  -8   10.69    3.56
  -8  -9   8   37.20    8.94
  -8   9  -9   38.01    7.15
   8   9  -9   24.58    4.29
  -8  -9  -9   20.66    5.76
   8  -9  -9   40.31    8.54
  -8  -9  -9   40.33   10.50
  -8  -9   9   23.82    8.01
   8  -9  -9   28.02    9.64
  -8  -9   9   25.47    6.97
  -8   9 -10   52.07   14.60
   8   9 -10   37.81   10.09
  -8  -9 -10   34.43   10.25
   8  -9 -10   55.21    9.08
  -8  -9 -10   42.59   17.42
   8  -9 -10   36.92   13.92
  -8  -9  10   55.63   17.06
  -8   9 -11   15.47    6.49
   8   9 -11    8.95    3.62
  -8  -9 -11    6.34    3.91
   8  -9 -11   14.46    7.20
  -8  -9 -11   10.75    4.58
   8  -9 -11    7.25    3.80
  -8  -9  11   13.96    4.88
  -8   9 -12   10.47    6.15
   8   9 -12    4.43    2.35
  -8  -9 -12    3.84    2.47
   8  -9 -12    7.38    4.33
  -8  -9 -12    8.08    4.35
  -8  -9  12    7.41    4.91
  -8   9 -13    4.19    2.09
   8   9 -13   10.87    4.35
  -8  -9 -13    4.00    1.88
   8  -9 -13   10.79    3.65
  -8  -9 -13    2.62    3.66
  -8  -9  13   26.79    7.44
  -8   9 -14   31.02   11.58
   8   9 -14   17.00    4.85
   8  -9 -14   30.11    8.38
  -8  -9 -14   20.64    6.17
  -8  -9  14   15.55    8.32
  -8   9 -15    8.15    5.08
   8   9 -15    5.70    2.79
   8  -9 -15    8.28    4.50
  -8  -9 -15    6.91    3.10
  -8  -9  15    1.28    2.74
  -8  10   0    1.82    2.02
  -8 -10   0    9.99    4.05
  -8 -10   0   10.56    3.82
  -8  10   1   35.90   10.18
  -8  10  -1    6.31    5.07
  -8 -10  -1   20.81    5.28
  -8 -10   1   22.10    5.30
   8 -10  -1   25.44    9.35
  -8 -10  -1   23.56    7.37
  -8 -10   1   20.80    6.38
  -8  10   2   46.42   11.64
  -8  10  -2   27.33   10.82
  -8 -10  -2   41.87   12.08
  -8 -10   2   59.31   15.15
   8 -10  -2   46.85   10.04
  -8 -10  -2   50.56    9.92
  -8 -10   2   35.49    5.91
  -8  10   3   15.14    5.99
  -8  10  -3   28.37   13.36
  -8 -10  -3   22.93    7.07
  -8 -10   3   22.05    5.60
   8 -10  -3   18.89    5.64
  -8 -10   3   20.14    4.91
   8 -10   3   10.99    3.18
  -8  10   4   10.69    5.11
  -8  10  -4    5.85    4.55
  -8 -10  -4   14.41    5.02
  -8 -10   4   16.73    4.77
   8 -10  -4    9.04    4.59
  -8 -10   4    2.93    4.11
   8 -10   4    3.77    1.95
  -8  10   5   30.04    6.32
  -8  10  -5   28.44    5.92
  -8 -10  -5   27.52    7.61
  -8 -10   5   26.23    6.06
   8 -10  -5   17.36    4.06
  -8 -10   5   21.60    6.97
   8 -10   5   24.24    7.64
  -8  10  -6  137.40   22.80
   8 -10  -6  130.81   34.01
  -8 -10  -6  124.68   23.70
  -8 -10   6   90.18   11.79
   8 -10  -6  107.64   25.38
  -8 -10   6  146.39   26.66
  -8  10  -7   10.98    5.79
   8 -10  -7   14.55    4.48
  -8 -10  -7   12.43    5.03
  -8 -10   7    4.79    3.22
   8 -10  -7   12.35    5.49
  -8 -10   7   15.93    6.25
  -8  10  -8   11.34   10.65
   8 -10  -8   22.70   10.49
  -8 -10  -8    8.24    3.69
  -8 -10   8    8.20    4.57
   8 -10  -8    6.31    4.17
  -8 -10   8   11.31    8.06
  -8  10  -9   10.51    4.94
   8 -10  -9   13.36    8.07
  -8 -10  -9    8.91    4.03
  -8 -10   9    9.25    3.68
   8 -10  -9   19.53    5.40
  -8 -10   9   16.55    5.91
  -8  10 -10   56.96   14.41
   8 -10 -10   78.09   17.82
  -8 -10 -10   45.04   11.10
   8 -10 -10   33.81    6.81
  -8 -10  10   58.23   14.11
  -8  10 -11    9.31    5.18
   8 -10 -11   14.36    8.28
  -8 -10 -11    4.00    4.71
   8 -10 -11    4.97    3.67
  -8 -10  11   12.70    7.39
  -8  10 -12   10.11    4.42
   8 -10 -12    5.89    6.03
  -8 -10 -12    1.92    2.15
  -8 -10  12    8.65    2.98
  -8  10 -13   21.11    4.92
   8 -10 -13   13.84    4.95
  -8 -10 -13   13.81    5.28
  -8 -10  13   22.81    8.85
  -8  10 -14   11.65    6.59
   8 -10 -14   20.10    8.09
  -8 -10 -14    8.32    5.18
  -8 -10  14   18.23    6.56
  -8  11   0   54.73   16.51
  -8 -11   0   59.27   12.58
   8 -11   0   55.69   10.24
  -8 -11   0   41.77   17.52
  -8  11   1   37.40   11.71
  -8  11  -1   36.08    7.94
  -8 -11  -1   29.99    7.66
  -8 -11   1   29.04    9.98
   8 -11  -1   43.77    7.68
   8 -11   1   41.83    8.41
  -8 -11  -1   26.98    6.97
  -8 -11   1   28.18    5.61
  -8  11   2   56.90    8.61
  -8  11  -2   47.20   15.58
  -8 -11  -2   48.97   17.01
  -8 -11   2   68.61   19.85
   8 -11  -2   57.19   16.14
  -8 -11  -2   66.33    9.32
  -8 -11   2   51.11   10.83
  -8  11   3   40.70   11.23
  -8  11  -3   42.73   10.89
  -8 -11  -3   43.89   13.88
  -8 -11   3   42.46   10.65
   8 -11  -3   35.66   10.90
  -8 -11   3   49.67   14.94
  -8  11   4   66.38   17.91
  -8  11  -4   53.08    9.73
  -8 -11  -4   52.74   14.26
  -8 -11   4   45.67   11.30
   8 -11  -4   52.53   14.02
  -8 -11   4   62.76   10.00
  -8  11   5    8.75    4.40
  -8  11  -5    6.18    4.98
  -8 -11  -5    9.34    5.31
  -8 -11   5   11.80    5.84
   8 -11  -5    9.92    4.41
  -8 -11   5   20.28    5.19
   8 -11   5    2.03    1.67
  -8  11  -6    5.53    5.90
   8 -11  -6   10.15    7.36
  -8 -11  -6    4.86    2.52
  -8 -11   6    3.33    3.03
   8 -11  -6    5.74    3.80
  -8 -11   6    5.73    3.93
   8 -11   6    2.07    1.70
  -8  11  -7    4.90    6.04
   8 -11  -7    7.96    4.39
  -8 -11  -7    5.66    3.57
   8 -11  -7   18.74    5.23
  -8 -11   7   12.14    5.64
   8 -11   7    5.07    3.18
  -8  11  -8   31.62    9.10
   8 -11  -8   49.67   10.75
  -8 -11  -8   38.56   12.86
  -8 -11   8   40.78    7.88
   8 -11  -8   33.10   10.75
  -8 -11   8   37.12   11.40
   8 -11   8   29.16    9.05
  -8  11  -9   21.67    8.60
   8 -11  -9   24.50   10.20
  -8 -11  -9   25.07    8.26
  -8 -11   9   26.20    5.90
   8 -11  -9   22.24    6.66
  -8 -11   9   22.69    5.66
   8 -11   9   17.05    7.58
   8 -11 -10    8.80    4.10
  -8 -11 -10   24.23    6.71
   8 -11 -10   10.33    3.12
  -8 -11  10   16.25    7.18
  -8  11 -11    7.44    4.11
   8 -11 -11    2.61    3.24
  -8 -11 -11    8.38    4.75
   8 -11 -11    3.56    1.71
  -8 -11  11    6.67    3.41
  -8  11 -12   27.76    7.36
   8 -11 -12   13.57    7.31
  -8 -11 -12   21.50    6.28
  -8 -11  12   17.97    5.29
   8 -11 -13   19.10   11.52
  -8 -11 -13    3.49    2.40
  -8 -11  13    8.29    4.59
  -8  12   0  189.62   23.62
  -8 -12   0  184.15   35.50
   8 -12   0  199.48   50.49
  -8 -12   0  182.16   18.80
  -8  12   1   18.94    4.38
  -8  12  -1   21.41    6.20
  -8 -12  -1   16.31    5.12
  -8 -12   1   32.78   11.82
   8 -12  -1    8.00    4.81
   8 -12   1    6.71    5.15
  -8 -12  -1   18.85    5.65
  -8 -12   1   16.47    4.92
  -8  12   2    4.82    4.66
  -8  12  -2   15.32    5.79
  -8 -12  -2    6.15    5.14
  -8 -12   2    9.03    4.06
   8 -12  -2   26.03    8.56
   8 -12   2    4.53    4.04
  -8 -12  -2   10.78    5.29
  -8 -12   2    5.05    3.60
  -8  12   3   17.43    6.77
  -8  12  -3   21.88    8.33
  -8 -12  -3    5.76    3.64
  -8 -12   3   19.37    4.76
   8 -12  -3   19.84    9.32
   8 -12   3   13.91    6.66
  -8 -12   3   21.20    7.32
  -8  12   4   11.68    3.86
  -8  12  -4   14.54    6.85
  -8 -12  -4   18.83    5.51
  -8 -12   4   16.94    6.06
   8 -12  -4   23.53    6.20
  -8 -12   4   15.75    4.24
  -8  12  -5    6.51    3.55
  -8 -12  -5    5.64    5.32
  -8 -12   5    5.80    2.44
   8 -12  -5    8.66    3.64
  -8 -12   5    7.22    2.45
  -8  12  -6   13.76    5.93
   8 -12  -6    9.37    6.90
  -8 -12  -6   -1.65    4.15
  -8 -12   6    3.99    5.36
   8 -12  -6    7.12    6.22
  -8 -12   6    9.26    2.82
  -8  12  -7   17.49    5.27
   8 -12  -7    9.92    5.52
  -8 -12  -7   15.56    5.50
  -8 -12   7    9.40    5.29
   8 -12  -7   12.65    5.93
  -8 -12   7   27.70   16.29
  -8  12  -8    4.12    3.28
   8 -12  -8    8.94    7.55
  -8 -12  -8    3.58    3.50
   8 -12  -8   11.67    5.09
  -8 -12   8   10.90    4.77
   8 -12   8    5.62    2.40
  -8  12  -9   15.40    6.74
   8 -12  -9   16.47    7.36
  -8 -12  -9   32.36   11.00
  -8 -12   9   16.62    5.67
   8 -12  -9   11.21    3.71
  -8 -12   9   11.75    5.81
   8 -12   9   16.81    4.97
  -8  12 -10    5.23    3.74
   8 -12 -10    6.20    4.00
  -8 -12 -10    3.24    2.85
   8 -12 -10    9.83    4.08
  -8 -12  10    4.40    3.13
   8 -12  10   -0.29    2.08
  -8  12 -11   -1.36    3.82
   8 -12 -11   16.18    5.79
  -8 -12 -11    9.78    4.56
   8 -12 -11    6.38    3.29
  -8 -12  11    8.53    4.18
   8 -12  11    5.37    3.29
  -8  12 -12   40.55   14.74
   8 -12 -12   17.36    6.51
  -8 -12 -12   32.02   10.49
  -8 -12  12   32.51   13.87
   8 -12  12   31.12   14.89
  -8  13   0   -0.09    3.41
  -8 -13   0    7.36    4.02
   8 -13   0   -2.34    7.31
  -8 -13   0    2.45    3.46
  -8  13   1   25.74    7.83
  -8  13  -1   41.30    8.22
  -8 -13  -1   25.03    7.29
  -8 -13   1   30.23    7.82
   8 -13  -1   31.46   13.77
   8 -13   1   20.60   10.60
  -8 -13  -1   29.61    6.86
  -8 -13   1   21.66    5.88
  -8  13   2   20.87    6.32
  -8  13  -2   28.60    8.31
  -8 -13  -2   16.60    5.87
  -8 -13   2   16.89    4.66
   8 -13  -2   14.72    4.71
   8 -13   2    8.65    5.19
  -8 -13   2   22.82    4.85
  -8  13   3   21.49    6.15
  -8  13  -3   13.38    4.92
  -8 -13  -3   25.14    5.79
  -8 -13   3   32.51   10.49
   8 -13  -3   31.65   11.95
   8 -13   3   32.98    5.59
  -8 -13   3   15.12    5.87
  -8  13   4   62.68   18.52
  -8  13  -4   51.77    8.46
  -8 -13  -4   53.50   13.89
  -8 -13   4   74.00   16.03
   8 -13  -4   56.76   14.51
   8 -13   4   79.66   19.90
  -8 -13   4   63.94   10.23
  -8  13  -5   -0.90    3.42
   8 -13  -5    2.53    5.90
  -8 -13  -5    2.16    5.56
  -8 -13   5   -0.41    3.51
   8 -13  -5   -0.79    6.65
   8 -13   5    9.22    8.33
  -8 -13   5    0.18    4.16
  -8  13  -6   48.01   15.89
   8 -13  -6   43.15   15.57
  -8 -13  -6   43.49   16.72
  -8 -13   6   39.05   16.28
   8 -13  -6   32.95   17.19
  -8 -13   6   29.27    6.14
  -8  13  -7    7.59    5.18
   8 -13  -7    4.44    3.85
  -8 -13  -7    5.19    3.20
  -8 -13   7    4.61    2.52
   8 -13  -7   23.38   14.50
  -8 -13   7   13.71    3.98
  -8  13  -8   34.56    7.29
   8 -13  -8   40.38    9.47
  -8 -13  -8   41.46   14.18
  -8 -13   8   12.48    5.54
   8 -13  -8   36.41   11.76
  -8 -13   8   27.68   16.85
  -8  13  -9   14.67    6.83
   8 -13  -9   12.99    5.53
  -8 -13  -9    9.69    5.62
   8 -13  -9   14.48    6.10
  -8 -13   9   10.92    4.64
  -8  13 -10   14.31    5.18
   8 -13 -10   15.82    5.02
  -8 -13 -10   12.98    7.27
   8 -13 -10   15.96    4.72
  -8 -13  10    7.55    5.05
  -8  13 -11   20.04    5.49
   8 -13 -11   16.46   11.40
  -8 -13 -11   22.09    7.52
   8 -13 -11    8.31    3.16
  -8 -13  11   20.27    9.45
  -8  14   0    7.40    3.85
  -8 -14   0   -4.61    4.90
   8 -14   0   -6.33    6.09
  -8 -14   0   10.32    4.96
  -8  14   1    9.36    5.08
  -8  14  -1   -0.69    3.80
  -8 -14  -1   11.04    6.12
  -8 -14   1    3.91    3.81
   8 -14  -1   11.56    8.82
   8 -14   1   -7.01    6.49
  -8 -14  -1    6.89    4.34
  -8 -14   1    4.09    3.61
  -8  14   2   18.67    6.79
  -8  14  -2   33.49    7.44
  -8 -14  -2   24.03   11.73
  -8 -14   2   20.77    8.57
   8 -14  -2   17.05    8.54
   8 -14   2   12.80    5.74
  -8 -14   2   33.82    6.20
  -8  14   3   50.24   13.47
  -8  14  -3   49.33   11.31
  -8 -14  -3   41.16   15.47
  -8 -14   3   33.33   11.77
   8 -14  -3   42.46   10.99
   8 -14   3   55.30   15.91
  -8 -14   3   45.05   11.01
  -8  14   4    6.90    5.55
  -8  14  -4   24.43   10.65
  -8 -14  -4    8.27    4.30
  -8 -14   4    7.00    4.49
   8 -14  -4   17.30   10.02
   8 -14   4   12.49    6.21
  -8 -14   4    7.70    3.53
  -8  14  -5   17.27    6.03
   8 -14  -5   19.64    4.02
  -8 -14  -5   12.23    4.85
  -8 -14   5   14.99    5.56
   8 -14  -5   10.36    5.75
   8 -14   5    7.89    7.30
  -8 -14   5   16.08    5.08
  -8  14  -6   10.93    4.94
   8 -14  -6   11.61    6.51
  -8 -14  -6   19.32    8.33
  -8 -14   6    4.73    3.78
   8 -14  -6   12.41    5.44
   8 -14   6   14.67    4.48
  -8 -14   6   13.77    5.33
  -8  14  -7    6.97    3.31
   8 -14  -7   10.54    8.30
  -8 -14  -7    5.70    5.19
  -8 -14   7    5.85    4.11
   8 -14  -7    6.95    3.85
   8 -14   7    1.02    3.47
  -8 -14   7    5.61    3.44
  -8  14  -8    3.45    3.09
   8 -14  -8   14.94    8.35
  -8 -14  -8   15.42    5.22
  -8 -14   8    5.60    3.68
   8 -14  -8    4.74    4.06
   8 -14   8   11.69    6.85
  -8 -14   8   -2.13    3.70
  -8  14  -9   18.13    7.13
   8 -14  -9   18.87   10.16
  -8 -14  -9   13.88    5.96
   8 -14  -9    7.76    3.78
   8 -14   9   18.56    8.23
  -8 -14   9   22.70    6.03
  -8  14 -10   27.18   11.03
   8 -14 -10    6.22    3.59
  -8 -14 -10   23.10   12.31
   8 -14 -10   16.50    6.31
  -8 -14  10   13.08    3.48
  -8  15   0   15.28    3.69
  -8 -15   0   27.00   12.27
   8 -15   0   35.10   11.94
  -8 -15   0   20.75    6.99
  -8  15   1   16.14    5.16
  -8  15  -1   12.53    5.70
  -8 -15  -1   23.37    7.60
  -8 -15   1   19.54   10.39
   8 -15  -1   35.18   10.29
   8 -15   1   15.03    6.14
  -8 -15  -1    7.93    2.45
  -8 -15   1   14.93   11.59
  -8  15   2   12.59    5.37
  -8  15  -2   14.40    5.83
  -8 -15  -2    6.06    4.44
  -8 -15   2   15.29    6.74
   8 -15  -2   15.05    6.41
   8 -15   2    8.48    3.52
  -8 -15   2   14.33    3.91
  -8  15   3    9.53    6.09
  -8  15  -3   10.17    4.17
  -8 -15  -3    6.41    3.35
  -8 -15   3    8.13    3.52
   8 -15  -3    8.29    3.15
   8 -15   3    6.46    3.78
  -8 -15   3    8.23    6.53
  -8  15   4    9.86    4.91
  -8  15  -4    5.27    2.37
  -8 -15   4   12.36    7.73
   8 -15  -4    3.86    3.96
   8 -15   4    9.71    5.03
  -8 -15   4    8.58    5.75
  -8  15  -5   19.45    6.31
   8 -15  -5   26.76    8.18
  -8 -15  -5   15.16    7.33
  -8 -15   5   10.34    5.95
   8 -15  -5   10.49    5.23
   8 -15   5   23.55    8.53
  -8 -15   5   20.16    6.49
  -8  15  -6   -1.80    3.15
   8 -15  -6   14.15    4.48
  -8 -15  -6    6.93    5.44
  -8 -15   6    5.30    3.60
   8 -15  -6    2.48    4.83
   8 -15   6    5.49    8.18
  -8 -15   6    5.39    4.32
  -8  15  -7   22.03    7.55
   8 -15  -7   14.80    6.37
  -8 -15  -7   14.39    5.79
  -8 -15   7   24.48    7.44
   8 -15  -7   11.98    4.77
   8 -15   7   33.89   14.43
  -8 -15   7   11.98    5.99
   8 -15  -8   11.90    5.94
  -8 -15  -8   11.74    5.33
   8 -15  -8    7.78    3.65
   8 -15   8   11.99    7.05
  -8 -15   8    3.47    3.29
  -8  16   0   -0.92    3.51
  -8 -16   0   13.79    6.82
   8 -16   0   16.68    9.74
  -8 -16   0    6.02    2.94
  -8  16   1   27.66    7.03
  -8  16  -1   37.54   15.48
  -8 -16  -1   39.70   12.60
  -8 -16   1   31.95   11.19
   8 -16  -1   29.06   16.93
   8 -16   1   23.22    7.16
  -8 -16   1   26.77   10.90
  -8  16   2    5.30    3.72
  -8  16  -2    2.36    2.26
  -8 -16  -2   15.90    5.65
  -8 -16   2   20.19    6.78
   8 -16  -2   -6.67    6.37
   8 -16   2   11.49    6.73
  -8 -16   2    5.30    3.75
  -8  16   3   35.44    8.87
  -8  16  -3   20.41    6.48
  -8 -16  -3   11.85   14.84
  -8 -16   3   22.88   12.16
   8 -16  -3   27.18    9.83
   8 -16   3   30.29   14.82
  -8 -16   3   12.02    6.12
  -8  16   4    6.44    6.24
  -8  16  -4    4.37    3.49
  -8 -16  -4    9.90    6.80
  -8 -16   4   13.84    7.43
   8 -16  -4    3.54    5.42
   8 -16   4   16.84    6.98
  -8 -16   4   19.72    5.39
  -9   0   0    2.24    1.36
  -9   0   0    5.28    2.60
  -9   0  -1   12.72    3.17
  -9   0   1    9.86    2.79
  -9   0  -1   10.74    4.32
  -9   0   1   15.67    4.12
  -9   0  -2   19.14    6.63
  -9   0   2   19.77    6.49
   9   0  -3   56.58   12.20
  -9   0   3   49.44    7.67
  -9   0  -3   36.10    8.98
  -9   0   3   35.83    9.41
   9   0  -4  333.49   22.56
  -9   0   4  329.20   21.08
  -9   0  -4  308.66   37.72
  -9   0   4  316.77   21.02
  -9   0  -5   29.40    5.53
   9   0  -5   33.49    7.81
  -9   0  -5   22.96    6.55
  -9   0   5   28.74    7.16
  -9   0  -6   20.93    5.72
   9   0  -6   17.05    5.37
  -9   0  -6   23.42    6.75
   9   0  -6    7.85    2.74
  -9   0   6   18.72    6.09
  -9   0  -7  201.70    8.31
   9   0  -7  248.61   14.63
  -9   0  -7  203.99   26.38
   9   0  -7  180.62   10.16
  -9   0   7  218.26    8.94
  -9   0  -8  242.46   14.90
   9   0  -8  280.40   26.85
  -9   0  -8  217.22   20.60
   9   0  -8  187.41    9.28
   9   0  -8  188.77    9.47
  -9   0   8  236.15   14.44
  -9   0  -9   98.89   19.46
   9   0  -9  113.53   27.87
  -9   0  -9   96.03   16.31
  -9   0   9  104.86   15.57
  -9   0 -10   10.08    4.04
   9   0 -10   20.57    5.30
  -9   0 -10    9.65    5.19
  -9   0  10   17.55    5.11
  -9   0 -11   16.24    4.03
   9   0 -11   18.19    3.76
  -9   0 -11   20.78    5.81
  -9   0  11   21.90    7.87
  -9   0 -12   10.19    3.78
   9   0 -12    5.54    2.88
  -9   0 -12    5.12    2.10
  -9   0  12    3.94    2.45
  -9   0 -13    3.12    2.32
   9   0 -13    5.53    3.41
  -9   0 -13    5.42    5.54
  -9   0  13    6.06    2.46
  -9   0 -14   -0.85    3.83
   9   0 -14   -1.52    5.34
  -9   0 -14    7.00    5.10
  -9   0  14    4.12    2.33
  -9   0 -15    6.34    3.47
   9   0 -15   11.60    6.02
  -9   0 -15   12.33    5.25
  -9   0  15   11.98    6.84
  -9   0 -16   26.47   10.21
   9   0 -16   29.63   12.50
  -9   0 -16   24.08    8.87
  -9   0  16   34.96   11.81
  -9   0 -17   12.29    4.49
   9   0 -17   10.08    4.04
  -9   0 -17    5.14    2.19
  -9   0  17   12.19    5.19
  -9   0 -18   -0.44    4.08
   9   0 -18    5.41    3.08
  -9   0 -18    4.36    3.67
  -9   0  18    3.40    2.75
  -9  -1   0  140.12    9.17
  -9   1   0  148.02    6.43
  -9   1   0  144.91   23.26
  -9  -1   0  149.84   16.65
  -9  -1   0  135.46    6.62
  -9  -1   1  212.75   14.81
  -9   1   1  173.89   12.09
  -9  -1  -1  186.14   12.36
  -9   1  -1  198.76   13.49
  -9   1   1  176.09   26.03
  -9   1  -1  205.17   28.59
  -9  -1   1  194.39   13.41
  -9  -1  -1  162.36   11.96
  -9  -1   1  176.41   12.73
  -9   1   2   28.27    6.37
  -9  -1  -2   32.87    7.46
  -9   1  -2   28.44    7.25
   9   1  -2   28.33    5.87
  -9   1   2   28.90    7.34
  -9   1  -2   43.47    8.75
  -9  -1  -2   25.85    7.66
  -9   1   2   33.63    7.89
  -9  -1   2   23.76    6.64
  -9   1  -3   51.42    9.88
  -9  -1  -3   38.17   11.02
   9   1  -3   49.96    6.57
   9  -1  -3   40.20    9.71
  -9   1  -3   37.40    6.70
  -9  -1   3   44.06    7.40
  -9  -1  -3   50.75   11.07
  -9  -1   3   50.23   16.66
  -9   1  -4  141.31   19.64
  -9  -1  -4  137.14   20.35
   9   1  -4  133.55   11.16
   9  -1  -4  141.28   15.63
  -9  -1   4  116.96    4.66
  -9   1  -4  117.88   23.78
  -9  -1  -4  118.49   24.10
  -9  -1   4  113.23    8.32
  -9   1  -5  158.49   12.00
   9   1  -5  134.02   22.58
   9  -1  -5  153.12   23.02
  -9  -1   5  144.31   11.31
  -9   1  -5  145.54   20.43
  -9  -1   5  160.83   12.19
  -9   1  -6   96.42   17.44
   9   1  -6   88.92   21.59
   9  -1  -6  104.45   14.13
  -9   1  -6   93.13   13.68
  -9  -1  -6   69.73   14.86
   9  -1  -6   66.25    5.80
   9   1  -6   48.90   12.71
  -9   1   6   93.73   15.86
  -9  -1   6   84.56   20.10
  -9   1  -7   68.90   15.42
  -9  -1  -7   67.13   11.37
   9   1  -7   86.55   13.92
   9  -1  -7   69.07   12.72
  -9   1  -7   61.62    8.91
  -9  -1  -7   65.93   13.69
   9  -1  -7   40.97    5.08
   9   1  -7   48.59    4.33
  -9   1   7   73.36   12.11
  -9  -1   7   41.85   12.43
  -9   1  -8   21.31    8.12
  -9  -1  -8   26.69    5.60
   9   1  -8   30.32   10.81
   9  -1  -8   43.45    5.01
  -9   1  -8   33.69    6.75
  -9  -1  -8   30.66    7.40
   9  -1  -8   15.04    5.48
  -9   1   8   22.50    7.63
  -9  -1   8   22.83    6.77
  -9   1  -9   18.72    4.74
  -9  -1  -9   18.57    3.80
   9   1  -9   23.83    8.21
   9  -1  -9   19.75    6.37
  -9   1  -9   16.74    6.15
  -9  -1  -9   21.11    5.44
  -9   1   9   28.88    6.84
  -9  -1   9   19.15    4.81
  -9  -1 -10   10.76    2.93
   9   1 -10   11.72    4.49
   9  -1 -10    6.58    3.81
  -9   1 -10    9.33    5.64
  -9  -1 -10    4.07    3.00
  -9  -1  10    5.56    2.55
  -9   1  10    4.29    2.86
  -9   1 -11  118.70   24.90
  -9  -1 -11  110.93   23.78
   9   1 -11  121.40   20.74
   9  -1 -11  130.39   23.30
  -9   1 -11  104.68   15.26
  -9  -1 -11  114.44   17.56
  -9  -1  11  112.57   24.35
  -9   1  11  113.54   25.64
  -9   1 -12   68.72   15.59
  -9  -1 -12   55.24   11.30
   9   1 -12   41.51   10.57
   9  -1 -12   47.42    8.81
  -9   1 -12   52.25   13.79
  -9  -1 -12   39.71    9.64
  -9  -1  12   63.67   15.45
  -9   1  12   44.02    8.61
  -9   1 -13   39.63   11.50
  -9  -1 -13   37.74    8.04
   9   1 -13   32.90    7.90
   9  -1 -13   53.84   11.60
  -9   1 -13   34.33    8.63
  -9  -1 -13   26.36    5.74
  -9  -1  13   40.59   10.71
  -9   1  13   30.04    7.91
  -9   1 -14   14.88    4.55
  -9  -1 -14    4.08    3.34
   9   1 -14    3.69    4.63
   9  -1 -14   10.76    4.14
  -9   1 -14    5.11    4.07
  -9  -1 -14    5.73    3.61
  -9  -1  14    3.96    4.13
  -9   1  14    3.50    3.06
  -9   1 -15   18.48    5.70
  -9  -1 -15    2.16    3.72
   9   1 -15    9.32    5.16
   9  -1 -15    6.29    3.92
  -9   1 -15    9.50    4.04
  -9  -1 -15    5.65    3.11
  -9  -1  15    4.22    2.69
  -9   1  15    1.20    3.30
  -9   1 -16   27.30    6.91
  -9  -1 -16   21.82    5.54
   9   1 -16   14.91    6.11
   9  -1 -16    9.31    4.65
  -9   1 -16   15.62    4.41
  -9  -1 -16   22.10    4.86
  -9  -1  16   13.87    3.74
  -9   1  16   15.01    6.06
  -9   1 -17   19.51    6.73
  -9  -1 -17   26.25    7.53
   9   1 -17   20.94    7.69
   9  -1 -17   15.78    8.17
  -9   1 -17    9.28    4.72
  -9  -1 -17   15.08    7.11
  -9  -1  17   21.44    6.70
  -9   1  17   17.61    6.58
  -9  -2   0    0.99    1.19
  -9   2   0    2.12    2.17
   9   2   0    2.67    0.69
  -9   2   0    2.27    2.96
  -9  -2   0    5.73    3.70
  -9  -2   0    5.86    2.63
  -9   2   1  115.54    6.12
  -9  -2  -1   96.16    3.87
  -9   2  -1  122.24   24.28
   9   2  -1   97.33    4.28
   9   2   1  106.47    4.56
   9   2  -1  107.41    5.25
  -9   2  -1  116.23   14.27
  -9  -2   1  125.99   20.10
  -9  -2  -1  120.70   30.39
  -9  -2   1  124.15   22.06
  -9   2   2  146.11   20.62
  -9  -2  -2  157.13   12.45
  -9   2  -2  158.18   15.31
   9   2   2  163.11   10.94
   9   2  -2  156.53   16.28
  -9   2  -2  177.63   29.52
  -9  -2  -2  170.67   26.07
  -9   2   2  138.13    9.97
  -9  -2   2  176.71   13.11
  -9   2   3  133.22   21.95
  -9   2  -3  151.54   24.89
  -9  -2  -3  122.42   21.35
   9   2  -3  146.94   17.16
  -9   2  -3  117.06   16.99
  -9  -2   3  149.21   19.54
  -9  -2  -3  113.68   16.84
  -9   2   3  117.90   20.68
  -9  -2   3  133.90   23.43
  -9   2  -4   55.35   12.28
  -9  -2  -4   49.26   11.21
   9   2  -4   57.29   12.75
   9  -2  -4   49.41    8.27
  -9   2  -4   52.61    7.42
  -9  -2   4   51.04   11.79
  -9  -2  -4   45.74    8.53
  -9   2   4   50.56    6.35
  -9  -2   4   34.43   10.33
  -9   2  -5   36.18    9.08
  -9  -2  -5   31.86    8.87
   9   2  -5   28.62    8.57
   9  -2  -5   29.39    8.19
  -9   2  -5   18.25    6.42
  -9  -2   5   22.84    6.43
  -9  -2  -5   21.75    6.36
  -9   2   5   27.76    8.03
  -9   2  -6   12.25    4.08
  -9  -2  -6    6.96    2.53
   9   2  -6    4.10    1.95
   9  -2  -6    6.04    3.60
  -9   2  -6    4.16    3.52
  -9  -2   6    3.93    1.17
  -9  -2  -6    5.41    3.30
   9   2  -6    5.25    1.70
  -9   2   6    3.02    1.95
  -9   2  -7    9.10    3.89
   9   2  -7   16.78    6.59
   9  -2  -7    7.86    4.77
  -9   2  -7   16.46    6.46
  -9  -2  -7    9.37    4.11
   9  -2  -7    5.53    1.80
   9   2  -7    6.43    2.36
   9  -2  -7   20.91    5.50
  -9  -2   7    8.40    2.87
  -9   2  -8    6.65    4.04
   9   2  -8    4.05    3.56
   9  -2  -8    6.93    3.94
  -9   2  -8    8.44    3.96
  -9  -2  -8    2.88    2.30
   9  -2  -8    0.78    1.25
  -9  -2   8    7.50    4.40
  -9   2  -9   41.05    7.05
  -9  -2  -9   48.11   10.12
   9   2  -9   51.66   12.31
   9  -2  -9   47.47    9.78
  -9   2  -9   48.91    8.49
  -9  -2  -9   51.08   13.53
  -9  -2   9   37.74   11.36
  -9   2 -10   46.24   10.22
  -9  -2 -10   68.43   12.13
   9   2 -10   57.34   11.97
   9  -2 -10   63.45   10.99
  -9   2 -10   57.50   14.50
  -9  -2 -10   54.42   14.03
  -9  -2  10   67.79   14.15
  -9   2 -11    7.57    4.28
  -9  -2 -11    2.16    2.61
   9   2 -11    2.51    3.25
   9  -2 -11   19.88    6.12
  -9   2 -11   16.69    4.27
  -9  -2 -11    9.46    4.64
  -9  -2  11    7.95    3.44
  -9   2  11    5.80    2.61
  -9   2 -12   26.57    7.33
  -9  -2 -12   31.39    6.06
   9   2 -12   31.55    8.21
   9  -2 -12   23.72    7.58
  -9   2 -12   27.85    6.86
  -9  -2 -12    9.48    4.18
  -9  -2  12   27.34    6.97
  -9   2  12   20.04    7.79
  -9  -2 -13   13.49    4.36
   9   2 -13    8.11    5.18
   9  -2 -13   16.56    6.34
  -9   2 -13    9.50    3.61
  -9  -2 -13   17.33    5.92
  -9  -2  13    8.74    4.27
  -9   2  13    9.79    4.78
  -9   2 -14   47.10   11.41
  -9  -2 -14   51.84   13.86
   9   2 -14   55.35   14.00
   9  -2 -14   54.73   11.19
  -9   2 -14   42.37    7.83
  -9  -2 -14   67.03   12.39
  -9  -2  14   52.04   18.32
  -9   2  14   54.71   12.01
  -9   2 -15   45.37   15.62
  -9  -2 -15   46.99   16.56
   9   2 -15   52.62   12.33
   9  -2 -15   54.72   21.20
  -9   2 -15   62.57   12.65
  -9  -2 -15   75.98   11.37
  -9  -2  15   44.82   11.54
  -9   2  15   44.98   15.11
  -9   2 -16   18.27    8.18
  -9  -2 -16    7.12    3.47
   9   2 -16   24.14    6.70
   9  -2 -16   13.80    4.99
  -9  -2 -16   13.94    5.20
  -9  -2  16   10.95    3.93
  -9   2  16   11.64    5.29
  -9   2 -17    6.14    6.06
  -9  -2 -17    8.34    4.56
   9   2 -17    9.50    7.67
   9  -2 -17    3.80    5.33
  -9   2 -17   11.49    5.30
  -9  -2 -17    8.42    5.54
  -9  -2  17    7.45    3.75
  -9   2  17    5.10    3.68
  -9   3   0    7.41    2.81
   9   3   0    5.00    1.03
   9   3   0    4.55    1.24
  -9  -3   0    4.49    2.55
  -9  -3   0    6.13    4.08
  -9  -3  -1  238.24   15.08
  -9   3   1  233.82   16.30
  -9   3  -1  227.83   18.61
   9   3  -1  238.60   15.07
   9   3   1  212.76   17.92
   9   3  -1  238.31   15.15
  -9  -3   1  214.14   18.50
  -9  -3  -1  239.75   16.79
  -9  -3   1  240.95   17.16
  -9   3   2  228.29   16.15
  -9  -3  -2  226.24   14.74
  -9   3  -2  200.21   14.49
   9   3  -2  193.39   17.68
   9   3   2  177.10   11.85
   9   3  -2  209.32   13.49
  -9   3  -2  162.93   13.41
  -9  -3  -2  209.09   15.14
  -9  -3   2  200.93   15.01
  -9   3   3  159.66   12.91
  -9  -3  -3  147.35    9.94
   9   3  -3  128.48   11.41
  -9   3  -3  190.13   30.00
   9   3   3  135.02   15.37
   9   3  -3  132.03    9.31
  -9   3  -3  160.39   12.92
  -9  -3   3  155.80   21.91
  -9  -3  -3  154.07   24.76
  -9   3   3  135.30   10.12
  -9  -3   3  160.04   30.17
  -9   3  -4   16.02    3.21
  -9  -3  -4   13.03    3.12
   9   3  -4   12.92    2.86
   9  -3  -4   13.66    4.90
  -9   3  -4    7.61    3.30
  -9  -3   4   12.70    3.70
  -9  -3  -4   19.17    6.09
  -9   3   4   19.29    4.11
  -9  -3   4   14.37    4.17
  -9   3  -5   55.95   10.43
  -9  -3  -5   59.05    8.11
   9   3  -5   42.23    7.61
   9  -3  -5   46.06    7.66
  -9   3  -5   29.39    7.78
  -9  -3   5   45.89   10.50
  -9  -3  -5   60.36   12.68
  -9   3   5   39.17    7.95
  -9  -3   5   46.28    9.56
  -9   3  -6  109.27   16.48
  -9  -3  -6  101.25   27.07
   9   3  -6  103.82   12.83
   9  -3  -6  132.46   20.87
  -9   3  -6  114.87   23.71
  -9  -3   6   98.06    7.44
  -9  -3  -6   96.50   13.24
  -9   3   6  108.11   14.14
  -9  -3   6  103.59   20.08
  -9   3  -7   53.28   13.07
  -9  -3  -7   38.24    9.44
   9   3  -7   50.11   11.45
   9  -3  -7   47.16    8.31
  -9   3  -7   50.53   10.10
  -9  -3   7   45.53    3.45
  -9  -3  -7   32.51    8.54
   9  -3  -7   31.22    8.30
  -9   3   7   47.54    8.07
  -9  -3   7   65.08   12.88
  -9   3  -8   45.52    9.84
  -9  -3  -8   33.52    6.87
   9   3  -8   30.13   10.45
   9  -3  -8   43.70   14.92
  -9   3  -8   40.20    8.77
  -9  -3  -8   33.90    4.92
   9  -3  -8   24.84    5.99
  -9   3   8   30.69    6.75
  -9   3  -9   19.81    5.72
   9   3  -9   15.75    4.98
   9  -3  -9   21.42    7.14
  -9   3  -9   16.70    4.64
  -9  -3  -9   16.33    5.23
   9  -3  -9    7.30    2.00
  -9   3   9   16.73    4.00
  -9  -3   9   11.88    6.92
  -9   3 -10  128.88   25.18
  -9  -3 -10  103.69   23.80
   9   3 -10  107.80   15.67
   9  -3 -10  126.96   14.20
  -9   3 -10  103.22   17.10
  -9  -3 -10  108.34   19.05
  -9  -3  10  127.61   24.26
  -9   3  10  105.09    5.71
  -9   3 -11   39.39    7.59
  -9  -3 -11   29.54    6.28
   9   3 -11   31.19   12.22
   9  -3 -11   40.76    9.76
  -9   3 -11   37.18    8.65
  -9  -3 -11   32.77    7.81
  -9  -3  11   30.67    9.46
  -9   3  11   19.74    8.70
  -9   3 -12    5.96    3.93
  -9  -3 -12    4.35    3.29
   9   3 -12    6.63    4.26
   9  -3 -12    9.37    4.79
  -9   3 -12    7.64    3.12
  -9  -3 -12    1.14    2.30
  -9  -3  12    4.74    2.65
  -9   3 -13   32.76    6.00
  -9  -3 -13   33.67    5.90
   9   3 -13   33.16    7.92
   9  -3 -13   31.90   11.78
  -9   3 -13   30.62   10.46
  -9  -3 -13   22.85    9.55
  -9  -3  13   36.66   14.58
  -9   3 -14   46.14    9.68
  -9  -3 -14   41.20    9.13
   9   3 -14   47.62   15.03
   9  -3 -14   38.21   11.16
  -9   3 -14   32.04    5.61
  -9  -3 -14   37.90    9.06
  -9  -3  14   32.89   11.28
  -9   3  14   53.04   13.11
  -9   3 -15   37.51   11.78
  -9  -3 -15   18.38    7.37
   9   3 -15   17.25    7.68
   9  -3 -15   24.32    7.10
  -9   3 -15   22.52    5.37
  -9  -3 -15   24.79    6.36
  -9  -3  15   10.98    4.90
  -9   3  15   26.57    6.13
  -9   3 -16   10.39    4.61
  -9  -3 -16   10.24    3.99
   9   3 -16    6.93    3.56
   9  -3 -16   -1.77    5.05
  -9   3 -16   10.10    4.05
  -9  -3 -16    5.08    3.05
  -9  -3  16    5.68    2.30
  -9   3  16    8.25    3.54
  -9   3 -17    7.24    4.07
  -9  -3 -17    8.46    2.95
   9  -3 -17   10.26    5.71
  -9  -3 -17   11.90    5.52
  -9  -3  17    4.32    5.21
  -9   3  17    7.82    3.01
  -9   4   0   85.39   16.55
   9   4   0   82.11    3.81
   9   4   0   76.06    3.10
  -9  -4   0   87.09   15.17
  -9  -4   0   84.16   15.03
  -9   4   1    7.22    4.67
  -9   4  -1    9.43    2.53
   9   4  -1    7.67    1.76
   9   4   1    5.09    1.18
   9   4  -1    7.12    1.44
   9   4   1    9.03    1.62
  -9  -4  -1   12.79    4.48
  -9  -4   1   12.92    3.70
  -9  -4  -1   11.06    5.40
  -9  -4   1   13.72    4.16
  -9   4   2   15.09    4.32
  -9  -4  -2   14.78    3.02
  -9   4  -2   18.67    4.85
   9   4  -2    6.07    1.73
   9   4   2    8.31    2.00
   9   4  -2    8.53    1.94
  -9  -4  -2   19.82    5.04
  -9  -4   2   12.37    2.81
  -9  -4   2   10.76    4.05
  -9   4  -3  173.27   18.23
   9   4  -3  131.33    9.44
   9   4   3  136.63    6.36
   9   4  -3  137.34    4.05
  -9  -4  -3  162.42   24.67
  -9  -4   3  150.86   26.93
   9   4  -4    9.12    3.53
  -9   4  -4   14.25    5.00
  -9  -4  -4   18.40    5.19
   9   4  -4   12.56    4.00
   9   4   4    7.95    2.82
  -9  -4   4   13.53    3.78
  -9  -4  -4   14.32    5.11
  -9   4   4   11.94    3.19
  -9  -4   4   21.40    6.70
  -9   4  -5  152.20   16.50
  -9  -4  -5  169.33    5.36
   9   4  -5  131.87    8.70
   9  -4  -5  167.10   22.01
  -9  -4   5  148.55   10.22
  -9  -4  -5  162.69   27.72
  -9   4   5  138.97    6.92
  -9  -4   5  166.47   27.72
  -9   4  -6  121.47   22.82
  -9  -4  -6  118.37    7.73
   9   4  -6  108.95   15.45
   9  -4  -6  143.67   22.57
  -9  -4   6  117.94    8.72
  -9  -4  -6  127.93   22.61
   9  -4  -6  127.99   14.27
  -9   4   6  111.54   13.43
  -9  -4   6  155.91   29.99
  -9   4  -7  126.92   25.45
  -9  -4  -7  118.84   15.58
   9   4  -7   99.14   19.55
   9  -4  -7  101.52   23.50
  -9  -4   7  108.73    6.76
  -9  -4  -7  123.40   22.89
   9  -4  -7   97.31   16.87
  -9   4   7  105.58    6.93
  -9  -4   7  111.28   22.99
  -9   4  -8   47.47    9.84
  -9  -4  -8   41.34    9.26
   9   4  -8   33.96    6.64
   9  -4  -8   40.10   11.10
  -9   4  -8   37.59    5.34
  -9  -4   8   33.65    5.39
  -9  -4  -8   28.98    6.24
   9  -4  -8   28.19    7.93
  -9   4   8   30.60    8.03
  -9  -4   8   45.36    8.29
  -9   4  -9   50.27   15.61
  -9  -4  -9   68.92   17.52
   9   4  -9   57.20   13.56
   9  -4  -9   66.31   11.58
  -9   4  -9   62.88   12.30
  -9  -4  -9   66.34   15.86
   9  -4  -9   40.66    7.33
  -9   4   9   51.28   14.12
  -9  -4   9   77.22   13.12
  -9   4 -10   31.23    6.19
   9   4 -10   21.40    4.78
   9  -4 -10    8.33    3.58
  -9   4 -10   19.80    6.71
  -9  -4 -10   23.08    4.90
  -9   4  10   27.49    6.52
  -9  -4  10   12.78    5.50
  -9   4 -11   29.16    7.48
  -9  -4 -11   35.57    9.06
   9   4 -11   19.16    4.02
   9  -4 -11   34.91    6.64
  -9   4 -11   26.09    7.59
  -9  -4 -11   34.20    6.05
  -9  -4  11   35.31   10.14
  -9   4  11   35.05   10.25
  -9   4 -12   11.49    5.08
  -9  -4 -12    7.93    3.00
   9   4 -12    9.71    4.57
   9  -4 -12    9.51    4.07
  -9  -4 -12   14.61    7.36
  -9  -4  12   10.07    3.98
  -9   4  12    8.35    4.90
  -9   4 -13    7.71    3.61
  -9  -4 -13    8.17    3.51
   9   4 -13    8.69    4.09
   9  -4 -13    5.20    4.57
  -9  -4 -13   14.10    4.79
  -9  -4  13    8.46    3.61
  -9   4  13    0.93    2.24
  -9   4 -14    4.12    2.61
  -9  -4 -14    6.11    2.94
   9   4 -14    2.89    2.98
   9  -4 -14    4.56    5.69
  -9  -4 -14    9.59    3.32
  -9  -4  14   11.41    4.34
  -9   4  14    7.43    3.93
  -9   4 -15   10.52    5.69
  -9  -4 -15   12.44    5.47
   9   4 -15    7.21    4.45
   9  -4 -15    6.15    4.86
  -9  -4 -15    6.00    4.03
  -9  -4  15    0.94    2.20
  -9   4 -16   10.05    5.20
  -9  -4 -16    0.42    3.93
   9   4 -16    6.44    3.53
   9  -4 -16    1.23    3.36
  -9  -4 -16   15.81    6.14
  -9  -4  16   10.51    4.17
  -9   4 -17   10.57    3.98
  -9  -4 -17   -0.50    4.16
   9   4 -17   10.90    4.37
   9  -4 -17    6.98    4.95
  -9  -4 -17    8.13    4.43
  -9  -4  17    3.06    2.08
  -9   5   0  150.90   27.69
  -9  -5   0  141.56   20.48
  -9  -5   0  136.35   28.17
  -9   5   1   28.44    7.26
  -9   5  -1   43.01    9.69
  -9  -5   1   26.06    7.45
  -9  -5  -1   36.41    8.03
  -9  -5   1   24.68    6.79
   9  -5  -1   19.36    5.68
  -9   5   2   98.15   23.26
  -9   5  -2  106.66   15.52
  -9  -5  -2   82.05   19.14
  -9  -5   2   94.26   18.73
  -9  -5   2   81.37   17.20
   9  -5  -2   70.22    9.31
  -9   5   3   94.72   13.79
  -9  -5  -3   91.28    2.79
  -9   5  -3  101.05   28.45
   9   5  -3   88.11    2.92
   9   5  -3   81.36    4.81
   9   5   3   83.61    4.09
  -9  -5  -3   79.31   20.65
  -9  -5   3   82.88   17.14
   9  -5  -3   79.07    7.83
  -9   5   4   42.02    8.51
   9   5  -4   18.83    6.01
  -9   5  -4   31.13    9.31
  -9  -5  -4   29.89    7.80
   9   5  -4   24.90    5.69
   9   5   4   18.56    5.04
  -9  -5  -4   26.97    8.59
  -9  -5   4   28.16    6.42
  -9  -5   4   31.98    9.48
  -9   5  -5   25.54    5.79
  -9  -5  -5   27.17    5.72
   9   5  -5   18.48    6.83
   9   5   5   12.68    4.02
   9  -5  -5   22.09    9.24
  -9  -5  -5   20.77    6.97
  -9  -5   5   19.81    7.00
  -9   5   5   17.07    5.25
  -9  -5   5   25.75    6.05
  -9   5  -6   52.87   12.41
  -9  -5  -6   52.34    5.76
   9   5  -6   45.37   10.52
   9  -5  -6   51.68   16.84
  -9  -5  -6   42.54   10.66
  -9  -5   6   45.66    9.25
   9  -5  -6   51.78   10.97
  -9   5   6   49.34    6.09
  -9  -5   6   66.47   13.30
  -9   5  -7   21.08    6.84
  -9  -5  -7   20.34    6.45
   9   5  -7   15.17    3.61
   9  -5  -7    7.20    3.32
  -9  -5   7   11.09    5.01
  -9  -5  -7   23.07    4.21
   9  -5  -7   19.64    4.39
  -9   5   7   17.85    5.46
  -9  -5   7   20.76    4.83
  -9   5  -8    9.75    5.31
  -9  -5  -8    8.03    2.66
   9   5  -8   16.96    3.91
   9  -5  -8    4.29    4.18
  -9  -5   8    9.64    1.85
  -9  -5  -8   12.37    3.93
   9  -5  -8    6.59    2.73
  -9   5   8   11.79    4.00
  -9  -5   8   17.40    3.57
  -9   5  -9  118.59   19.46
  -9  -5  -9  131.03   18.05
   9   5  -9  100.15   12.79
   9  -5  -9  111.38   26.07
  -9  -5  -9  116.70   31.06
   9  -5  -9   93.78   15.52
  -9   5   9  120.87   12.59
  -9  -5   9  135.63   24.40
  -9   5 -10   26.03   12.21
  -9  -5 -10   21.74    5.59
   9   5 -10   43.05    8.53
   9  -5 -10   32.69    9.61
  -9  -5 -10   42.31   10.36
  -9   5  10   28.27    7.31
  -9  -5  10   31.61    8.46
  -9   5 -11    7.99    3.70
   9   5 -11    7.09    3.53
   9  -5 -11    7.25    5.19
  -9  -5 -11    1.00    2.34
  -9  -5  11    5.59    3.35
  -9   5  11    4.03    2.00
  -9   5 -12   52.92   14.52
  -9  -5 -12   24.72    7.68
   9   5 -12   40.16   14.72
   9  -5 -12   63.58   16.74
  -9  -5 -12   52.24   12.89
  -9  -5  12   47.56   15.77
  -9   5  12   46.37   13.25
  -9   5 -13    7.84    4.65
  -9  -5 -13   16.41    5.12
   9   5 -13    4.50    3.47
   9  -5 -13   12.98    7.48
  -9  -5 -13   18.65    5.45
  -9  -5  13   13.01    5.48
  -9   5  13    8.31    3.98
  -9   5 -14   25.02    6.02
  -9  -5 -14   16.01    3.85
   9   5 -14   10.24    6.27
   9  -5 -14   26.52    6.78
  -9  -5 -14   18.50    4.73
  -9  -5  14   28.74    7.77
  -9   5 -15   18.21    7.12
  -9  -5 -15   15.90    9.87
   9   5 -15   12.00    5.42
   9  -5 -15   12.76    5.11
  -9  -5 -15   17.85    8.85
  -9  -5  15   22.29    9.39
  -9   5 -16   12.72    4.64
  -9  -5 -16    2.99    3.12
   9   5 -16    8.44    4.00
   9  -5 -16   10.31    7.35
  -9  -5 -16   16.65    4.59
  -9  -5  16    6.25    4.02
  -9   5 -17    6.12    3.54
  -9  -5 -17    0.79    2.19
   9   5 -17   -0.41    3.63
   9  -5 -17    6.71    6.00
  -9  -5 -17    8.74    4.13
  -9  -5  17   10.50    6.08
  -9   6   0  375.09   80.65
  -9  -6   0  347.48   15.04
  -9  -6   0  346.48   11.55
   9  -6   0  382.31   80.55
  -9   6   1   49.35   12.59
  -9   6  -1   48.84    8.36
  -9  -6   1   54.15    8.89
  -9  -6  -1   58.25   13.74
  -9  -6   1   45.60    7.99
   9  -6  -1   30.57    8.98
  -9   6   2   77.17   16.36
  -9   6  -2   68.65   16.31
  -9  -6  -2   63.36   11.50
  -9  -6   2   55.23   13.30
  -9  -6   2   54.98   17.40
   9  -6  -2   35.30    6.63
  -9   6   3  181.66   25.94
  -9   6  -3  209.58   33.40
  -9  -6  -3  193.67   32.25
  -9  -6   3  207.96   12.44
  -9  -6   3  196.28   33.36
  -9   6   4   99.44   18.13
   9   6  -4   85.12    6.13
  -9  -6  -4  106.19    5.94
  -9   6  -4  102.63   16.38
   9   6  -4   90.20    6.32
  -9  -6  -4   97.27   19.97
  -9  -6   4  111.13   24.90
  -9   6  -5   36.38    7.83
  -9  -6  -5   29.09    7.28
   9   6  -5   23.46    5.37
   9  -6  -5   28.45    6.57
  -9  -6  -5   28.17    7.04
  -9  -6   5   25.87    4.77
   9  -6  -5   31.42    6.42
  -9  -6   5   41.41    8.48
  -9   6  -6   21.86    5.56
  -9  -6  -6   23.89    5.01
   9   6  -6   18.20    6.20
   9  -6  -6   25.05    6.33
  -9  -6  -6   29.08    8.28
  -9  -6   6   23.23    5.85
   9  -6  -6   24.16    4.76
  -9  -6   6   27.61    9.71
  -9   6  -7   40.28    9.77
  -9  -6  -7   19.86    5.13
   9   6  -7   28.22    6.26
   9  -6  -7   32.88    9.60
  -9  -6  -7   23.01    6.14
  -9  -6   7   21.81    5.99
   9  -6  -7   31.81    4.85
  -9   6   7   20.57    6.31
  -9  -6   7   38.99    9.38
  -9   6  -8   59.16   14.56
  -9  -6  -8   52.76   11.03
   9   6  -8   57.05   12.37
   9  -6  -8   70.80   14.14
  -9  -6  -8   61.82   11.45
  -9  -6   8   61.99    7.13
   9  -6  -8   44.09   14.21
  -9   6   8   49.82   12.46
  -9  -6   8   98.48   21.07
  -9   6  -9   91.66   22.39
  -9  -6  -9   99.32   16.20
   9   6  -9   96.25   14.12
   9  -6  -9   97.77   15.01
  -9  -6  -9  104.24   19.40
   9  -6  -9   60.07   14.31
  -9   6   9   89.79   10.13
  -9  -6   9   90.91   10.16
  -9   6 -10    8.55    3.78
  -9  -6 -10    2.61    1.87
   9   6 -10    5.43    3.00
   9  -6 -10    7.17    5.59
  -9  -6 -10    1.70    2.15
   9  -6 -10    3.76    1.55
  -9  -6  10    9.47    4.33
  -9   6 -11   66.99   15.32
  -9  -6 -11   40.17    7.09
   9   6 -11   38.57   10.41
   9  -6 -11   87.08   18.91
  -9  -6 -11   56.17   17.49
  -9  -6  11   66.44   12.16
  -9   6 -12   63.12   11.52
   9   6 -12   51.20   10.81
   9  -6 -12   86.63   22.87
  -9  -6 -12   56.62   10.68
  -9  -6  12   64.28   13.19
  -9   6 -13   38.07   13.66
   9   6 -13   25.99    6.27
   9  -6 -13   32.89   11.47
  -9  -6 -13   36.81   10.30
  -9  -6  13   42.44    8.83
  -9   6 -14    6.45    3.46
  -9  -6 -14    4.23    3.34
   9   6 -14    4.07    3.08
   9  -6 -14    9.25    7.59
  -9  -6 -14    4.66    2.95
  -9  -6  14    0.67    5.02
  -9   6 -15   19.58    9.58
  -9  -6 -15   21.77    7.82
   9   6 -15   10.61    5.67
   9  -6 -15   34.89    8.74
  -9  -6 -15   21.87    5.14
  -9  -6  15   21.03    9.61
  -9  -6 -16    8.52    3.56
   9  -6 -16    8.48    6.47
  -9  -6 -16   17.80    5.05
  -9  -6  16   12.87    6.68
  -9   7   0  148.28   23.88
  -9  -7   0  141.64   26.38
  -9  -7   0  133.15   13.83
  -9   7   1   42.02    9.83
  -9   7  -1   41.71    9.41
  -9  -7   1   48.24   11.35
  -9  -7  -1   47.21   10.31
  -9  -7   1   33.68    6.37
   9  -7  -1   24.68    3.00
  -9   7   2   87.97   18.20
  -9   7  -2   80.09   16.38
  -9  -7  -2   89.26   19.16
  -9  -7   2   89.84   21.57
  -9  -7   2   94.39   16.57
  -9   7   3   32.58    7.89
  -9   7  -3   30.74   11.19
  -9  -7  -3   64.13   10.63
  -9  -7   3   41.64    6.39
  -9  -7   3   55.24   10.85
  -9   7   4  124.43   21.26
  -9   7  -4  128.69   24.42
  -9  -7  -4  117.61   17.67
   9  -7  -4  139.60   16.59
  -9  -7   4  113.28   29.76
  -9   7  -5   22.57    4.25
  -9  -7  -5   11.17    3.16
   9   7  -5   11.35    2.66
   9  -7  -5   32.01    7.04
  -9  -7  -5   13.53    4.61
  -9  -7   5   22.20    5.80
   9  -7  -5   21.95    5.49
  -9  -7   5   23.23    7.21
  -9   7  -6   42.18    8.79
  -9  -7  -6   41.12    8.87
   9   7  -6   65.97    4.95
   9  -7  -6   54.39    7.75
  -9  -7  -6   50.25   15.68
  -9  -7   6   41.49    7.18
   9  -7  -6   42.57   10.11
  -9  -7   6   56.20   11.37
  -9   7  -7   25.04    7.78
  -9  -7  -7   20.00    6.18
   9   7  -7   15.91    5.59
   9  -7  -7   38.76    8.96
  -9  -7  -7   21.14    4.91
  -9  -7   7   30.95    5.68
   9  -7  -7   15.39    5.49
  -9  -7   7   20.98    5.81
  -9   7  -8   20.65    4.08
  -9  -7  -8   16.31    6.30
   9   7  -8   18.81    7.24
   9  -7  -8   23.01    6.26
  -9  -7  -8   26.41    5.35
  -9  -7   8   23.82    7.53
   9  -7  -8   16.56    4.86
  -9  -7   8   13.28    4.78
  -9   7  -9   28.84    8.38
  -9  -7  -9   23.00   11.13
   9   7  -9   23.42    7.41
   9  -7  -9   23.73    6.81
  -9  -7  -9   34.95    8.83
   9  -7  -9   18.68    6.29
  -9  -7   9   35.82   11.26
  -9   7 -10   35.68    9.99
  -9  -7 -10   25.39    8.67
   9  -7 -10   39.62   10.73
  -9  -7 -10   52.61   11.67
   9  -7 -10   25.14    8.15
  -9  -7  10   42.96   14.19
  -9   7 -11   19.31    8.24
  -9  -7 -11    7.80    2.07
   9   7 -11    6.38    2.56
   9  -7 -11    6.59    3.25
  -9  -7 -11    3.88    2.74
  -9  -7  11   16.59    5.48
  -9   7 -12   60.82   12.21
   9   7 -12   45.36   12.97
   9  -7 -12   50.85   13.96
  -9  -7 -12   48.42   13.78
  -9  -7  12   61.66   11.68
  -9   7 -13   10.91    3.16
   9   7 -13   10.64    4.57
   9  -7 -13   12.63    6.65
  -9  -7 -13    8.19    4.89
  -9  -7  13   13.32    4.41
  -9   7 -14    7.34    3.68
   9   7 -14    5.64    3.02
   9  -7 -14   15.53    6.53
  -9  -7 -14    1.67    3.13
  -9  -7  14    5.12    3.54
  -9   7 -15    8.03    3.68
  -9  -7 -15    7.09    4.32
   9   7 -15   13.53    3.88
   9  -7 -15    8.74    3.31
  -9  -7 -15    9.10    5.27
  -9  -7  15    0.77    3.51
  -9   7 -16    8.49    3.29
  -9  -7 -16    9.41    3.38
   9   7 -16    9.89    4.01
   9  -7 -16   21.29    9.30
  -9  -7 -16   13.15    6.11
  -9  -7  16   19.20    7.27
  -9   8   0   10.97    5.10
  -9  -8   0    6.34    3.27
  -9  -8   0    4.43    2.15
  -9   8   1    9.68    3.73
  -9   8  -1    5.30    5.27
  -9  -8  -1    6.42    4.60
  -9  -8   1   12.48    5.53
  -9  -8  -1    3.98    2.44
  -9  -8   1    5.57    3.46
  -9   8   2    8.22    5.44
  -9   8  -2   16.88    5.71
  -9  -8  -2    2.04    2.95
  -9  -8   2    7.63    3.39
  -9  -8   2    4.13    2.75
  -9   8   3   44.39   10.37
  -9   8  -3   58.30   15.12
  -9  -8  -3   47.25   12.10
  -9  -8   3   51.29   10.69
  -9  -8   3   57.59   11.97
  -9   8   4   47.89   10.34
  -9   8  -4   53.73   10.42
  -9  -8  -4   37.72    7.01
  -9  -8   4   60.17    9.17
   9  -8  -4   46.75    8.53
  -9  -8   4   33.82    9.29
  -9   8  -5   46.35   14.25
   9  -8  -5   56.38    9.54
  -9  -8  -5   66.04   14.38
   9  -8  -5   55.18   16.78
  -9  -8   5   58.33   12.51
  -9   8  -6   61.45   14.60
   9  -8  -6   54.79   12.97
  -9  -8  -6   57.57   11.90
  -9  -8   6   57.51   15.55
   9  -8  -6   51.73   19.50
  -9  -8   6   62.66   12.03
  -9   8  -7   51.45    9.03
   9  -8  -7   71.08   11.95
  -9  -8  -7   37.46    8.67
  -9  -8   7   41.06   10.18
   9  -8  -7   42.60   10.97
  -9  -8   7   48.32   11.97
  -9   8  -8  113.44   28.56
   9   8  -8  105.37   12.49
   9  -8  -8  116.19   20.28
  -9  -8  -8  109.28   18.90
  -9  -8   8  117.52   17.85
   9  -8  -8  112.60   21.36
  -9  -8   8  129.71   31.13
  -9   8  -9   24.13    7.56
   9   8  -9   13.41    6.24
   9  -8  -9   21.83    6.06
  -9  -8  -9   25.74    4.27
   9  -8  -9   17.64    8.92
  -9  -8   9   22.82    7.47
  -9   8 -10    6.32    2.88
   9   8 -10    4.36    3.04
  -9  -8 -10    7.05    2.21
   9  -8 -10   21.95    8.69
  -9  -8 -10   11.15    5.30
   9  -8 -10    8.84    3.28
  -9  -8  10    4.84    3.90
  -9   8 -11    1.36    3.10
   9   8 -11    4.40    2.25
  -9  -8 -11    8.07    3.76
   9  -8 -11    9.93    4.78
  -9  -8 -11    6.48    4.17
  -9  -8  11   12.25    7.97
  -9   8 -12    8.08    4.92
   9   8 -12    1.06    1.93
   9  -8 -12    5.87    6.43
  -9  -8 -12    9.18    4.65
  -9  -8  12   14.94    3.68
  -9   8 -13    8.57    4.42
   9   8 -13   -1.08    2.40
   9  -8 -13    4.31    3.99
  -9  -8 -13    3.95    2.56
  -9  -8  13    5.49    3.88
  -9   8 -14   -0.74    4.07
   9  -8 -14   16.99    7.81
  -9  -8 -14    4.63    3.55
  -9  -8  14    8.64    4.69
  -9   8 -15   18.69    9.42
   9  -8 -15   20.40    6.86
  -9  -8 -15    4.14    2.69
  -9  -8  15   12.29    3.82
  -9   9   0    2.66    2.93
  -9  -9   0    3.36    3.09
  -9  -9   0    0.13    3.72
  -9   9   1   63.95   13.29
  -9   9  -1   53.73   10.28
  -9  -9  -1   54.27   13.82
  -9  -9   1   61.47   15.77
  -9  -9  -1   62.85   11.82
  -9  -9   1   52.59   10.93
  -9   9   2   70.33   13.40
  -9   9  -2   66.70   17.32
  -9  -9  -2   83.33   13.14
  -9  -9   2   94.42   15.90
   9  -9  -2   81.35   13.60
  -9  -9   2   85.21   12.54
  -9   9   3    7.05    4.99
  -9   9  -3   19.92    6.74
  -9  -9  -3   10.55    5.95
  -9  -9   3   11.00    2.82
   9  -9  -3    8.53    2.82
  -9  -9   3   14.14    5.14
  -9   9   4    6.79    4.18
  -9   9  -4    6.02    5.36
  -9  -9  -4   20.56    5.28
  -9  -9   4   11.03    5.49
   9  -9  -4   10.85    5.94
  -9  -9   4    4.86    3.59
  -9   9  -5   15.46    5.25
  -9  -9  -5   19.80    5.08
   9  -9  -5   10.63    4.50
  -9  -9   5   12.27    5.34
  -9   9  -6   87.98   16.98
   9  -9  -6   52.22   10.36
  -9  -9  -6   45.50   10.01
  -9  -9   6   61.56   13.35
   9  -9  -6   60.42   17.16
  -9  -9   6   54.57   10.63
  -9   9  -7   46.86    9.72
   9  -9  -7   53.68   12.61
  -9  -9  -7   50.68   11.65
  -9  -9   7   44.14    9.16
   9  -9  -7   37.46   10.95
  -9  -9   7   57.49   13.65
  -9   9  -8   13.22    5.50
   9  -9  -8    8.31    4.92
  -9  -9  -8    8.66    4.40
  -9  -9   8    6.02    2.42
   9  -9  -8    9.04    4.61
  -9  -9   8    5.19    3.04
  -9   9  -9    6.17    3.87
   9  -9  -9   -0.64    5.71
  -9  -9  -9    8.08    4.29
   9  -9  -9    3.63    2.74
  -9  -9   9    9.75    2.35
  -9   9 -10   22.11   13.68
   9  -9 -10   24.89    5.58
  -9  -9 -10   20.18    4.30
   9  -9 -10   16.89    5.77
  -9  -9  10   14.71    5.79
  -9   9 -11   51.43    9.78
   9  -9 -11   70.87   16.04
  -9  -9 -11   42.75   11.67
  -9  -9  11   49.53   12.59
   9  -9 -12    5.61    6.02
  -9  -9 -12    2.02    3.70
  -9  -9  12    3.97    3.09
  -9   9 -13   25.46    6.79
   9  -9 -13   25.75    8.19
  -9  -9 -13   35.57    9.28
  -9  -9  13   21.80    6.42
  -9   9 -14   19.95    5.64
   9  -9 -14    9.83    6.92
  -9  -9 -14   11.93    4.86
  -9  -9  14   10.78    3.27
  -9  10   0    3.35    2.46
  -9 -10   0    1.36    2.38
  -9 -10   0    5.73    2.28
  -9  10   1   50.42   11.03
  -9  10  -1   45.03    9.58
  -9 -10  -1   55.72    9.07
  -9 -10   1   57.37   10.66
   9 -10  -1   45.96    7.87
  -9 -10  -1   45.35    8.61
  -9 -10   1   63.86   12.80
  -9  10   2  168.91   18.19
  -9  10  -2  159.67   33.62
  -9 -10  -2  206.26   31.92
  -9 -10   2  188.06   39.78
   9 -10  -2  203.79   26.37
  -9 -10   2  159.23   29.55
  -9  10   3    9.60    4.42
  -9  10  -3    2.93    4.36
  -9 -10  -3   13.52    5.41
  -9 -10   3    6.91    3.55
   9 -10  -3   12.37    4.02
  -9 -10   3   10.44    4.09
  -9  10   4   20.41    6.17
  -9  10  -4   16.89    4.25
  -9 -10  -4   17.53    4.74
  -9 -10   4   16.73    5.29
   9 -10  -4   11.18    4.37
  -9 -10   4   20.65    6.47
  -9  10   5   12.28    5.57
  -9  10  -5   10.55    4.56
  -9 -10  -5    5.86    3.78
  -9 -10   5   11.90    3.47
   9 -10  -5   10.41    6.59
  -9 -10   5   13.67    5.14
  -9  10  -6   -0.93    4.05
   9 -10  -6    8.22    7.82
  -9 -10  -6    5.36    2.96
   9 -10  -6    6.34    3.45
  -9 -10   6    7.87    3.85
  -9  10  -7    6.03    3.47
   9 -10  -7   15.82    5.90
  -9 -10  -7    3.01    2.67
  -9 -10   7    9.41    4.11
   9 -10  -7    2.62    2.48
  -9 -10   7    0.57    2.75
  -9  10  -8    5.24    2.60
   9 -10  -8   -0.72    5.36
  -9 -10  -8    7.67    5.49
  -9 -10   8    1.71    1.19
   9 -10  -8    5.47    4.03
  -9 -10   8    1.81    3.44
  -9  10  -9   24.78    7.98
   9 -10  -9   12.14    5.55
  -9 -10  -9   31.93    8.91
   9 -10  -9   23.79    4.89
  -9 -10   9   20.27    9.89
  -9  10 -10   47.97   13.70
   9 -10 -10   51.81   13.81
  -9 -10 -10   57.28   13.88
   9 -10 -10   40.13   15.28
  -9 -10  10   40.69   14.99
  -9  10 -11   14.21    5.13
   9 -10 -11   12.30    8.30
  -9 -10 -11   14.13    4.78
  -9 -10  11   16.72    4.91
  -9  10 -12   17.44    5.50
   9 -10 -12   11.33    7.59
  -9 -10  12    5.04    3.71
  -9  10 -13   14.18    5.26
  -9 -10 -13   -1.95    3.29
  -9 -10  13    9.33    3.58
  -9  10 -14   36.82    6.41
   9 -10 -14   34.56   14.24
  -9 -10 -14   33.28    9.45
  -9 -10  14   27.87   11.62
  -9  11   0   49.66   15.26
  -9 -11   0   30.37   10.79
   9 -11   0   43.94   10.25
  -9 -11   0   38.28    7.19
  -9  11   1   85.09   20.84
  -9  11  -1   73.89   14.15
  -9 -11  -1   97.39   20.62
  -9 -11   1   99.91   26.55
   9 -11  -1   77.79   18.65
  -9 -11  -1   79.34   13.57
  -9 -11   1   79.72   10.88
  -9  11   2   15.62    6.33
  -9  11  -2   15.15    6.29
  -9 -11  -2   23.56    5.49
  -9 -11   2   23.09    5.93
   9 -11  -2   23.64    8.20
  -9 -11   2   17.71    5.57
  -9  11   3    5.31    2.74
  -9  11  -3    6.72    2.79
  -9 -11  -3   12.22    5.36
  -9 -11   3   11.16    4.24
   9 -11  -3    2.27    4.47
  -9 -11   3    6.08    4.67
  -9  11   4   15.70    4.46
  -9  11  -4    9.68    3.64
  -9 -11  -4   12.17    3.83
  -9 -11   4   15.56    4.90
  -9 -11   4   12.39    4.65
  -9  11  -5   30.55    7.99
  -9 -11  -5   37.51    8.63
  -9 -11   5   35.13   12.33
   9 -11  -5   29.77   11.62
  -9 -11   5   52.57    9.46
  -9  11  -6   13.38    4.62
   9 -11  -6   10.99    4.72
  -9 -11  -6   11.03    4.03
  -9 -11   6   10.79    4.53
   9 -11  -6   11.05    6.01
  -9 -11   6    9.33    4.51
  -9  11  -7   24.11    9.21
   9 -11  -7   13.56    6.40
  -9 -11  -7   26.86    8.73
   9 -11  -7   19.11    4.63
  -9 -11   7   12.92    7.68
  -9  11  -8    1.93    4.61
   9 -11  -8   14.50    7.05
  -9 -11  -8    6.35    3.22
  -9 -11   8    5.89    2.77
   9 -11  -8    5.78    5.63
  -9 -11   8    6.37    3.39
  -9  11  -9    7.16    3.37
   9 -11  -9    4.15    5.34
  -9 -11  -9    5.27    4.69
   9 -11  -9    3.42    2.62
  -9 -11   9    3.34    2.90
  -9  11 -10    8.64    2.69
   9 -11 -10   15.25    5.30
  -9 -11 -10   12.11    5.19
   9 -11 -10    6.39    2.95
  -9 -11  10   12.30    6.11
  -9  11 -11   27.72    5.66
   9 -11 -11   17.97    8.74
  -9 -11 -11   16.29    6.84
  -9 -11  11   19.75    8.41
  -9  11 -12    8.64    6.26
   9 -11 -12   14.74    8.15
  -9 -11 -12   14.30    5.79
  -9 -11  12   17.46    5.88
  -9  11 -13    9.11    4.41
   9 -11 -13   30.26   16.36
  -9 -11 -13   29.56   10.13
  -9 -11  13   26.36    9.11
  -9  12   0    0.01    2.53
  -9 -12   0   10.33    5.15
   9 -12   0    9.14    7.10
  -9 -12   0   11.69    4.86
  -9  12   1   10.36    4.18
  -9  12  -1   15.81    5.66
  -9 -12  -1   12.71    5.30
  -9 -12   1   13.38    5.50
   9 -12  -1    7.80    7.63
   9 -12   1   13.22    7.65
  -9 -12  -1    4.78    4.29
  -9 -12   1   13.41    6.57
  -9  12   2   16.37    5.51
  -9  12  -2    6.45    3.49
  -9 -12  -2   13.03    5.23
  -9 -12   2    6.21    4.46
   9 -12  -2    9.27    4.96
   9 -12   2   13.12    7.90
  -9 -12   2    5.65    3.31
  -9  12   3   27.40    9.71
  -9  12  -3   35.19    6.78
  -9 -12  -3   38.23    8.00
  -9 -12   3   30.42   10.84
   9 -12  -3   40.42   11.92
  -9 -12   3   35.26    8.15
  -9  12   4   80.95   20.32
  -9  12  -4   66.62   15.98
  -9 -12  -4   76.92   13.35
  -9 -12   4   78.92   24.45
   9 -12  -4   75.59   21.87
  -9 -12   4   82.89   20.57
  -9  12  -5   24.73    7.84
   9 -12  -5   25.73    8.83
  -9 -12  -5   34.33   12.22
  -9 -12   5   33.06   11.61
   9 -12  -5   26.27    9.57
  -9 -12   5   25.17    4.71
  -9  12  -6    8.73    4.30
   9 -12  -6    9.71    5.58
  -9 -12  -6    8.72    4.73
  -9 -12   6    4.07    2.21
   9 -12  -6    2.80    3.51
  -9 -12   6    8.28    3.57
  -9  12  -7   40.01   15.64
   9 -12  -7   28.74   11.81
  -9 -12  -7   24.19   13.00
  -9 -12   7   25.35    5.92
   9 -12  -7   32.34    9.00
  -9 -12   7   33.42   10.30
  -9  12  -8   40.91   11.39
   9 -12  -8   44.05   17.45
  -9 -12  -8   44.49   12.76
  -9 -12   8   36.66   12.41
   9 -12  -8   30.93   13.56
  -9 -12   8   40.11    9.80
  -9  12  -9   27.54   10.83
   9 -12  -9   11.40    5.31
  -9 -12  -9   11.34    7.87
   9 -12  -9    9.45    3.31
  -9 -12   9   16.24    5.51
  -9  12 -10    8.05    4.03
   9 -12 -10   -1.32    5.80
  -9 -12 -10   12.16    4.43
   9 -12 -10    9.07    3.71
  -9 -12  10   -2.48    3.54
  -9  12 -11    1.98    2.60
   9 -12 -11   12.67    6.40
  -9 -12 -11   12.25    5.92
  -9 -12  11    9.35    3.87
  -9  13   0   10.80    4.06
  -9 -13   0    7.21    6.89
   9 -13   0   12.49    7.88
  -9 -13   0    6.55    2.80
  -9  13   1   20.05    4.54
  -9  13  -1   20.73    5.18
  -9 -13  -1   16.91    5.80
  -9 -13   1   26.32    6.90
   9 -13  -1   17.40    7.26
   9 -13   1   12.97    6.06
  -9 -13  -1   19.80    5.60
  -9 -13   1   14.67    4.94
  -9  13   2    8.64    4.85
  -9  13  -2   12.87    5.29
  -9 -13  -2    8.23    6.77
  -9 -13   2   12.42    5.18
   9 -13  -2    8.78    7.77
   9 -13   2    4.80    3.43
  -9 -13   2    5.16    2.69
  -9  13   3   19.45    5.62
  -9  13  -3   22.54    9.92
  -9 -13  -3   21.24    5.72
  -9 -13   3   32.47    9.21
   9 -13  -3   12.96    9.35
   9 -13   3   20.83    7.67
  -9 -13   3   22.99    9.23
  -9  13   4   16.73    8.95
  -9  13  -4   23.00    6.30
  -9 -13  -4    5.33    3.87
  -9 -13   4   11.97    6.21
   9 -13  -4    3.81    6.82
   9 -13   4   15.70    5.60
  -9 -13   4   15.63    4.28
  -9  13  -5   43.42   12.03
   9 -13  -5   57.06   13.07
  -9 -13  -5   25.93    5.40
  -9 -13   5   26.50   11.32
   9 -13  -5   32.12   11.16
  -9 -13   5   36.89    9.40
  -9  13  -6    2.43    2.43
   9 -13  -6   12.77    5.86
  -9 -13  -6    8.18    6.00
  -9 -13   6    6.72    4.38
   9 -13  -6    7.62    3.24
  -9 -13   6    6.95    3.48
  -9  13  -7   18.89    5.56
   9 -13  -7   15.29    6.73
  -9 -13  -7    6.70    4.67
   9 -13  -7   15.68    6.19
  -9 -13   7   19.04    6.58
  -9  13  -8    5.35    4.80
   9 -13  -8    9.18    8.26
  -9 -13  -8   13.09    6.25
   9 -13  -8    5.93    5.63
  -9 -13   8   21.50    6.35
  -9  13  -9    7.18    3.39
   9 -13  -9   10.89    6.89
  -9 -13  -9   19.44    8.93
   9 -13  -9    9.85    7.49
  -9 -13   9    4.95    3.11
  -9  13 -10   10.04    6.52
   9 -13 -10   11.78    5.81
  -9 -13 -10   11.74    5.50
   9 -13 -10    1.92    1.88
  -9 -13  10    7.67    3.08
  -9  14   0    5.74    3.74
  -9 -14   0   16.70    4.62
   9 -14   0   12.29    6.96
  -9 -14   0    5.13    3.64
  -9  14   1   30.80    9.52
  -9  14  -1   42.53   11.35
  -9 -14  -1   36.73   15.81
  -9 -14   1   21.80    9.12
   9 -14  -1   63.98   16.81
   9 -14   1   27.16   12.64
  -9 -14  -1   29.39   11.88
  -9 -14   1   24.06    4.95
  -9  14   2   16.29    4.28
  -9  14  -2   13.73    3.97
  -9 -14  -2   15.92    7.44
  -9 -14   2   24.83    7.04
   9 -14  -2   12.38    5.80
   9 -14   2   11.93    8.19
  -9 -14   2   26.22    7.97
  -9  14   3    6.73    3.46
  -9  14  -3    9.16    3.34
  -9 -14  -3    4.37    2.56
  -9 -14   3   13.76    4.88
   9 -14  -3    9.69    3.92
   9 -14   3   13.16    5.33
  -9 -14   3    5.55    3.73
  -9  14   4   12.62    3.52
  -9  14  -4    8.99    3.90
  -9 -14  -4    5.37    2.34
  -9 -14   4   11.39    4.50
   9 -14  -4    6.43    3.69
   9 -14   4    7.78    4.86
  -9 -14   4    3.46    2.34
  -9  14  -5   -0.90    2.18
   9 -14  -5    5.64    4.89
  -9 -14  -5    1.32    4.84
  -9 -14   5    4.61    4.16
   9 -14  -5   13.80    4.89
   9 -14   5   16.30    7.34
  -9 -14   5   14.84    4.62
  -9  14  -6    6.28    4.30
   9 -14  -6    4.71    5.30
  -9 -14  -6    9.41    4.21
  -9 -14   6   17.61    4.60
   9 -14  -6    6.24    5.30
   9 -14   6   11.57    5.10
  -9 -14   6    8.13    4.08
  -9  14  -7    6.78    5.76
   9 -14  -7   12.53    9.26
  -9 -14  -7    4.88    2.53
  -9 -14   7   12.48    3.74
   9 -14  -7   14.95    5.55
   9 -14   7    6.30    4.20
  -9 -14   7    3.22    2.95
  -9  14  -8    2.85    2.99
   9 -14  -8    9.74    5.88
  -9 -14  -8    6.75    3.12
   9 -14  -8   10.05    3.33
  -9 -14   8   10.35    3.87
  -9  15   0   11.69    6.20
  -9 -15   0   18.38    6.82
   9 -15   0    8.59    4.26
  -9 -15   0   13.26    4.31
  -9  15   1   16.37    4.90
  -9  15  -1   15.31    6.11
  -9 -15  -1   17.03    8.64
  -9 -15   1    7.40    3.89
   9 -15  -1   18.96    7.85
   9 -15   1   26.54    8.33
  -9 -15   1    9.52    5.89
  -9  15   2   18.80    5.97
  -9  15  -2   16.10    4.71
  -9 -15  -2   13.50    4.54
  -9 -15   2   18.95    9.78
   9 -15  -2   30.08   10.08
   9 -15   2   23.57   11.40
  -9 -15   2   21.82    8.62
  -9  15   3   11.56    5.89
  -9  15  -3    9.74    3.66
  -9 -15  -3   11.69    4.80
   9 -15  -3   10.22    7.19
   9 -15   3    9.75    7.74
  -9 -15   3    5.52    3.70
  -9  15   4   14.96    3.92
  -9  15  -4    9.08    5.12
  -9 -15  -4   23.71   11.38
  -9 -15   4    9.04    3.80
   9 -15  -4   21.98   10.09
   9 -15   4   16.63    7.21
  -9 -15   4    7.01    4.47
  -9  15  -5    3.20    3.68
   9 -15  -5    9.13    3.62
  -9 -15  -5    6.13    4.19
  -9 -15   5    2.09    2.64
   9 -15  -5   13.57    8.19
   9 -15   5    9.97    4.96
  -9 -15   5    5.65    3.76
  -9  15  -6   10.95    5.29
   9 -15  -6    4.25    3.25
  -9 -15  -6    5.26    5.18
  -9 -15   6   10.62    4.03
   9 -15  -6   10.14    3.37
   9 -15   6    5.92    5.74
  -9 -15   6    5.18    2.52
  -9 -16   0    7.95    3.90
   9 -16   0   10.16    3.83
  -9 -16   0    7.73    3.24
 -10   0   0   99.14   15.00
 -10   0   0  107.37   17.35
 -10   0   1   39.88   10.62
 -10   0  -1   57.82   10.39
 -10   0   1   41.93    9.68
 -10   0   1   52.97   11.41
 -10   0  -2  169.44   23.92
  10   0  -2  165.91   15.12
 -10   0   2  162.50   22.79
 -10   0  -2  173.94   27.53
 -10   0   2  182.14   29.55
  10   0  -3    6.76    2.45
 -10   0   3    1.83    1.31
 -10   0  -3    1.38    4.17
 -10   0   3    1.32    1.80
  10   0  -4    3.94    2.55
 -10   0   4    5.00    2.22
 -10   0  -4    7.81    2.48
 -10   0   4    1.98    2.30
  10   0  -5   35.91    8.07
 -10   0  -5   25.72    5.81
 -10   0   5   27.16    5.86
 -10   0  -6   63.30   10.82
  10   0  -6   64.90   11.73
 -10   0  -6   42.08   11.51
 -10   0   6   46.51   10.22
 -10   0  -7   48.60   11.83
  10   0  -7   60.65   13.12
 -10   0  -7   40.89    7.84
 -10   0   7   56.46   11.46
 -10   0  -8   20.94    5.07
  10   0  -8   11.23    4.50
 -10   0  -8   10.93    3.41
 -10   0   8   30.83    5.48
 -10   0  -9   20.50    4.83
  10   0  -9   23.17    6.30
 -10   0  -9   24.13    5.41
 -10   0   9   21.44    4.74
 -10   0 -10  177.43   28.34
  10   0 -10  153.07   21.27
 -10   0 -10  150.24   28.00
 -10   0  10  144.98   33.11
 -10   0 -11   38.62    8.35
  10   0 -11   15.91    5.18
 -10   0 -11   44.38    8.50
 -10   0  11   26.96    5.95
 -10   0 -12   18.25    4.68
  10   0 -12   26.64    7.54
 -10   0 -12   22.44    7.43
 -10   0  12   19.25    6.15
 -10   0 -13   19.61    6.27
  10   0 -13   13.66    5.14
 -10   0 -13    9.41    4.24
 -10   0  13   22.08    5.69
 -10   0 -14   17.61    5.35
  10   0 -14   15.64    7.62
 -10   0 -14   13.11    5.55
 -10   0  14    8.28    3.79
 -10   0 -15   -0.20    2.67
  10   0 -15    7.15    3.86
 -10   0 -15    3.25    2.21
 -10   0  15    4.73    3.29
 -10   0 -16    3.57    2.09
  10   0 -16   -1.19    4.78
 -10   0 -16    3.36    3.80
 -10   0  16    1.98    4.88
 -10   0 -17   10.45    4.75
  10   0 -17    6.67    6.72
 -10   0 -17   12.17    4.20
 -10   0  17   11.72    4.25
 -10  -1   0   35.41    6.32
 -10   1   0   32.29    7.53
 -10   1   0   32.41    9.22
 -10  -1   0   27.25    7.82
 -10  -1   1   49.11    9.75
 -10   1   1   48.54    8.33
 -10  -1  -1   43.27    7.59
 -10   1  -1   40.53    6.73
 -10   1   1   53.92    9.19
 -10  -1   1   51.72   11.27
 -10  -1  -1   40.47    5.87
 -10  -1   1   39.68    9.80
 -10   1   2   46.16   10.05
 -10  -1  -2   47.36    9.31
 -10   1  -2   49.74    9.41
  10   1  -2   38.05   10.85
 -10   1   2   37.18    7.39
 -10   1  -2   41.32    6.83
 -10  -1   2   32.25    9.77
 -10  -1  -2   46.52   11.63
 -10   1   2   44.57    7.70
 -10  -1   2   41.61    9.26
 -10  -1  -3  222.66    7.31
 -10   1  -3  225.60    8.35
  10   1  -3  239.72    8.17
  10  -1  -3  274.30   17.86
 -10   1  -3  234.23   32.26
 -10  -1   3  247.36   24.63
 -10  -1  -3  221.99    9.64
 -10   1   3  215.06    7.42
 -10  -1   3  192.81   16.30
 -10   1  -4    5.39    3.27
 -10  -1  -4    4.49    4.21
  10   1  -4    4.20    3.22
  10  -1  -4    3.48    2.34
 -10  -1   4    7.69    2.36
 -10   1  -4    7.61    3.47
 -10  -1  -4   11.14    4.02
 -10   1   4    6.20    3.54
 -10  -1   4   12.17    4.63
 -10   1  -5   51.51    6.55
 -10  -1  -5   49.89    8.96
  10   1  -5   50.66   10.06
  10  -1  -5   44.05    6.33
 -10  -1   5   30.51    7.59
 -10   1  -5   35.11    8.49
 -10  -1  -5   47.08    7.47
 -10   1   5   39.34   10.45
 -10  -1   5   36.56    9.18
 -10   1  -6    4.97    3.39
  10   1  -6    6.46    2.82
  10  -1  -6   18.44    6.26
 -10   1  -6   12.70    4.62
 -10  -1  -6   10.62    3.94
 -10   1   6   13.32    4.19
 -10  -1   6    6.13    3.33
 -10   1  -7   76.43   17.72
  10   1  -7   74.73   19.76
  10  -1  -7  113.15   23.34
 -10   1  -7   88.72   15.48
 -10  -1  -7   74.61   13.51
 -10   1   7   68.07   16.32
 -10  -1   7   90.14   19.88
 -10   1  -8    1.63    1.83
 -10  -1  -8    2.84    2.32
  10   1  -8    4.88    2.59
  10  -1  -8    9.19    3.27
 -10   1  -8    3.68    2.61
 -10  -1  -8    1.27    2.37
  10  -1  -8    2.42    1.29
 -10   1   8    3.01    3.52
 -10  -1   8    2.81    2.00
 -10   1  -9  110.49   17.68
 -10  -1  -9  101.91   18.82
  10   1  -9  106.62   24.97
  10  -1  -9  117.59   30.02
 -10   1  -9   79.40   12.52
 -10  -1  -9  117.84   29.04
 -10   1   9  105.29   25.74
 -10  -1   9  107.20   18.78
 -10   1 -10   31.22    6.49
 -10  -1 -10   42.80    9.98
  10   1 -10   39.45    9.17
  10  -1 -10   52.23   16.59
 -10   1 -10   41.94   10.45
 -10  -1 -10   57.01   13.14
 -10  -1  10   47.63   12.21
 -10   1  10   36.55    9.10
 -10   1 -11    5.03    2.83
 -10  -1 -11    8.09    3.30
  10   1 -11    8.02    3.45
  10  -1 -11   10.04    3.66
 -10   1 -11   11.75    5.69
 -10  -1 -11   13.74    4.67
 -10  -1  11   11.74    4.67
 -10   1  11   12.97    6.71
 -10   1 -12    6.72    5.53
 -10  -1 -12    7.89    2.75
  10   1 -12    4.68    3.61
  10  -1 -12   11.30    4.92
 -10   1 -12   15.69    5.79
 -10  -1 -12   13.35    5.04
 -10   1  12    7.29    3.11
 -10  -1  12    6.54    2.90
 -10   1 -13   16.28    4.98
 -10  -1 -13    6.19    3.67
  10   1 -13   15.59    6.59
  10  -1 -13   14.32    4.47
 -10   1 -13    9.84    3.98
 -10  -1 -13   18.28    5.16
 -10  -1  13   12.64    4.09
 -10   1  13   16.72    4.99
 -10   1 -14    6.84    3.22
 -10  -1 -14   22.01    6.66
  10   1 -14   11.97    4.40
  10  -1 -14   10.02    4.71
 -10   1 -14   17.78    5.01
 -10  -1 -14    6.44    2.81
 -10  -1  14   13.45    4.59
 -10   1  14    9.88    3.86
 -10   1 -15   50.83   16.39
 -10  -1 -15   48.03   12.93
  10   1 -15   40.26    9.66
  10  -1 -15   53.65   15.66
 -10   1 -15   48.38    9.15
 -10  -1 -15   48.41    9.20
 -10  -1  15   46.85   14.87
 -10   1  15   54.76   15.21
 -10   1 -16    8.44    4.58
 -10  -1 -16    7.02    3.99
  10   1 -16    7.87    3.13
  10  -1 -16   11.28    3.72
 -10  -1 -16   13.14    5.16
 -10  -1  16    4.31    3.36
 -10   1  16    8.01    3.76
 -10   1 -17   12.82    7.86
 -10  -1 -17    6.14    4.30
  10   1 -17   18.87    5.70
  10  -1 -17    8.08    5.31
 -10   1 -17    6.03    3.33
 -10  -1 -17    5.31    2.74
 -10  -1  17    2.89    3.29
 -10   1  17    4.18    3.06
 -10  -2   0  120.47    5.60
 -10   2   0  116.85   23.41
 -10   2   0  113.53   19.03
 -10  -2   0  112.05   17.38
 -10  -2   0  102.64   15.38
 -10   2   1  103.43   20.86
 -10  -2  -1   96.53   10.07
 -10   2  -1  114.85   22.42
  10   2  -1   95.52    9.41
 -10  -2   1  102.75   21.12
 -10  -2  -1  106.77   14.16
 -10  -2   1  107.48   22.42
 -10   2   2   49.84   11.04
 -10  -2  -2   37.24    6.68
 -10   2  -2   31.83   11.86
  10   2  -2   28.65   10.85
 -10   2  -2   33.08   10.55
 -10  -2   2   29.75   10.33
 -10  -2  -2   35.64    8.33
 -10  -2  -3   10.01    4.90
 -10   2  -3   12.90    3.98
  10   2  -3    9.48    3.23
 -10   2  -3   11.95    3.90
 -10  -2   3   18.51    5.14
 -10  -2  -3    9.53    4.68
 -10   2   3   14.96    4.79
 -10  -2   3   10.60    3.60
 -10   2  -4   40.48    6.98
 -10  -2  -4   29.41    7.98
  10   2  -4   23.86    7.06
  10  -2  -4   34.53    7.57
 -10   2  -4   32.75    8.82
 -10  -2   4   36.63    7.78
 -10  -2  -4   23.57    6.29
 -10   2   4   24.60    7.29
 -10  -2   4   30.41    8.09
 -10   2  -5   75.00   15.53
 -10  -2  -5   97.64   17.47
  10   2  -5   76.98   20.00
  10  -2  -5   92.22   18.10
 -10   2  -5   80.17   19.46
 -10  -2   5   73.78   10.48
 -10  -2  -5   65.87   14.65
 -10   2   5   79.67   13.29
 -10  -2   5   74.26   12.11
 -10   2  -6   24.80    4.49
 -10  -2  -6   19.80    5.96
  10   2  -6   21.30    7.98
  10  -2  -6   27.74    5.76
 -10  -2   6   16.31    5.21
 -10   2  -6   24.59    5.58
 -10  -2  -6   10.37    3.95
 -10   2   6   18.20    5.80
 -10  -2   6   18.35    9.38
 -10   2  -7   12.22    4.61
 -10  -2  -7   16.68    4.03
  10   2  -7   22.18    4.80
  10  -2  -7   16.96    5.62
 -10   2  -7   15.76    4.62
 -10  -2  -7   20.17    5.12
 -10   2   7   12.39    4.50
 -10  -2   7   18.29    5.27
 -10   2  -8   29.55   10.15
  10   2  -8   34.46    7.80
  10  -2  -8   46.68   10.52
 -10   2  -8   35.07    8.09
 -10  -2  -8   32.01   10.19
  10  -2  -8   16.99    5.31
 -10  -2   8   31.90    7.42
 -10   2  -9   15.45    5.98
  10   2  -9   11.03    4.87
  10  -2  -9    2.20    2.44
 -10   2  -9    7.11    3.64
 -10  -2  -9    9.48    4.53
 -10  -2   9    7.01    3.50
 -10   2 -10   30.51    5.10
 -10  -2 -10   26.84    4.40
  10   2 -10   20.81    5.02
  10  -2 -10   28.77    7.05
 -10   2 -10   40.97    7.92
 -10  -2 -10   28.04    6.37
 -10  -2  10   33.22    6.96
 -10   2 -11   67.22   12.06
 -10  -2 -11   59.95   16.74
  10   2 -11   60.28   15.26
  10  -2 -11   71.99   12.42
 -10   2 -11   67.06   10.08
 -10  -2 -11   83.38   19.43
 -10  -2  11   67.22   16.28
 -10   2 -12   32.21    9.87
 -10  -2 -12   22.79    5.05
  10   2 -12   36.27   12.95
  10  -2 -12   22.83   14.27
 -10   2 -12   31.73    7.25
 -10  -2 -12   36.84   11.66
 -10  -2  12   32.84    7.78
 -10   2  12   31.94    6.82
 -10   2 -13   45.66   11.07
 -10  -2 -13   40.01    7.77
  10   2 -13   23.67   10.46
  10  -2 -13   41.35   10.45
 -10   2 -13   32.89    8.93
 -10  -2 -13   35.78    6.99
 -10  -2  13   48.54   13.06
 -10   2  13   34.26    9.95
 -10   2 -14   12.75    3.62
 -10  -2 -14   13.96    7.44
  10   2 -14   15.84    4.15
  10  -2 -14   18.72    6.86
 -10   2 -14   21.52    6.98
 -10  -2 -14   20.22    5.17
 -10  -2  14   21.82    6.03
 -10   2  14   22.78    4.31
 -10   2 -15    7.07    3.11
 -10  -2 -15    2.43    2.27
  10   2 -15    8.62    3.38
  10  -2 -15   10.73    6.25
 -10   2 -15    1.53    2.47
 -10  -2 -15    2.48    2.35
 -10  -2  15   10.42    4.48
 -10   2  15    4.06    3.58
 -10   2 -16   24.70    7.46
 -10  -2 -16   22.51    6.86
  10   2 -16    6.67    5.27
  10  -2 -16    2.76    3.53
 -10   2 -16    7.37    3.72
 -10  -2 -16   20.59    6.87
 -10  -2  16   14.47    5.83
 -10   2  16   16.41    6.94
 -10   2 -17   24.17    8.93
 -10  -2 -17   10.14    3.85
  10   2 -17   17.82    5.49
  10  -2 -17    9.34    5.54
 -10   2 -17   12.89    4.91
 -10  -2 -17   22.69    7.12
 -10  -2  17   14.75    5.33
 -10   2  17   16.39    4.04
 -10   3   0   11.03    3.63
  10   3   0    3.46    1.45
  10   3   0   12.70    5.22
 -10  -3   0   12.49    5.13
 -10  -3   0   18.09    6.10
 -10  -3  -1   23.94    7.59
 -10   3   1   22.38    7.15
 -10   3  -1   25.47    6.56
  10   3  -1   20.27    5.67
  10   3   1   16.36    4.86
  10   3  -1   32.81   10.25
 -10  -3   1   24.46    6.65
 -10  -3  -1   30.00    9.58
 -10  -3   1   24.37    6.15
 -10   3   2   27.75    8.27
 -10  -3  -2   21.22    6.42
 -10   3  -2   30.41    8.72
  10   3  -2   13.61    4.43
  10   3   2   15.63    4.84
  10   3  -2   17.24    5.56
 -10  -3   2   24.65    6.85
 -10  -3  -2   18.51    5.88
 -10  -3   2   23.54   10.34
 -10   3   3  156.08   27.40
 -10  -3  -3  170.59    9.18
 -10   3  -3  166.67   29.81
  10   3  -3  156.44    5.42
 -10   3  -3  175.44   28.04
 -10  -3  -3  148.64   25.51
 -10  -3   3  155.86   29.18
 -10   3  -4   97.78   16.10
 -10  -3  -4   99.87    7.54
  10   3  -4   93.62    7.24
  10  -3  -4  119.45   22.35
 -10   3  -4  102.62   24.99
 -10  -3   4  124.53   16.68
 -10  -3  -4  103.13   18.49
 -10   3   4   99.97    6.74
 -10  -3   4  108.68   22.59
 -10   3  -5    5.20    2.99
 -10  -3  -5    5.35    3.86
  10   3  -5    8.39    4.66
  10  -3  -5   11.55    5.59
 -10   3  -5    7.14    4.83
 -10  -3   5    3.44    2.04
 -10  -3  -5   14.28    6.50
 -10   3   5    4.20    2.45
 -10   3  -6   58.25   12.87
 -10  -3  -6   64.55   12.48
  10   3  -6   61.33   16.44
  10  -3  -6   66.65   12.48
 -10   3  -6   72.10   17.17
 -10  -3   6   62.10   12.99
 -10  -3  -6   71.42   14.85
 -10   3   6   52.85   12.18
 -10   3  -7   32.94   10.83
 -10  -3  -7   38.37    7.24
  10   3  -7   36.69    7.23
  10  -3  -7   38.16    6.53
 -10   3  -7   30.50    6.58
 -10  -3   7   32.46    5.82
 -10  -3  -7   31.20    7.45
  10  -3  -7   21.38    6.65
 -10   3   7   27.22    8.06
 -10  -3   7   35.00    9.70
 -10   3  -8   83.66   22.07
 -10  -3  -8   69.65   15.16
  10   3  -8   58.74   15.56
  10  -3  -8  103.71   12.97
 -10   3  -8   72.98   20.40
 -10  -3  -8   91.37   13.50
  10  -3  -8   55.03   11.68
 -10   3   8   64.80   16.98
 -10  -3   8   82.60   14.74
 -10   3  -9   47.80    6.40
 -10  -3  -9   54.43   10.78
  10   3  -9   40.33   11.07
  10  -3  -9   48.69    8.85
 -10   3  -9   64.49   15.51
 -10  -3  -9   30.48    6.32
 -10   3   9   50.43    9.69
 -10  -3   9   54.48   12.52
 -10   3 -10   42.60    9.11
  10   3 -10   45.57   10.42
  10  -3 -10   56.27   10.55
 -10   3 -10   43.72   10.39
 -10  -3 -10   52.54    7.89
 -10   3  10   54.00   12.04
 -10  -3  10   57.61   12.33
 -10   3 -11   10.49    6.58
 -10  -3 -11   16.71    4.45
  10   3 -11    7.93    2.86
  10  -3 -11   14.34    5.26
 -10   3 -11   10.74    6.36
 -10  -3 -11   15.04    6.14
 -10   3  11    9.16    3.43
 -10  -3  11    6.84    2.76
 -10   3 -12   12.94    4.97
 -10  -3 -12   21.56    5.80
  10   3 -12   14.68    4.38
  10  -3 -12   28.39   19.02
 -10   3 -12   21.48    5.35
 -10  -3 -12   25.67    6.71
 -10   3  12   21.11    6.10
 -10  -3  12   20.73    8.27
 -10  -3 -13   25.42    5.36
  10   3 -13   17.54    4.95
  10  -3 -13   29.47    7.32
 -10   3 -13    6.82    5.43
 -10  -3 -13   19.50    6.11
 -10  -3  13   17.66    5.51
 -10   3 -14    3.98    1.94
 -10  -3 -14    6.58    3.57
  10   3 -14   10.25    4.64
  10  -3 -14   11.29    5.61
 -10   3 -14    8.06    3.84
 -10  -3 -14    5.46    4.58
 -10  -3  14   11.59    5.31
 -10  -3 -15    5.67    3.21
  10   3 -15    7.54    3.59
  10  -3 -15    4.38    3.03
 -10   3 -15   17.31    4.94
 -10  -3 -15   19.78    7.75
 -10  -3  15    6.83    4.44
 -10   3  15    4.89    3.39
 -10   3 -16    4.62    3.48
 -10  -3 -16   12.85    6.47
  10   3 -16   10.71    3.27
  10  -3 -16   13.73    7.81
 -10   3 -16   11.32   10.97
 -10  -3 -16   18.31    6.84
 -10  -3  16    5.68    3.55
 -10   3  16   17.05    6.25
 -10   4   0   51.06   10.59
  10   4   0   29.32    7.32
  10   4   0   32.75    8.28
 -10  -4   0   50.46   10.86
 -10  -4   0   46.98    9.90
 -10   4   1  127.48   22.83
 -10   4  -1  135.71   24.74
  10   4  -1  125.98    6.13
  10   4   1  109.42    4.35
  10   4  -1  115.95    6.11
  10   4   1  127.70    3.06
 -10  -4   1  131.17   19.81
 -10  -4  -1  120.41   16.65
 -10  -4   1  118.92   26.78
 -10  -4  -2   95.65    5.35
 -10   4   2   85.19   18.07
 -10   4  -2  116.63   17.32
  10   4  -2   80.24    8.41
  10   4   2   81.88    6.61
  10   4  -2   88.94    8.09
 -10  -4   2  112.56   17.14
 -10  -4   2   95.60   17.65
 -10   4   3   27.81    9.37
 -10  -4  -3   22.13    7.19
 -10   4  -3   27.82    5.78
  10   4  -3   12.01    4.12
  10   4   3   11.92    4.10
  10   4  -3   17.72    6.55
 -10  -4  -3   19.23    7.61
 -10  -4   3   26.19    4.76
 -10  -4  -4   72.11    9.16
 -10   4  -4   61.58   19.08
  10   4  -4   53.62    6.39
  10  -4  -4   62.48   10.99
 -10  -4   4   40.56   10.60
 -10  -4  -4   63.76   14.49
 -10  -4   4   50.19    9.37
 -10   4  -5  119.65   28.42
 -10  -4  -5  111.24   12.39
  10   4  -5  107.85   13.72
  10  -4  -5  116.07   18.08
 -10  -4   5   99.18   15.36
 -10  -4  -5  112.89   15.70
 -10   4   5  112.91   13.06
 -10  -4   5   97.95   20.67
 -10   4  -6   20.24    4.87
 -10  -4  -6   27.13    5.13
  10   4  -6   23.31    4.15
  10  -4  -6    9.63    2.71
 -10  -4   6   11.85    3.09
 -10  -4  -6   29.68    6.97
 -10   4   6   21.38    5.61
 -10  -4   6   29.61    8.95
 -10   4  -7  100.42   20.74
 -10  -4  -7   93.28   14.95
  10   4  -7   88.19    9.52
  10  -4  -7  108.74   20.35
 -10  -4   7   98.34    4.76
 -10  -4  -7   93.41   24.04
  10  -4  -7   87.83   13.37
 -10   4   7   93.91    4.35
 -10  -4   7  106.54   20.72
 -10   4  -8   40.24    8.69
 -10  -4  -8   25.31    6.83
  10   4  -8   22.64    5.22
 -10  -4   8   16.84    3.92
 -10  -4  -8   26.38    6.05
  10  -4  -8   21.99    3.81
 -10   4   8   21.00    5.80
 -10  -4   8   28.67    7.10
 -10   4  -9    1.48    2.86
 -10  -4  -9   -0.57    2.12
  10   4  -9    2.17    2.39
  10  -4  -9    1.74    4.55
 -10   4  -9    9.88    4.39
 -10  -4  -9    6.40    4.03
 -10   4   9    1.78    1.59
 -10  -4   9    5.77    2.57
 -10   4 -10   40.49   11.23
 -10  -4 -10   37.20    8.09
  10   4 -10   28.88    9.77
  10  -4 -10   44.58   12.98
 -10   4 -10   40.20    8.30
 -10  -4 -10   33.02    6.41
 -10   4  10   32.79    9.85
 -10  -4  10   49.93    8.38
 -10   4 -11   69.53   19.95
  10   4 -11   68.57    9.19
  10  -4 -11   47.06   12.64
 -10  -4 -11   66.97   14.98
 -10   4  11   39.36   10.62
 -10  -4  11   55.49    8.26
 -10   4 -12   11.74    3.08
 -10  -4 -12   17.86    5.29
  10   4 -12   13.48    4.46
  10  -4 -12    5.06    4.52
 -10  -4 -12   10.45    3.11
 -10  -4  12   18.71    7.31
 -10   4  12   10.82    2.80
 -10   4 -13   22.57    6.40
 -10  -4 -13   18.41    5.35
  10   4 -13   20.44    7.54
  10  -4 -13   30.65   10.23
 -10  -4 -13   17.31    4.21
 -10  -4  13   20.33    6.11
 -10   4  13   17.29    3.61
 -10   4 -14   40.31   12.99
 -10  -4 -14   28.78    8.67
  10   4 -14   18.63    8.51
  10  -4 -14   37.89   16.50
 -10  -4 -14   29.76    6.39
 -10  -4  14   34.04   15.58
 -10   4 -15    5.28    5.02
 -10  -4 -15   -0.78    3.12
  10   4 -15    7.71    3.77
  10  -4 -15   21.13    5.79
 -10  -4 -15    3.02    2.37
 -10  -4  15    9.63    4.27
 -10   4 -16    6.79    4.01
 -10  -4 -16    4.65    3.89
  10   4 -16    8.82    3.08
  10  -4 -16    5.00    4.80
 -10  -4 -16   10.92    4.75
 -10  -4  16    5.68    3.87
 -10  -5   0  218.60   13.48
 -10  -5   0  216.77   14.12
 -10   5   1   31.47    8.11
 -10   5  -1   41.58    8.50
 -10  -5   1   31.44    4.48
 -10  -5  -1   34.63    5.88
 -10  -5  -1   40.40    7.97
 -10  -5   1   30.84    7.30
 -10   5   2  167.28   31.15
 -10   5  -2  165.73   28.66
 -10  -5   2  166.76   10.61
 -10  -5   2  163.00   32.31
 -10   5   3   13.79    5.62
 -10  -5  -3    6.82    2.20
 -10   5  -3   11.38    5.51
  10   5  -3    3.42    1.20
  10   5   3    4.79    1.33
 -10  -5  -3   16.26    5.39
 -10  -5   3   14.22    7.59
 -10   5   4  168.77   26.62
 -10  -5  -4  151.32    7.44
  10   5  -4  135.14    3.87
 -10  -5   4  148.25   16.57
 -10  -5  -4  131.54   12.48
 -10  -5  -5   39.84    7.23
  10   5  -5   34.00    7.28
  10  -5  -5   63.22   15.86
 -10  -5   5   41.24   10.35
 -10  -5  -5   39.26    6.45
 -10  -5   5   49.25   10.18
 -10  -5  -6   75.61    5.96
  10   5  -6   43.74   11.76
  10  -5  -6   88.85   11.57
 -10  -5   6   57.41   13.09
 -10  -5  -6   69.81   10.30
  10  -5  -6   56.24   10.38
 -10   5   6   56.33    6.05
 -10  -5   6   71.11   14.06
 -10  -5  -7   25.48    6.02
  10   5  -7   20.19    5.75
  10  -5  -7   22.93    7.66
 -10  -5   7   21.74    5.81
 -10  -5  -7   25.95    6.41
  10  -5  -7   21.08    4.67
 -10   5   7   20.08    5.51
 -10  -5   7   31.06    7.45
 -10   5  -8   98.62   16.84
 -10  -5  -8  110.39   15.62
  10   5  -8  117.91   11.60
  10  -5  -8  127.40   28.99
 -10  -5  -8  115.81   19.43
  10  -5  -8   83.45   13.84
 -10   5   8  115.55   12.19
 -10  -5   8  102.51   19.26
 -10   5  -9    3.05    2.19
 -10  -5  -9    5.67    3.32
  10   5  -9    8.76    3.70
  10  -5  -9    7.57    4.76
 -10  -5  -9    4.94    3.32
  10  -5  -9    4.69    2.43
 -10   5   9    1.91    1.85
 -10  -5   9    9.28    3.17
 -10   5 -10   73.57   20.89
 -10  -5 -10   64.10   13.64
  10   5 -10   67.31   19.80
  10  -5 -10   86.36   20.88
 -10  -5 -10   82.65   22.29
 -10   5  10   66.84    9.27
 -10  -5  10   81.41   19.73
 -10   5 -11    4.16    4.61
 -10  -5 -11    4.48    3.78
  10   5 -11    5.17    2.53
  10  -5 -11    7.59    4.49
 -10  -5 -11    6.66    3.22
 -10   5  11    3.64    2.00
 -10  -5  11    8.25    2.75
 -10   5 -12   35.09   10.07
  10   5 -12   26.47   12.06
  10  -5 -12   32.27    7.64
 -10  -5 -12   31.84    8.95
 -10  -5  12   38.98   10.23
 -10   5 -13    3.26    2.20
  10   5 -13    6.97    4.18
  10  -5 -13    4.42    5.61
 -10  -5 -13    1.12    1.45
 -10  -5  13    6.49    4.89
 -10   5 -14   38.92    9.35
 -10  -5 -14   19.97    9.65
  10   5 -14   21.57    9.31
  10  -5 -14   30.20   10.56
 -10  -5 -14   30.61    8.96
 -10  -5  14   32.81    8.71
 -10   5 -15    5.93    5.25
 -10  -5 -15    2.00    4.72
  10   5 -15    7.69    2.54
  10  -5 -15   10.92    5.81
 -10  -5 -15   15.50    5.84
 -10  -5  15    5.42    3.08
 -10   5 -16   13.86    6.29
 -10  -5 -16   11.63    4.08
  10   5 -16    4.30    3.53
  10  -5 -16    9.82    3.61
 -10  -5 -16   13.07    4.41
 -10  -5  16    5.13    3.62
 -10   6   0   -0.75    3.78
 -10  -6   0    6.05    3.39
 -10  -6   0    5.80    3.05
 -10   6   1  133.54   22.74
 -10   6  -1  152.26   24.70
 -10  -6  -1  131.64   27.76
 -10  -6   1  131.94   27.01
 -10  -6  -1  140.71   28.39
 -10  -6   1  140.84   28.37
 -10   6   2  114.61   22.27
 -10   6  -2  124.67   26.62
 -10  -6   2   89.73   20.62
 -10  -6   2  100.62   14.16
 -10   6   3    7.10    3.29
 -10   6  -3   10.23    3.97
 -10  -6  -3    9.09    4.74
 -10  -6   3    3.83    1.67
 -10  -6   3    2.43    2.60
 -10   6   4   33.20    7.21
 -10   6  -4   15.72    4.39
 -10  -6  -4   33.72    6.25
 -10  -6   4   28.02    6.80
 -10   6  -5   28.03    7.63
 -10  -6  -5   19.71    4.96
  10   6  -5   17.96    4.85
  10  -6  -5   31.37    7.94
 -10  -6  -5   31.24    7.62
 -10  -6   5   25.96    5.96
 -10  -6   5   38.59    7.74
 -10   6  -6    5.44    2.76
 -10  -6  -6    3.10    1.29
  10   6  -6    2.70    1.54
  10  -6  -6   14.79    4.85
 -10  -6  -6    8.40    4.87
 -10  -6   6    3.76    1.75
  10  -6  -6    2.61    1.64
 -10  -6   6    5.23    2.97
 -10   6  -7   51.61   12.10
 -10  -6  -7   38.04   10.07
  10   6  -7   37.33    8.31
  10  -6  -7   50.44    9.09
 -10  -6   7   30.25    7.53
 -10  -6  -7   61.27   11.80
  10  -6  -7   37.55   10.60
 -10  -6   7   46.47   12.41
 -10   6  -8   11.91    4.18
 -10  -6  -8   16.28    4.02
  10   6  -8   12.64    4.40
  10  -6  -8    4.68    5.12
 -10  -6   8    4.20    2.28
 -10  -6  -8   15.78    4.01
 -10  -6   8    7.54    4.48
 -10   6  -9    4.34    3.57
 -10  -6  -9    3.36    1.89
  10   6  -9    1.71    1.26
  10  -6  -9   12.46    6.92
 -10  -6  -9    8.39    3.25
  10  -6  -9   -1.41    2.37
 -10  -6   9    5.01    4.95
 -10   6 -10   29.15    7.24
 -10  -6 -10   14.67    4.77
  10   6 -10   19.96    4.89
  10  -6 -10   33.33   11.30
 -10  -6 -10   27.15    8.02
 -10  -6  10   29.66    8.93
 -10   6 -11   74.74   16.01
 -10  -6 -11   52.34   11.25
  10   6 -11   53.66   13.30
  10  -6 -11   91.72   18.01
 -10  -6 -11   52.41    9.94
 -10  -6  11   66.22   10.70
 -10   6 -12   11.08    3.90
 -10  -6 -12    4.10    2.50
  10   6 -12    2.55    3.36
  10  -6 -12    6.52    3.57
 -10  -6 -12    5.95    2.38
 -10  -6  12    8.32    3.82
 -10   6 -13   45.88   11.15
 -10  -6 -13   31.95   10.72
  10   6 -13   34.74    7.83
  10  -6 -13   35.96    9.12
 -10  -6 -13   47.61   14.30
 -10  -6  13   30.17    9.93
 -10   6 -14   18.50    3.96
  10   6 -14   12.10    3.57
  10  -6 -14   25.61    7.93
 -10  -6 -14   15.23    7.65
 -10  -6  14   10.46    4.92
 -10   6 -15    6.83    4.68
 -10  -6 -15    2.02    1.88
  10   6 -15    2.25    2.26
  10  -6 -15    5.20    5.08
 -10  -6 -15    5.80    3.03
 -10  -6  15   14.16    3.92
 -10   7   0   25.86    7.46
 -10  -7   0   28.42    5.98
 -10  -7   0   32.30    8.26
 -10   7   1    8.80    2.32
 -10   7  -1    8.43    3.88
 -10  -7  -1    7.25    1.93
 -10  -7   1    6.81    2.56
 -10  -7  -1    9.88    3.47
 -10  -7   1    2.58    3.17
 -10   7   2   74.24   12.31
 -10   7  -2   66.46    9.02
 -10  -7   2   73.73   13.50
 -10  -7   2   81.76   16.35
 -10   7   3    9.04    4.17
 -10   7  -3    7.64    3.93
 -10  -7  -3    4.93    3.24
 -10  -7   3   11.81    4.87
 -10  -7   3   12.18    5.37
 -10   7   4   36.49    7.78
 -10   7  -4   32.28    5.25
 -10  -7  -4   10.87    4.15
 -10  -7   4   21.04    5.68
 -10   7  -5    4.87    3.88
  10  -7  -5   35.85    9.91
 -10  -7  -5   18.45    7.40
 -10  -7   5   14.41    5.52
  10  -7  -5   26.52    6.92
 -10  -7   5   12.54    5.11
 -10   7  -6   61.74   11.57
  10  -7  -6   77.85   12.37
 -10  -7  -6   41.37    7.45
 -10  -7   6   47.45   10.91
  10  -7  -6   37.60    7.81
 -10  -7   6   49.25   15.74
 -10   7  -7   40.87    9.51
  10  -7  -7   34.86    7.80
 -10  -7  -7   23.11    6.64
 -10  -7   7   23.47    6.48
  10  -7  -7   23.81    8.75
 -10  -7   7   32.56    8.78
 -10   7  -8   63.95   15.56
  10  -7  -8   91.17   12.57
 -10  -7  -8   58.74   12.78
  10  -7  -8   44.87   10.88
 -10  -7   8   60.96   13.95
 -10   7  -9   18.68    4.16
  10  -7  -9   21.47    7.50
 -10  -7  -9   16.92    6.83
  10  -7  -9   10.66    3.40
 -10  -7   9    9.22    6.33
 -10   7 -10   32.22    8.15
  10   7 -10   13.41    3.94
  10  -7 -10   20.50    7.65
 -10  -7 -10   31.28    6.63
 -10  -7  10   38.81    8.93
 -10   7 -11   17.71    6.49
  10   7 -11    2.07    1.80
  10  -7 -11    4.62    6.83
 -10  -7 -11    5.10    2.55
 -10  -7  11    2.35    1.74
 -10   7 -12   21.36    8.61
  10  -7 -12   10.93    5.22
 -10  -7 -12   11.66    5.68
 -10  -7  12   11.53    4.09
 -10   7 -13    6.03    5.49
  10  -7 -13   14.02    4.53
 -10  -7 -13    7.46    5.22
 -10  -7  13    5.21    3.10
 -10   7 -14   17.40    7.53
  10  -7 -14   12.78    7.34
 -10  -7 -14   15.71    4.62
 -10  -7  14    3.36    2.91
 -10   7 -15    6.91    5.78
  10  -7 -15   14.99    5.14
 -10  -7 -15    6.85    2.99
 -10  -7  15    7.51    2.72
 -10   8   0    8.87    4.87
 -10  -8   0    9.00    4.87
 -10  -8   0   15.04    5.56
 -10   8   1   64.48   14.71
 -10   8  -1   54.74   17.60
 -10  -8  -1   71.37   17.07
 -10  -8   1   58.11   13.81
 -10  -8  -1   51.44   15.18
 -10  -8   1   58.79   11.32
 -10   8   2   41.45   11.23
 -10   8  -2   42.48    5.40
 -10  -8  -2   49.53   11.08
 -10  -8   2   43.57   11.32
 -10  -8   2   51.54   13.73
 -10   8   3    9.33    4.24
 -10   8  -3    9.19    4.01
 -10  -8  -3   16.20    6.49
 -10  -8   3    7.46    4.00
 -10  -8   3    9.70    4.27
 -10   8   4   34.88    9.64
 -10   8  -4   42.34    9.82
 -10  -8  -4   34.69    8.90
 -10  -8   4   29.58    9.96
  10  -8  -4   37.80   10.05
 -10  -8   4   39.84    8.44
 -10   8  -5   45.20   13.37
  10  -8  -5   38.41   10.00
 -10  -8  -5   27.03    7.26
 -10  -8   5   27.63    6.50
  10  -8  -5   26.39   11.56
 -10  -8   5   23.71    7.98
 -10   8  -6   54.71   15.50
  10  -8  -6   50.87    9.59
 -10  -8  -6   64.58   15.52
 -10  -8   6   43.96   11.16
  10  -8  -6   53.75   10.44
 -10  -8   6   55.63   13.31
 -10   8  -7   38.41    8.06
  10  -8  -7   21.69    5.47
 -10  -8  -7   31.02    6.39
 -10  -8   7   27.78    8.33
  10  -8  -7   31.16   11.44
 -10  -8   7   44.11    8.50
 -10   8  -8   11.93    7.52
  10  -8  -8   14.24    8.85
 -10  -8  -8    3.41    3.25
  10  -8  -8    4.18    3.61
 -10  -8   8    5.98    3.72
 -10   8  -9   12.67    4.80
  10  -8  -9   10.25    4.57
 -10  -8  -9   14.85    5.77
  10  -8  -9   15.35    3.84
 -10  -8   9   20.22    6.83
 -10   8 -10   18.31    4.10
  10  -8 -10   27.13    6.95
 -10  -8 -10   26.40    8.64
 -10  -8  10   46.96    8.89
 -10   8 -11   13.61    6.14
  10  -8 -11   21.90    5.77
 -10  -8 -11   22.37    5.39
 -10  -8  11   28.67    6.94
 -10   8 -12    9.95    5.38
  10  -8 -12    7.61    7.13
 -10  -8 -12    8.28    4.46
 -10  -8  12    6.24    2.86
  10  -8 -13    9.61    5.45
 -10  -8 -13   23.43    7.63
 -10  -8  13   15.99    5.63
 -10   8 -14    7.20    4.94
  10  -8 -14   22.68    8.15
 -10  -8 -14   -0.26    3.58
 -10  -8  14    5.67    4.03
 -10   9   0    3.98    2.68
 -10  -9   0    5.52    2.81
 -10  -9   0   10.41    3.83
 -10   9   1   28.09    5.18
 -10   9  -1   14.00    4.67
 -10  -9  -1   21.87    6.66
 -10  -9   1   21.79    6.47
 -10  -9  -1   23.36    5.74
 -10  -9   1   26.65    8.80
 -10   9   2   16.77    5.41
 -10   9  -2   20.67    5.88
 -10  -9  -2   17.17    6.33
 -10  -9   2   12.63    4.18
 -10  -9   2   20.39    8.62
 -10   9   3  149.88   24.79
 -10   9  -3  144.20   33.42
 -10  -9  -3  135.57   33.22
 -10  -9   3  136.57   23.38
  10  -9  -3  127.83   30.25
 -10  -9   3  127.81   26.67
 -10   9   4   35.50    8.64
 -10   9  -4   24.17    6.31
 -10  -9  -4   30.76   15.74
 -10  -9   4   33.40   11.53
  10  -9  -4   42.80    7.78
 -10  -9   4   37.50    7.75
 -10   9  -5   22.16    7.47
  10  -9  -5   19.35    9.00
 -10  -9  -5   15.76    5.41
  10  -9  -5   15.82    7.24
 -10  -9   5    9.02    6.16
 -10   9  -6    8.44    3.56
  10  -9  -6   11.77    4.71
 -10  -9  -6    7.68    3.21
 -10  -9   6    7.05    5.65
  10  -9  -6    4.51    3.48
 -10  -9   6    1.45    2.58
 -10   9  -7    6.14    3.42
  10  -9  -7    7.33    5.64
 -10  -9  -7    8.19    4.17
 -10  -9   7    7.26    2.44
  10  -9  -7    6.20    4.16
 -10  -9   7    6.75    2.41
 -10   9  -8   23.83    8.81
  10  -9  -8   15.46    6.20
 -10  -9  -8   23.35    5.38
  10  -9  -8   14.39    4.73
 -10  -9   8   19.46    8.33
 -10   9  -9   38.83    7.32
  10  -9  -9   38.62   18.15
 -10  -9  -9   41.59   10.45
  10  -9  -9   36.28    7.43
 -10  -9   9   49.22   11.99
 -10   9 -10    8.08    3.60
  10  -9 -10    6.93    5.27
 -10  -9 -10   10.33    5.15
 -10  -9  10    7.75    3.45
 -10   9 -11   13.61    6.73
  10  -9 -11   27.42   14.72
 -10  -9 -11   23.55    5.65
 -10  -9  11   13.75    4.58
 -10   9 -12    6.79    5.50
  10  -9 -12    8.83    4.01
 -10  -9 -12    9.78    4.88
 -10  -9  12   10.21    4.48
 -10   9 -13    8.17    2.94
  10  -9 -13   16.51    4.28
 -10  -9 -13   12.86    3.68
 -10  -9  13   11.35    4.97
 -10  10   0  135.06   24.58
 -10 -10   0  115.80   29.12
 -10 -10   0  118.58   23.94
 -10  10   1   74.20   16.52
 -10  10  -1   78.98   16.38
 -10 -10  -1   68.21   17.10
 -10 -10   1   74.57   25.24
 -10 -10  -1   56.44   10.10
 -10 -10   1   73.49   14.26
 -10  10   2   10.06    4.28
 -10  10  -2   13.65    5.18
 -10 -10  -2   12.09    5.46
 -10 -10   2   22.77    6.24
  10 -10  -2   18.32    5.10
 -10 -10   2    9.00    4.66
 -10  10   3    9.12    3.59
 -10  10  -3    5.23    5.59
 -10 -10  -3    9.96    4.58
 -10 -10   3    3.69    2.57
  10 -10  -3   -0.03    5.17
 -10 -10   3    2.92    2.33
 -10  10   4   20.95    7.22
 -10  10  -4   24.19    7.15
 -10 -10  -4   14.02    4.21
 -10 -10   4   25.22    6.88
  10 -10  -4   19.66    8.68
 -10 -10   4   28.29    8.43
 -10  10  -5   22.00    7.87
  10 -10  -5   28.45    8.66
 -10 -10  -5   30.02    8.47
 -10 -10   5   23.03    7.07
  10 -10  -5   11.26    7.15
 -10 -10   5   16.93    6.12
 -10  10  -6    8.77    4.59
  10 -10  -6   12.42    4.65
 -10 -10  -6   14.84    6.24
  10 -10  -6   17.24    6.74
 -10  10  -7   25.91    8.34
  10 -10  -7   23.04    5.62
 -10 -10  -7   26.48    7.81
 -10 -10   7   12.99    5.29
  10 -10  -7   19.99    7.54
 -10 -10   7   16.61    5.54
 -10  10  -8    5.82    3.70
  10 -10  -8   -1.82    5.38
 -10 -10  -8    3.29    4.59
  10 -10  -8    4.39    2.89
 -10 -10   8    7.38    5.16
 -10  10  -9    9.60    3.46
  10 -10  -9    7.11    6.05
 -10 -10  -9    1.19    4.20
  10 -10  -9    7.33    4.37
 -10 -10   9    8.73    4.39
 -10  10 -10    4.63    2.89
  10 -10 -10   16.84    9.78
 -10 -10 -10    8.48    3.08
 -10 -10  10    7.73    3.94
 -10  10 -11   18.14    5.45
  10 -10 -11   31.67    9.44
 -10 -10 -11   15.04    9.02
 -10 -10  11   21.71    5.41
 -10  10 -12   15.16    8.28
  10 -10 -12   31.57    9.59
 -10 -10 -12   23.21   12.05
 -10 -10  12   18.27    4.84
 -10  10 -13    9.96    3.19
  10 -10 -13   11.27    7.38
 -10 -10 -13    7.00    4.44
 -10 -10  13   11.94    4.20
 -10  11   0    3.57    2.76
 -10 -11   0    7.42    4.21
  10 -11   0    9.04    5.52
 -10 -11   0    7.25    3.49
 -10  11   1    5.11    2.90
 -10  11  -1    6.27    4.08
 -10 -11  -1   10.91    4.24
 -10 -11   1    6.72    4.61
  10 -11  -1   13.39    7.06
 -10 -11  -1    2.20    3.37
 -10 -11   1   10.97    4.58
 -10  11   2    2.60    3.78
 -10  11  -2    2.61    2.93
 -10 -11  -2    7.22    7.90
 -10 -11   2    9.55    3.45
  10 -11  -2   13.77    5.54
 -10 -11   2   20.57    5.15
 -10  11   3   90.04   25.64
 -10  11  -3   84.03   17.69
 -10 -11  -3   77.19   18.84
 -10 -11   3   95.32   18.60
  10 -11  -3   80.25   32.94
 -10 -11   3   87.58   21.88
 -10  11   4    2.93    5.32
 -10  11  -4   10.02    4.80
 -10 -11  -4    7.25    4.71
 -10 -11   4    7.50    3.44
  10 -11  -4   13.40    5.85
 -10 -11   4   12.50    6.69
 -10  11  -5   56.86   16.42
  10 -11  -5   67.57   17.20
 -10 -11  -5   42.73    8.59
 -10 -11   5   53.90   12.02
 -10 -11   5   41.04   10.09
 -10  11  -6    3.17    3.56
  10 -11  -6   10.15    5.46
 -10 -11  -6    2.89    2.72
  10 -11  -6    3.48    2.01
 -10 -11   6   11.54    6.08
 -10  11  -7   38.85    9.90
  10 -11  -7   37.62   12.74
 -10 -11  -7   45.91    6.61
 -10 -11   7   34.55    8.97
  10 -11  -7   38.95   10.40
 -10 -11   7   44.14    8.73
 -10  11  -8    8.69    4.99
  10 -11  -8   11.67    6.73
 -10 -11  -8    9.26    3.50
  10 -11  -8    7.28    3.47
 -10 -11   8   -0.16    3.75
 -10  11  -9   48.23   20.91
  10 -11  -9   76.50   18.40
 -10 -11  -9   50.85   17.90
  10 -11  -9   34.19   16.06
 -10 -11   9   42.03   16.02
 -10  11 -10    9.59    4.40
  10 -11 -10   14.30    7.38
 -10 -11 -10    8.13    5.94
 -10 -11  10   19.53   10.11
 -10  11 -11    4.96    2.92
  10 -11 -11   -2.08    5.66
 -10 -11 -11    7.97    5.50
 -10 -11  11    4.22    5.76
 -10  11 -12    9.52    6.37
  10 -11 -12    5.68    4.95
 -10 -11  12   -0.99    3.67
 -10  12   0   14.50    4.31
 -10 -12   0   19.92    4.75
  10 -12   0   20.39    9.20
 -10 -12   0    9.06    4.03
 -10  12   1    2.16    3.23
 -10  12  -1   10.90    4.00
 -10 -12  -1    6.62    3.84
 -10 -12   1   17.78    5.45
  10 -12  -1    3.94    4.29
  10 -12   1   10.83    5.93
 -10 -12  -1    8.95    3.34
 -10 -12   1   17.04    4.82
 -10  12   2   50.34   10.88
 -10  12  -2   63.54   14.38
 -10 -12  -2   64.78   15.55
 -10 -12   2   65.14   12.56
  10 -12  -2   54.47   15.03
 -10 -12   2   59.81    8.49
 -10  12   3    6.15    5.61
 -10  12  -3    2.93    3.10
 -10 -12  -3    2.35    3.36
 -10 -12   3    7.81    4.27
  10 -12  -3   -0.45    5.73
 -10 -12   3    2.54    2.96
 -10  12   4   20.12    8.77
 -10  12  -4   12.28    4.80
 -10 -12  -4   18.36    6.52
 -10 -12   4   20.96    5.20
  10 -12  -4   19.11    6.95
 -10 -12   4   20.76    5.54
 -10  12  -5   11.41    5.81
  10 -12  -5   27.09    7.54
 -10 -12  -5   12.79    4.88
 -10 -12   5   17.78    6.06
  10 -12  -5   19.59    4.73
 -10 -12   5   14.56    6.62
 -10  12  -6   25.39    6.42
  10 -12  -6   37.42   10.43
 -10 -12  -6   19.91    6.11
 -10 -12   6   28.27    7.45
  10 -12  -6   17.98   11.20
 -10 -12   6   13.79    9.68
 -10  12  -7    4.13    4.89
  10 -12  -7    6.81    4.39
 -10 -12  -7    9.27    4.73
  10 -12  -7    7.79    4.52
 -10 -12   7    5.00    3.81
 -10  12  -8    8.05    3.92
  10 -12  -8   10.91    6.50
 -10 -12  -8   15.34    6.83
  10 -12  -8    9.38    3.53
 -10 -12   8    5.85    3.60
 -10  12  -9   19.66    6.51
  10 -12  -9    7.85    5.86
 -10 -12  -9    4.37    4.54
  10 -12  -9    4.75    3.99
 -10 -12   9    6.18    5.92
 -10  12 -10   24.63    8.77
  10 -12 -10   29.77    7.14
 -10 -12 -10   21.96    7.13
 -10 -12  10   12.96    6.79
 -10  13   0   27.27    6.41
 -10 -13   0   48.92   16.47
  10 -13   0   26.48    8.98
 -10 -13   0   16.67    9.66
 -10  13   1   11.54    5.12
 -10  13  -1    5.90    2.44
 -10 -13  -1   12.81    5.48
 -10 -13   1    7.61    4.27
  10 -13  -1    4.36    4.29
  10 -13   1   12.82    6.59
 -10 -13  -1    6.13    4.35
 -10 -13   1   16.30    4.89
 -10  13   2   12.41    4.11
 -10  13  -2    4.90    4.37
 -10 -13  -2    2.91    2.79
 -10 -13   2   18.61    5.82
  10 -13  -2   16.21    5.28
  10 -13   2    8.86    6.91
 -10 -13   2   10.93    5.35
 -10  13   3   11.48    3.80
 -10  13  -3   24.28    7.63
 -10 -13  -3   15.38    6.61
 -10 -13   3   21.77    7.59
  10 -13  -3   14.84    5.96
  10 -13   3   24.98    7.96
 -10 -13   3   11.77    7.13
 -10  13   4   -0.44    3.72
 -10  13  -4    6.98    3.24
 -10 -13  -4    5.55    2.63
 -10 -13   4    3.68    2.18
  10 -13  -4    4.52    4.94
 -10 -13   4    5.65    3.41
 -10  13  -5   10.45    5.14
  10 -13  -5    4.83    4.54
 -10 -13  -5   13.31    6.65
 -10 -13   5    6.63    2.68
  10 -13  -5    2.94    2.36
 -10 -13   5    2.13    2.22
 -10  13  -6    3.49    2.26
  10 -13  -6   -2.12    6.10
 -10 -13  -6    5.37    3.26
 -10 -13   6    4.62    2.77
  10 -13  -6   11.31    5.75
 -10 -13   6    6.32    3.11
 -10  13  -7    2.03    4.83
  10 -13  -7   14.94    6.16
 -10 -13  -7    7.93    4.89
 -10 -13   7    7.70    4.72
  10 -13  -7    6.96    4.29
 -10 -13   7    3.94    5.70
 -10  13  -8    7.16    3.75
  10 -13  -8   -1.17    6.53
 -10 -13  -8    7.77    3.33
  10 -13  -8    7.03    5.18
 -10 -13   8    1.44    3.73
 -10  13  -9   11.05    4.28
  10 -13  -9   21.32    5.67
 -10 -13  -9   13.80    5.93
  10 -13  -9   20.44    9.86
 -10 -13   9   21.09    6.75
 -10  14   0   19.94    7.16
 -10 -14   0   36.19    7.95
  10 -14   0   33.44   12.21
 -10 -14   0   22.65    6.66
 -10  14   1    5.85    3.71
 -10  14  -1    6.81    3.17
 -10 -14  -1   12.86    7.30
 -10 -14   1    4.26    3.52
  10 -14  -1    6.88    3.56
  10 -14   1   17.92    7.51
 -10 -14   1   11.87    4.07
 -10  14   2   21.95    6.97
 -10  14  -2   28.10    6.92
 -10 -14  -2   12.69    5.99
 -10 -14   2   30.61    7.18
  10 -14  -2   19.36    5.98
  10 -14   2   24.30    9.77
 -10 -14   2    4.96    4.61
 -10  14   3   10.89    4.92
 -10  14  -3   12.68    3.51
 -10 -14  -3   15.07    5.36
 -10 -14   3   -0.41    2.87
  10 -14  -3   12.79    6.74
  10 -14   3    8.32    4.73
 -10 -14   3    5.13    4.03
 -10  14   4   32.94    8.23
 -10  14  -4    8.71    5.55
 -10 -14  -4   23.66    9.19
 -10 -14   4   10.23    6.74
  10 -14  -4   10.41    8.83
  10 -14   4    8.78    3.49
 -10 -14   4   19.09    6.57
 -10  14  -5    8.13    4.93
  10 -14  -5   18.40    8.13
 -10 -14  -5   10.79    7.31
 -10 -14   5    7.18    3.53
  10 -14  -5   11.78    5.80
  10 -14   5   14.91    9.40
 -10 -14   5   12.78    4.35
 -10  14  -6   12.21    4.27
  10 -14  -6    8.47    4.48
 -10 -14  -6    8.90    4.40
 -10 -14   6    6.03    4.37
  10 -14  -6   -1.59    4.70
  10 -14   6   19.63    9.76
 -10 -14   6    5.43    3.19
  10 -14  -7    3.82    3.62
 -10 -14  -7    9.60    3.81
  10 -14  -7    9.00    5.15
 -10 -14   7   11.03    5.64
 -10  15   0    8.01    5.34
 -10 -15   0   12.85    4.93
  10 -15   0    8.68    5.68
 -10 -15   0    7.76    3.51
 -10  15   1   14.63    7.33
 -10  15  -1   13.46    4.40
 -10 -15  -1   11.08    5.22
 -10 -15   1    7.48    4.54
  10 -15  -1    6.42    3.71
  10 -15   1   12.55    7.00
 -10 -15   1    6.85    2.79
 -10  15   2    6.01    4.78
 -10  15  -2    8.05    2.85
 -10 -15  -2   -0.88    4.65
 -10 -15   2    6.49    3.47
  10 -15  -2   11.92    6.21
  10 -15   2   16.36    7.14
 -10 -15   2    9.46    4.01
 -10  15   3    2.00    2.74
 -10  15  -3   11.66    4.32
 -10 -15  -3   11.92    6.25
 -10 -15   3   14.26    4.50
  10 -15  -3   10.19    4.70
  10 -15   3   12.71    7.19
 -10 -15   3    7.69    4.45
 -11   0   0    1.80    3.14
 -11   0   0    2.99    5.42
 -11   0   1    8.65    4.15
 -11   0  -1    5.73    2.57
 -11   0   1    5.19    2.56
 -11   0  -1    9.36    4.84
 -11   0  -2  378.56   20.64
  11   0  -2  361.62   20.08
 -11   0   2  372.36   20.29
 -11   0   2  376.28   20.75
 -11   0  -3   -0.76    2.31
  11   0  -3    5.59    4.07
 -11   0  -3    7.59    3.61
 -11   0   3    7.46    3.22
  11   0  -4   11.68    4.82
 -11   0   4    9.60    2.72
 -11   0  -4   13.94    3.01
 -11   0   4   15.79    4.30
  11   0  -5    1.47    2.29
 -11   0  -5    2.15    3.18
 -11   0   5    4.51    2.40
 -11   0  -6    4.45    2.80
  11   0  -6    9.65    5.68
 -11   0  -6    3.52    2.81
 -11   0   6    4.45    2.07
 -11   0  -7    7.74    4.83
  11   0  -7    6.47    3.41
 -11   0  -7    7.50    3.97
 -11   0   7    5.13    2.88
 -11   0  -8    4.25    3.97
  11   0  -8    6.46    4.18
 -11   0  -8    4.35    2.82
 -11   0   8    1.41    1.99
 -11   0  -9    2.69    1.24
  11   0  -9   14.63    5.50
 -11   0  -9   17.25    5.36
 -11   0   9    5.17    3.21
 -11   0 -10   49.44   11.68
  11   0 -10   63.93   10.50
 -11   0 -10   41.74    8.13
 -11   0  10   36.78   10.15
 -11   0 -11    6.71    3.53
  11   0 -11   12.54    3.98
 -11   0 -11    4.25    2.74
 -11   0  11    5.09    3.25
 -11   0 -12    6.58    3.53
  11   0 -12   -3.71    4.64
 -11   0 -12    5.65    4.10
 -11   0  12    0.58    1.33
 -11   0 -13   10.36    5.06
  11   0 -13   12.33    7.25
 -11   0 -13   11.22    6.46
 -11   0  13    3.60    2.68
 -11   0 -14   92.75   29.15
  11   0 -14   78.35   16.61
 -11   0 -14   88.45   24.91
 -11   0  14   88.53   28.97
 -11   0 -15    1.04    3.39
  11   0 -15    1.24    2.54
 -11   0 -15    5.64    3.66
 -11   0  15    3.00    2.89
 -11   0 -16    3.56    3.01
  11   0 -16   15.36   10.42
 -11   0 -16    3.05    2.49
 -11   0  16    3.34    3.21
 -11  -1   0    4.53    2.31
 -11   1   0    3.29    3.04
 -11  -1   0   11.60    4.77
 -11   1   1  121.32   12.95
 -11  -1  -1  157.48   21.13
  11   1  -1  160.66   14.52
 -11   1   1  132.14   15.83
 -11   1  -1  162.76   18.67
 -11  -1   1  138.01   21.82
 -11  -1  -1  146.74   21.71
 -11  -1   1  157.80   32.91
 -11   1   2  119.20   23.94
 -11  -1  -2  131.77    9.31
 -11   1  -2  139.66   26.88
  11   1  -2  127.71   15.47
 -11   1   2  118.94    8.41
 -11  -1   2  147.98    9.72
 -11  -1   2  140.91   23.75
 -11  -1  -3    5.15    2.90
 -11   1  -3    5.18    2.81
  11   1  -3    2.11    1.15
  11  -1  -3    2.91    2.49
 -11   1  -3    0.74    3.84
 -11  -1  -3    1.98    2.77
 -11   1   3    4.70    1.84
 -11  -1   3    2.57    1.86
 -11  -1  -4    7.07    3.03
 -11   1  -4    4.16    1.93
  11   1  -4    3.53    1.57
  11  -1  -4    6.48    3.40
 -11  -1   4    7.29    2.50
 -11   1  -4    5.73    3.28
 -11  -1  -4    8.38    3.38
 -11   1   4    8.70    3.35
 -11  -1   4    7.61    3.13
 -11   1  -5    5.99    4.52
 -11  -1  -5    4.03    2.84
  11   1  -5    0.52    1.66
  11  -1  -5    6.69    3.16
 -11  -1   5    1.81    1.38
 -11   1  -5    4.70    2.41
 -11  -1  -5    5.65    2.07
 -11   1   5    4.04    1.64
 -11  -1   5    4.46    2.57
 -11   1  -6   66.94   14.89
 -11  -1  -6   67.61   15.77
  11   1  -6   62.64   11.04
  11  -1  -6   67.02   13.33
 -11   1  -6   64.95   14.98
 -11  -1  -6   47.82   10.44
 -11   1   6   52.85   13.63
 -11  -1   6   63.65   18.03
 -11   1  -7    7.75    3.90
  11   1  -7    5.32    4.42
  11  -1  -7    5.26    2.62
 -11   1  -7    5.15    2.33
 -11  -1  -7   11.17    4.36
 -11   1   7    4.37    2.40
 -11  -1   7    6.63    4.65
 -11   1  -8    3.87    2.97
  11   1  -8    9.63    3.46
  11  -1  -8    8.48    4.20
 -11   1  -8    4.49    3.50
 -11  -1  -8    4.11    3.71
 -11   1   8    3.51    2.66
 -11  -1   8    8.51    3.57
 -11   1  -9   15.06    6.49
 -11  -1  -9    9.03    3.24
  11   1  -9   13.99    6.78
  11  -1  -9    7.45    3.21
 -11   1  -9    9.21    3.98
 -11  -1  -9    4.05    2.88
 -11   1   9    9.44    4.16
 -11  -1   9    8.15    3.55
 -11   1 -10   29.61    6.34
 -11  -1 -10   32.06   10.18
  11   1 -10   39.47   11.91
  11  -1 -10   46.74   13.93
 -11   1 -10   40.78    7.11
 -11  -1 -10   47.12   10.58
 -11   1  10   44.46   14.45
 -11  -1  10   43.91   12.51
 -11   1 -11   53.56    9.92
 -11  -1 -11   57.29    9.27
  11   1 -11   39.14   16.15
  11  -1 -11   53.73    8.69
 -11   1 -11   63.27   12.14
 -11  -1 -11   58.63   13.15
 -11   1  11   53.04   13.74
 -11  -1  11   34.42    8.07
 -11   1 -12    2.37    3.73
 -11  -1 -12    4.57    2.44
  11   1 -12   14.87    4.31
  11  -1 -12   11.81    4.31
 -11   1 -12   10.46    4.47
 -11  -1 -12    5.45    3.38
 -11   1  12    1.23    2.08
 -11  -1  12    6.98    4.87
 -11   1 -13   34.17    7.40
 -11  -1 -13   28.96    6.05
  11   1 -13   26.80    6.64
  11  -1 -13   26.68    8.91
 -11   1 -13   21.90   12.40
 -11  -1 -13   29.18    5.85
 -11   1  13   25.72    7.85
 -11  -1  13   27.24    7.49
 -11   1 -14   20.38    5.81
 -11  -1 -14   20.64    6.19
  11   1 -14   10.29    6.02
  11  -1 -14   18.38    4.13
 -11   1 -14   11.34    5.09
 -11  -1 -14    9.42    4.51
 -11   1  14   15.42    5.38
 -11  -1  14   21.56    7.05
 -11   1 -15   21.10    6.93
 -11  -1 -15    8.45    3.84
  11   1 -15    6.37    6.05
  11  -1 -15    9.54    5.09
 -11   1 -15   13.91    6.62
 -11  -1 -15   11.69    3.85
 -11   1  15    5.15    3.49
 -11  -1  15   10.44    4.27
 -11   1 -16   17.33    6.55
 -11  -1 -16   15.65    6.74
  11   1 -16    7.80    3.52
  11  -1 -16   17.43    7.24
 -11   1 -16    8.20    3.04
 -11  -1 -16    5.49    3.48
 -11   1  16    4.48    4.56
 -11  -1  16   13.96    6.62
 -11  -2   0    5.88    2.60
 -11   2   0   10.86    4.51
 -11   2   0    4.07    4.55
 -11  -2   0   14.36    6.29
 -11  -2  -1   20.48    6.96
 -11   2   1   19.73    7.27
 -11   2  -1   17.70    5.70
  11   2  -1   18.99    6.44
 -11   2  -1   17.69    6.42
 -11  -2   1   22.76    5.97
 -11  -2  -1   19.80    7.31
 -11  -2   1   20.81    7.81
 -11   2   2   10.90    4.76
 -11  -2  -2    7.82    2.37
 -11   2  -2    2.92    1.86
  11   2  -2    7.10    3.80
 -11  -2   2    9.10    3.45
 -11  -2  -2    6.22    3.91
 -11  -2   2    8.03    5.30
 -11  -2  -3   68.21   10.18
 -11   2  -3   59.97   10.10
  11   2  -3   54.44   10.38
  11  -2  -3   65.76    9.73
 -11   2  -3   63.81   11.00
 -11  -2  -3   61.24   12.68
 -11   2   3   58.26   14.31
 -11  -2   3   56.40   12.61
 -11  -2  -4  194.23    6.61
 -11   2  -4  185.34   13.27
  11   2  -4  188.04   24.29
  11  -2  -4  222.48   17.99
 -11   2  -4  202.45   31.84
 -11  -2   4  208.44    7.55
 -11  -2  -4  157.97   27.09
 -11   2   4  180.94    9.82
 -11  -2   4  206.73   35.57
 -11   2  -5   25.67    6.54
 -11  -2  -5   31.42    6.34
  11   2  -5   22.41    5.38
  11  -2  -5   25.48    7.06
 -11   2  -5   15.95    4.53
 -11  -2   5   18.90    4.85
 -11  -2  -5   28.84    8.93
 -11   2   5   25.74    5.79
 -11  -2   5   21.97    5.51
 -11   2  -6    2.17    2.55
 -11  -2  -6    1.82    1.83
  11   2  -6    1.40    2.33
 -11  -2   6    1.34    1.18
 -11   2  -6    2.55    2.30
 -11  -2  -6    1.98    2.75
 -11   2   6    3.34    2.02
 -11  -2   6    1.23    1.11
 -11   2  -7   19.14    4.57
 -11  -2  -7   21.66    7.05
  11   2  -7   14.83    5.05
  11  -2  -7   22.18    5.27
 -11   2  -7   15.53    5.48
 -11  -2  -7   29.10    8.68
 -11   2   7   12.78    3.81
 -11  -2   7   24.93    5.48
 -11   2  -8  225.08   11.95
 -11  -2  -8  235.03    9.59
  11   2  -8  219.08   18.43
  11  -2  -8  211.85   26.93
 -11   2  -8  200.81   38.21
 -11  -2  -8  174.34   27.52
 -11  -2   8  203.25   30.11
 -11   2  -9   52.02   13.50
  11   2  -9   34.89    6.67
  11  -2  -9   35.30   11.70
 -11   2  -9   42.66    9.07
 -11  -2  -9   48.11    7.78
 -11  -2   9   39.74   11.30
 -11   2 -10   16.48    5.88
 -11  -2 -10    7.51    1.72
  11   2 -10   10.70    4.25
  11  -2 -10   23.87    3.89
 -11   2 -10   20.20    4.67
 -11  -2 -10   16.37    6.27
 -11  -2  10   16.25    4.77
 -11   2 -11    6.03    3.06
 -11  -2 -11    4.52    2.15
  11   2 -11    6.66    2.88
  11  -2 -11   -2.39    4.75
 -11   2 -11    7.01    3.39
 -11  -2 -11   15.60    4.97
 -11  -2  11    3.51    3.02
 -11   2 -12   10.25    3.62
 -11  -2 -12    8.41    3.96
  11   2 -12    1.01    2.18
  11  -2 -12   13.18    6.55
 -11   2 -12    4.74    1.91
 -11  -2 -12   16.64    4.58
 -11  -2  12   12.34    4.42
 -11   2 -13    4.60    1.76
 -11  -2 -13    8.93    3.93
  11   2 -13    6.78    4.40
  11  -2 -13    5.05    3.64
 -11   2 -13    6.95    3.74
 -11  -2 -13    7.32    3.70
 -11   2  13   11.10    3.69
 -11  -2  13    5.10    3.29
 -11   2 -14    7.00    4.32
 -11  -2 -14    2.38    1.65
  11   2 -14    6.67    3.41
  11  -2 -14    2.71    4.15
 -11   2 -14    2.65    2.95
 -11  -2 -14    5.36    3.49
 -11   2  14    6.37    3.66
 -11  -2  14    5.14    2.69
 -11   2 -15   -0.19    1.64
 -11  -2 -15    7.39    2.79
  11   2 -15    4.01    2.77
  11  -2 -15   14.22    5.43
 -11   2 -15    5.71    2.73
 -11  -2 -15    9.80    5.20
 -11   2  15    6.09    3.44
 -11  -2  15    7.69    2.63
 -11   2 -16   17.52    5.02
 -11  -2 -16   22.94    8.88
  11   2 -16   17.09    5.72
  11  -2 -16   17.57    6.53
 -11   2 -16   23.50    7.85
 -11  -2 -16   16.85    6.78
 -11  -2  16   28.21    8.45
 -11   2  16    9.48    3.71
 -11   3   0  177.21   12.03
  11   3   0  170.79   10.41
 -11  -3   0  180.37   29.57
 -11  -3   0  151.70   19.89
 -11  -3  -1    3.60    1.29
 -11   3   1    9.90    5.15
 -11   3  -1    9.69    3.89
  11   3  -1    7.55    2.86
 -11  -3   1   13.76    5.14
 -11  -3  -1   11.51    4.47
 -11  -3   1   16.26    7.34
 -11   3   2    5.60    3.64
 -11  -3  -2    5.37    2.49
 -11   3  -2   12.32    4.59
  11   3  -2    3.98    1.93
 -11  -3   2    3.40    2.06
 -11  -3  -2    6.21    2.18
 -11   3   3  106.49   18.64
 -11  -3  -3  106.19    7.05
 -11   3  -3  112.17   17.34
  11   3  -3   79.14   11.05
 -11   3  -3  109.74   16.55
 -11  -3  -3   89.59   15.68
 -11  -3  -4   70.32   14.85
 -11   3  -4   62.61   12.83
  11   3  -4   47.89   10.92
  11  -3  -4   60.72   16.39
 -11   3  -4   61.50   11.01
 -11  -3   4   59.00    4.37
 -11  -3  -4   58.31   14.76
 -11   3   4   55.07   11.32
 -11  -3   4   51.71    9.40
 -11   3  -5   27.72    6.96
 -11  -3  -5   12.45    5.05
  11   3  -5   12.49    3.82
  11  -3  -5   15.56    4.85
 -11   3  -5   18.68    4.24
 -11  -3   5   23.28    5.69
 -11  -3  -5   11.05    2.79
 -11   3   5   11.57    4.95
 -11  -3   5   19.66    6.40
 -11   3  -6    8.59    3.59
 -11  -3  -6    7.33    2.15
  11   3  -6    7.80    3.24
  11  -3  -6   13.01    3.64
 -11   3  -6    4.84    3.75
 -11  -3   6    5.43    2.12
 -11  -3  -6    6.85    3.54
 -11   3   6    4.43    2.31
 -11  -3   6    7.10    3.53
 -11   3  -7   30.37    8.62
 -11  -3  -7   31.08    8.61
  11   3  -7   28.84    6.52
  11  -3  -7   40.32   10.25
 -11   3  -7   38.37    7.69
 -11  -3   7   28.13    6.11
 -11  -3  -7   36.96    6.23
 -11   3   7   27.61    8.12
 -11  -3   7   38.26    9.99
 -11   3  -8   71.28   14.63
 -11  -3  -8   51.07   11.34
  11   3  -8   37.84   12.17
  11  -3  -8   67.08    9.21
 -11   3  -8   51.13   10.85
 -11  -3  -8   46.05   15.00
 -11   3   8   48.27   13.05
 -11  -3   8   57.12   12.63
 -11   3  -9   54.34   11.75
 -11  -3  -9   40.65    8.60
  11   3  -9   41.36    9.07
  11  -3  -9   58.62   11.77
 -11   3  -9   46.87    7.15
 -11  -3  -9   39.59    9.15
 -11   3   9   39.85    8.35
 -11  -3   9   54.88   14.27
 -11   3 -10    4.71    6.04
 -11  -3 -10    6.00    1.87
  11   3 -10    4.47    2.65
  11  -3 -10    6.80    2.80
 -11   3 -10    3.56    3.53
 -11  -3 -10    4.86    2.27
 -11   3  10    3.10    1.38
 -11  -3  10    0.39    2.05
 -11   3 -11   26.14    8.07
  11   3 -11   10.43    5.11
  11  -3 -11   16.66    4.28
 -11   3 -11   24.51    7.59
 -11  -3 -11   18.36    8.52
 -11   3  11   13.81    3.34
 -11  -3  11   20.83    5.18
 -11   3 -12   63.84   15.92
 -11  -3 -12   69.65   14.16
  11   3 -12   38.13   11.01
  11  -3 -12   79.03   23.63
 -11   3 -12   71.61   15.78
 -11  -3 -12   78.84   14.65
 -11   3  12   54.83   12.80
 -11  -3  12   76.16   15.41
 -11   3 -13    6.55    4.60
 -11  -3 -13   11.91    4.45
  11   3 -13    6.85    3.89
  11  -3 -13   11.02    5.63
 -11   3 -13    0.50    2.45
 -11  -3 -13    9.89    4.80
 -11   3  13    3.92    3.37
 -11  -3  13    4.61    3.61
 -11   3 -14    9.42    3.06
 -11  -3 -14    4.97    3.33
  11   3 -14    2.53    2.77
  11  -3 -14   -4.68    4.55
 -11   3 -14    2.95    2.67
 -11  -3 -14    4.98    2.41
 -11  -3  14    2.43    1.81
 -11   3 -15   23.49    9.33
 -11  -3 -15   17.53    6.60
  11   3 -15    7.82    3.20
  11  -3 -15   15.75    7.99
 -11   3 -15   18.36    6.88
 -11  -3 -15   19.75    5.38
 -11  -3  15   12.30    3.32
 -11   4   0   23.96    5.82
  11   4   0   13.03    3.45
 -11  -4   0   21.57    6.01
 -11  -4   0   16.47    5.76
 -11   4   1  153.82   30.19
 -11   4  -1  141.85   24.86
  11   4  -1  127.00    6.80
  11   4   1  127.77    3.98
 -11  -4   1  141.47   18.43
 -11  -4  -1  135.76   15.05
 -11  -4   1  132.20   22.96
 -11   4   2   85.22   14.58
 -11   4  -2   86.37   19.40
  11   4  -2   65.41    4.97
 -11  -4   2   66.38   10.60
 -11  -4  -2   95.81   17.80
 -11  -4   2   69.50   13.44
 -11   4   3  129.24   23.06
 -11  -4  -3  134.08    8.53
 -11   4  -3  136.64   29.41
  11   4  -3  100.43   10.69
 -11  -4  -3  108.03   21.93
 -11  -4   3  128.95   13.98
 -11  -4  -4   22.60    6.80
 -11   4  -4   18.95    4.84
  11   4  -4   14.20    5.51
  11  -4  -4   41.72    7.89
 -11  -4   4   22.25    5.07
 -11  -4  -4   18.23    3.75
 -11  -4   4   21.44    5.78
 -11  -4  -5   71.18    8.36
 -11   4  -5   64.49   17.46
  11   4  -5   48.15    9.66
  11  -4  -5   70.16   15.50
 -11  -4   5   59.87   12.13
 -11  -4  -5   59.19   12.14
 -11   4   5   45.46    9.51
 -11   4  -6   22.66    6.90
 -11  -4  -6   20.93    5.12
  11   4  -6   13.45    4.33
  11  -4  -6   21.33    4.92
 -11  -4   6   15.23    5.79
 -11  -4  -6   13.88    5.71
 -11   4   6   15.26    4.99
 -11  -4   6   28.54    7.10
 -11   4  -7   12.49    4.82
 -11  -4  -7    9.98    3.58
  11   4  -7    7.75    2.50
  11  -4  -7   24.57    8.48
 -11  -4   7    8.18    3.15
 -11  -4  -7   19.97    7.61
  11  -4  -7   11.94    5.21
 -11   4   7    9.63    3.32
 -11  -4   7   11.63    5.84
 -11   4  -8   43.79    8.09
 -11  -4  -8   27.50    6.56
  11   4  -8   28.51    7.43
  11  -4  -8   33.80    8.65
 -11  -4  -8   39.14    8.26
  11  -4  -8   24.90    6.58
 -11   4   8   34.34    9.49
 -11  -4   8   30.53    6.82
 -11   4  -9   80.21   20.22
 -11  -4  -9   57.76    8.78
  11  -4  -9   78.23   12.22
 -11  -4  -9   71.10   12.99
 -11   4   9   53.28    9.60
 -11  -4   9   69.83   18.48
 -11   4 -10   42.12    7.86
 -11  -4 -10   35.60   13.61
  11   4 -10   35.55   10.85
  11  -4 -10   37.95   14.16
 -11  -4 -10   44.66   10.16
 -11   4  10   30.80   10.40
 -11  -4  10   49.18   14.07
 -11   4 -11   48.73    8.74
 -11  -4 -11   40.18   12.43
  11   4 -11   53.86    5.73
  11  -4 -11   51.32   19.56
 -11  -4 -11   61.92   10.67
 -11   4  11   35.24    9.98
 -11  -4  11   59.00   15.85
 -11   4 -12    3.19    3.57
  11   4 -12    7.34    2.65
  11  -4 -12   10.15    5.58
 -11  -4 -12    7.21    3.85
 -11  -4  12   10.25    4.47
 -11   4 -13   41.37   11.07
 -11  -4 -13   15.86    8.95
  11   4 -13   33.76    7.95
  11  -4 -13   51.19   12.10
 -11  -4 -13   43.77    7.74
 -11  -4  13   33.45   10.23
 -11   4 -14   13.70    5.72
 -11  -4 -14    6.55    5.07
  11   4 -14    6.55    3.70
  11  -4 -14   23.40    8.14
 -11  -4 -14    8.27    3.35
 -11  -4  14    9.68    5.10
 -11   4 -15   24.76    6.03
 -11  -4 -15   17.48    6.55
  11   4 -15   18.69    6.74
  11  -4 -15   26.86    7.17
 -11  -4 -15   31.30    9.60
 -11  -4  15   19.06    7.88
 -11   5   0   61.74   10.27
 -11  -5   0   63.79   14.17
 -11  -5   0   58.05   10.63
 -11   5   1   49.93   10.65
 -11   5  -1   49.45    7.86
 -11  -5   1   38.85    5.30
 -11  -5  -1   38.76   11.72
 -11  -5   1   46.29    8.75
 -11   5   2   29.18    7.47
 -11   5  -2   28.31    6.00
 -11  -5   2   17.31    4.67
 -11  -5  -2   18.10    4.27
 -11  -5   2   11.23    3.13
 -11   5   3   85.34   18.35
 -11   5  -3   84.85   17.59
 -11  -5   3   88.78   19.29
 -11   5  -4   13.79    5.01
  11   5  -4   11.68    3.93
  11  -5  -4   21.59    4.40
 -11  -5   4   10.79    3.16
 -11  -5  -4   16.32    4.59
 -11  -5   4   21.35    4.59
 -11  -5  -5    9.51    3.52
 -11   5  -5   17.36    4.72
  11   5  -5    7.19    2.37
  11  -5  -5   22.95    7.07
 -11  -5   5   10.42    3.27
 -11  -5  -5   16.82    4.98
 -11  -5   5    7.23    4.38
 -11   5  -6   22.29    6.57
 -11  -5  -6   13.21    5.36
  11   5  -6   11.83    5.79
  11  -5  -6   14.90    5.06
 -11  -5   6   17.60    4.58
 -11  -5  -6   19.86    4.42
 -11   5   6   12.61    4.35
 -11  -5   6   23.39    5.30
 -11   5  -7    0.79    2.01
 -11  -5  -7    2.85    2.38
  11   5  -7    0.19    1.49
  11  -5  -7    9.34    4.34
 -11  -5   7    3.20    1.49
 -11  -5  -7    2.91    4.90
  11  -5  -7    5.89    4.37
 -11   5   7    3.48    1.81
 -11  -5   7    7.61    3.31
 -11   5  -8    6.73    5.05
 -11  -5  -8    4.82    3.04
  11   5  -8    2.25    1.37
  11  -5  -8   10.79    6.66
  11  -5  -8    0.68    2.13
 -11  -5   8    3.69    3.73
 -11   5  -9   50.37    9.97
 -11  -5  -9   23.61    8.69
  11   5  -9   28.48    8.19
  11  -5  -9   57.27   17.26
 -11  -5  -9   44.16    9.93
 -11  -5   9   44.92   14.06
 -11   5 -10   39.42   12.85
 -11  -5 -10   26.43    7.49
  11   5 -10   22.64    6.80
  11  -5 -10   21.94    8.09
 -11  -5 -10   27.66    7.67
 -11  -5  10   26.67    8.82
 -11   5 -11   11.66    4.31
 -11  -5 -11   10.41    4.40
  11   5 -11   14.88    4.95
  11  -5 -11   20.39    6.97
 -11  -5 -11   14.72    3.87
 -11  -5  11   16.15    5.10
 -11   5 -12   45.26    9.43
 -11  -5 -12   27.50    6.31
  11   5 -12   23.60    8.42
  11  -5 -12   55.40   13.38
 -11  -5 -12   52.41   16.65
 -11  -5  12   45.68   15.17
 -11   5 -13   18.74    8.14
 -11  -5 -13   18.58    3.89
  11   5 -13   11.12    3.81
  11  -5 -13   22.14    4.63
 -11  -5 -13   22.40    6.50
 -11  -5  13   23.64    6.22
 -11   5 -14    4.86    3.10
  11   5 -14    6.98    6.00
  11  -5 -14   15.05    6.24
 -11  -5 -14    5.24    2.91
 -11  -5  14   13.81    5.93
 -11   5 -15   15.48    7.09
  11  -5 -15   22.58    6.13
 -11  -5 -15   11.11    8.19
 -11  -6   0    1.45    2.31
 -11  -6   0    7.27    4.45
 -11  -6  -1    4.20    2.62
 -11  -6   1    6.62    2.47
 -11  -6   1    6.98    2.83
 -11  -6   2   12.03    3.80
 -11  -6  -2   11.20    4.39
 -11  -6   2    9.65    3.85
 -11  -6   3   19.26    6.61
 -11  -6   3   23.15   12.58
 -11   6   4    7.17    3.96
 -11   6  -4    5.75    3.61
 -11  -6   4    3.41    2.85
 -11  -6  -4   12.63    5.59
 -11  -6   4   -2.46    3.67
 -11   6  -5   96.10   17.54
  11  -6  -5   92.00   16.20
 -11  -6   5   76.44   16.11
 -11  -6  -5  106.89   18.71
 -11  -6   5  103.86   16.42
 -11   6  -6    5.60    4.19
  11  -6  -6    8.96    4.17
 -11  -6   6    5.40    2.11
 -11  -6  -6    5.61    3.37
  11  -6  -6    4.32    3.62
 -11  -6   6    5.81    2.86
 -11   6  -7  163.23   27.46
  11  -6  -7  194.06   28.90
 -11  -6   7  141.51    7.30
 -11  -6  -7  188.84   21.05
  11  -6  -7  141.04   17.27
 -11  -6   7  187.16   29.40
 -11   6  -8    1.71    3.25
  11  -6  -8   13.29    5.45
 -11  -6  -8    6.06    3.16
  11  -6  -8    2.19    1.90
 -11  -6   8    6.08    3.14
 -11   6  -9   46.40   14.08
  11  -6  -9   48.41   12.78
 -11  -6  -9   37.38    6.89
 -11  -6   9   51.08   10.91
 -11   6 -10    5.45    3.11
  11  -6 -10    7.81    5.24
 -11  -6 -10    5.39    3.13
 -11  -6  10    6.60    4.88
 -11   6 -11    6.43    3.66
  11  -6 -11    6.34    4.17
 -11  -6 -11   10.95    4.99
 -11  -6  11    1.60    2.84
 -11   6 -12    4.94    2.18
  11  -6 -12    4.13    3.10
 -11  -6 -12    5.45    3.69
 -11  -6  12    5.48    3.66
 -11   6 -13    5.46    3.40
  11  -6 -13    7.61    3.87
 -11  -6 -13    6.47    3.57
 -11  -6  13   12.04    5.08
 -11   6 -14    4.49    4.32
  11  -6 -14   17.07    9.06
 -11  -6 -14    0.70    2.96
 -11  -6  14    5.25    3.35
 -11   7   0   23.13    7.17
 -11  -7   0   21.51    7.30
 -11  -7   0   25.18    5.87
 -11   7   1   48.75   11.63
 -11   7  -1   49.62   10.70
 -11  -7  -1   47.74    6.66
 -11  -7   1   56.49   10.18
 -11  -7  -1   55.27   11.36
 -11  -7   1   45.36   13.68
 -11   7   2   17.69    7.13
 -11   7  -2   15.66    6.42
 -11  -7  -2   20.18    4.63
 -11  -7   2   26.38    7.10
 -11  -7   2   21.35    5.26
 -11   7   3   27.64    6.62
 -11   7  -3   32.73    6.86
 -11  -7  -3   34.82    9.02
 -11  -7   3   36.37    6.90
 -11  -7   3   22.68    5.55
 -11   7   4   -0.85    4.36
 -11   7  -4    2.92    3.75
 -11  -7  -4    8.11    4.17
 -11  -7   4    5.78    3.98
 -11   7  -5    6.83    3.45
  11  -7  -5    9.21    3.71
 -11  -7  -5    6.62    5.14
 -11  -7   5    0.81    1.52
  11  -7  -5    2.77    2.00
 -11  -7   5    2.81    4.31
 -11   7  -6  108.17   19.57
  11  -7  -6  103.98   18.40
 -11  -7  -6  116.95   17.53
 -11  -7   6   79.84    4.52
  11  -7  -6   75.01   17.36
 -11  -7   6   90.82   23.86
 -11   7  -7    7.32    4.32
  11  -7  -7    6.58    5.46
 -11  -7   7    5.42    2.43
 -11  -7  -7    6.95    2.65
  11  -7  -7    6.36    2.62
 -11  -7   7   -1.19    3.80
 -11   7  -8   11.21    5.65
  11  -7  -8    8.62    3.46
 -11  -7  -8    7.05    2.48
  11  -7  -8    5.04    4.52
 -11  -7   8   10.29    5.30
 -11   7  -9    9.37    4.92
  11  -7  -9    9.70    3.58
 -11  -7  -9    7.49    4.80
 -11  -7   9   19.04    6.43
 -11   7 -10   20.21    6.62
  11  -7 -10   28.09    7.19
 -11  -7 -10   20.26    5.70
 -11  -7  10   18.72    4.95
 -11   7 -11   10.91    3.16
  11  -7 -11    7.19    4.17
 -11  -7 -11    5.14    3.10
 -11  -7  11    3.27    3.60
 -11   7 -12    5.67    3.03
  11  -7 -12   10.63    3.85
 -11  -7 -12    5.81    2.62
 -11  -7  12    6.13    2.43
 -11   7 -13   13.87    4.42
  11  -7 -13   11.05    5.10
 -11  -7 -13   13.99    4.59
 -11  -7  13   10.96    5.10
 -11   7 -14    4.98    5.15
  11  -7 -14   10.01    4.61
 -11  -7 -14    4.58    3.26
 -11   8   0   12.76    4.06
 -11  -8   0    8.89    4.19
 -11  -8   0    6.27    3.16
 -11   8   1   74.39    8.39
 -11   8  -1   63.74   13.56
 -11  -8  -1   68.98   16.65
 -11  -8   1   47.50   15.48
 -11  -8  -1   60.81   15.76
 -11  -8   1   69.97   12.49
 -11   8   2   44.01    9.54
 -11   8  -2   36.14   11.53
 -11  -8  -2   47.38   12.73
 -11  -8   2   40.81    8.94
 -11  -8   2   47.72   13.43
 -11   8   3   87.65   16.71
 -11   8  -3   93.73   19.72
 -11  -8  -3   72.54   15.32
 -11  -8   3   78.10   20.22
 -11  -8   3   98.22   23.05
 -11   8   4    0.27    1.84
 -11   8  -4    4.94    4.16
 -11  -8  -4   -0.14    3.32
  11  -8  -4    7.61    2.90
 -11  -8   4    4.09    4.25
 -11   8  -5    5.32    3.32
  11  -8  -5   12.85    6.13
 -11  -8  -5    6.10    2.89
 -11  -8   5    3.38    2.76
  11  -8  -5    1.89    1.97
 -11  -8   5    5.70    3.29
 -11   8  -6    5.79    2.80
  11  -8  -6    5.00    4.94
 -11  -8  -6    8.66    4.17
 -11  -8   6    5.70    2.48
  11  -8  -6    5.38    2.75
 -11  -8   6    1.12    4.50
 -11   8  -7    6.16    4.66
  11  -8  -7   14.27    6.96
 -11  -8  -7    1.35    2.77
 -11  -8   7    2.51    1.87
  11  -8  -7    6.78    2.27
 -11  -8   7    5.87    3.63
 -11   8  -8   12.68    6.28
  11  -8  -8   14.89    6.11
 -11  -8  -8   10.64    3.89
  11  -8  -8   14.01    7.38
 -11  -8   8    2.09    2.67
 -11   8  -9   42.37    9.92
  11  -8  -9   36.87   13.41
 -11  -8  -9   37.93   10.12
 -11  -8   9   34.23   10.47
 -11   8 -10   15.72    3.94
  11  -8 -10   24.91    7.87
 -11  -8 -10   23.07    5.98
 -11  -8  10   12.57    6.35
 -11   8 -11   23.79    6.22
  11  -8 -11   45.11   12.84
 -11  -8 -11   26.64    5.95
 -11  -8  11   35.09   11.97
 -11   8 -12    2.95    3.21
  11  -8 -12    4.55    5.25
 -11  -8 -12   14.98   10.24
 -11  -8  12    4.05    2.61
 -11   8 -13    8.75    3.52
  11  -8 -13   17.69   11.28
 -11  -8 -13    3.64    3.28
 -11  -8  13    7.74    7.02
 -11   9   0  125.74   21.16
 -11  -9   0  126.98   31.81
 -11  -9   0  115.25   22.16
 -11   9   1   25.18    6.04
 -11   9  -1   18.82    6.70
 -11  -9  -1   13.45    6.54
 -11  -9   1   10.39    5.52
 -11  -9  -1   25.27    5.11
 -11  -9   1   24.88    6.13
 -11   9   2   11.13    4.24
 -11   9  -2   15.31    4.76
 -11  -9  -2   22.45    5.05
 -11  -9   2   19.43    4.46
 -11  -9   2    8.89    5.73
 -11   9   3   17.98    5.21
 -11   9  -3   19.68    5.50
 -11  -9  -3   18.46    6.43
 -11  -9   3   19.15    4.75
  11  -9  -3   21.56    6.08
 -11  -9   3   10.48    5.47
 -11   9   4   18.81    7.46
 -11   9  -4    8.32    7.23
 -11  -9  -4   19.14    6.04
 -11  -9   4   10.13    5.29
  11  -9  -4   21.45    6.41
 -11  -9   4   19.22    5.19
 -11   9  -5   32.31    8.51
  11  -9  -5   43.87    9.10
 -11  -9  -5   37.13   10.50
  11  -9  -5   21.59    6.39
 -11  -9   5   35.72   11.56
 -11   9  -6   13.82    6.61
  11  -9  -6   26.68   10.02
 -11  -9  -6    8.98    4.78
 -11  -9   6    7.82    3.46
  11  -9  -6    6.10    4.95
 -11  -9   6   12.92    3.24
 -11   9  -7   14.56    6.24
  11  -9  -7   16.72    5.88
 -11  -9  -7   10.08    5.17
  11  -9  -7   13.68    5.31
 -11  -9   7   15.69    6.30
 -11   9  -8   13.81    7.62
  11  -9  -8    9.30    5.43
 -11  -9  -8    7.78    3.56
  11  -9  -8    8.36    4.68
 -11  -9   8    8.51    4.61
 -11   9  -9    8.16    5.00
  11  -9  -9    7.68    4.44
 -11  -9  -9   18.77    4.46
 -11  -9   9   24.44    5.40
 -11   9 -10    8.14    4.11
  11  -9 -10   16.51    7.74
 -11  -9 -10    9.48    2.81
 -11  -9  10   -1.96    3.76
 -11   9 -11    5.24    2.79
  11  -9 -11    7.99    3.22
 -11  -9 -11    4.92    4.30
 -11  -9  11    7.33    3.25
 -11   9 -12   24.64   13.48
  11  -9 -12   23.89    8.71
 -11  -9 -12   25.78   10.98
 -11  -9  12   24.48    8.76
 -11  10   0    3.03    1.76
 -11 -10   0    6.43    3.26
 -11 -10   0    5.09    3.53
 -11  10   1    3.56    4.75
 -11  10  -1    4.24    4.85
 -11 -10  -1    6.86    2.88
 -11 -10   1    5.91    2.48
 -11 -10  -1    3.46    3.96
 -11 -10   1    9.29    3.91
 -11  10   2    4.99    6.27
 -11  10  -2    1.23    1.53
 -11 -10  -2    9.50    4.90
 -11 -10   2    3.06    2.94
  11 -10  -2    5.52    3.60
 -11 -10   2    7.84    3.44
 -11  10   3   34.25    8.30
 -11  10  -3   19.84   10.40
 -11 -10  -3   25.27    8.71
 -11 -10   3   24.51    8.39
  11 -10  -3   20.50    3.83
 -11 -10   3   24.40    9.27
 -11  10   4  119.20   31.83
 -11  10  -4  117.10   30.43
 -11 -10  -4  125.76   34.20
 -11 -10   4  104.46   19.60
  11 -10  -4  103.22   32.04
 -11 -10   4  105.18   21.30
 -11  10  -5    8.22    3.49
  11 -10  -5   17.14    4.02
 -11 -10  -5    9.62    4.82
  11 -10  -5   11.13    4.90
 -11 -10   5    9.38    4.22
 -11  10  -6    9.86    4.01
  11 -10  -6    9.90    4.94
 -11 -10  -6    7.98    4.72
 -11 -10   6    6.56    2.93
  11 -10  -6    3.72    4.73
 -11 -10   6   21.84   10.13
 -11  10  -7    4.89    2.41
  11 -10  -7    6.58    6.19
 -11 -10  -7   10.46    3.08
  11 -10  -7    5.23    3.15
 -11 -10   7   13.61    7.34
 -11  10  -8   71.42   16.17
  11 -10  -8   81.65   23.23
 -11 -10  -8   69.75   12.05
  11 -10  -8   64.88   16.07
 -11 -10   8   74.75   17.83
 -11  10  -9   12.35    5.99
  11 -10  -9   21.38    8.27
 -11 -10  -9   15.36    6.90
 -11 -10   9   17.60    6.92
 -11  10 -10   10.89    4.86
  11 -10 -10    6.64    3.51
 -11 -10 -10    8.55    4.71
 -11 -10  10    3.15    2.80
 -11  10 -11    1.47    3.89
  11 -10 -11   13.77    4.49
 -11 -10 -11    7.96    5.10
 -11 -10  11    1.92    2.37
 -11  11   0   28.51    6.95
 -11 -11   0   23.12    5.76
 -11 -11   0   33.55    8.23
 -11  11   1   22.03    6.11
 -11  11  -1    8.79    5.09
 -11 -11  -1   20.84    5.01
 -11 -11   1   15.68    5.15
  11 -11  -1   18.98    5.81
 -11 -11  -1   12.09    4.38
 -11 -11   1    7.41    3.16
 -11  11   2   31.80    9.01
 -11  11  -2   25.51    6.31
 -11 -11  -2   30.19    9.14
 -11 -11   2   22.33    5.01
  11 -11  -2   34.95    9.20
 -11 -11   2   27.78    7.26
 -11  11   3   10.56    6.04
 -11 -11  -3    7.80    4.86
 -11 -11   3    6.86    3.31
  11 -11  -3   12.36    9.14
 -11 -11   3   18.93    6.34
 -11  11   4   13.85    6.02
 -11  11  -4   17.59    4.89
 -11 -11  -4   15.30    6.45
 -11 -11   4    5.87    3.39
  11 -11  -4   17.31    7.49
 -11 -11   4   31.65    6.90
 -11  11  -5   12.13    3.99
  11 -11  -5   19.03    6.78
 -11 -11  -5    7.99    3.74
 -11 -11   5   18.17    8.20
  11 -11  -5    7.66    6.63
 -11 -11   5   18.93    7.00
 -11  11  -6    9.91    4.18
  11 -11  -6    8.99    6.88
 -11 -11  -6    7.67    6.22
  11 -11  -6   11.86    7.03
 -11 -11   6   23.19    7.51
 -11  11  -7   23.09    7.78
  11 -11  -7   11.35    4.78
 -11 -11  -7   17.80    5.68
  11 -11  -7    9.22    3.45
 -11 -11   7    9.05    4.75
 -11  11  -8    5.83    5.14
  11 -11  -8   -4.56    5.38
 -11 -11  -8   -0.32    4.14
  11 -11  -8    3.81    4.42
 -11 -11   8    5.37    2.69
 -11  11  -9   25.61    6.01
  11 -11  -9   19.17    5.74
 -11 -11  -9   11.48    5.77
 -11 -11   9   16.29    6.00
 -11  11 -10   25.96    6.57
  11 -11 -10   14.30    5.77
 -11 -11 -10   17.19    6.59
 -11 -11  10   18.42    9.22
 -11  12   0   10.33    4.52
 -11 -12   0   21.87    5.25
  11 -12   0   20.81    9.57
 -11 -12   0   10.99    6.06
 -11  12   1   10.72    3.99
 -11  12  -1    7.08    5.63
 -11 -12  -1    9.87    6.25
 -11 -12   1    9.81    4.78
  11 -12  -1   10.03    5.09
  11 -12   1    4.92    6.28
 -11 -12   1   11.31    4.90
 -11  12   2   42.05   11.80
 -11  12  -2   35.38   12.41
 -11 -12  -2   45.73   14.35
 -11 -12   2   43.23   13.59
  11 -12  -2   38.06    8.72
 -11 -12   2   45.60   10.08
 -11  12   3   27.45   11.84
 -11  12  -3    4.54    2.73
 -11 -12  -3   -1.94    4.21
 -11 -12   3    5.93    4.05
  11 -12  -3    7.26    7.38
 -11 -12   3   -0.49    3.85
 -11  12   4    8.26    3.47
 -11  12  -4    4.81    2.43
 -11 -12  -4    4.09    2.53
 -11 -12   4    4.06    3.30
  11 -12  -4    7.23    3.92
 -11 -12   4    1.48    3.31
 -11  12  -5    2.14    2.11
 -11 -12  -5    5.44    2.95
 -11 -12   5    4.73    2.01
  11 -12  -5   10.67    6.45
 -11 -12   5   -0.98    3.76
 -11  12  -6    3.63    4.60
  11 -12  -6   -2.73    6.40
 -11 -12  -6    6.48    2.75
 -11 -12   6    2.98    2.85
  11 -12  -6   10.30    3.76
 -11 -12   6    8.83    5.59
 -11  12  -7    8.08    5.16
  11 -12  -7   11.15    5.41
 -11 -12  -7    6.29    2.90
  11 -12  -7   10.68    4.18
 -11 -12   7   12.44    5.56
 -11  12  -8    0.55    1.35
  11 -12  -8   15.45    7.67
  11 -12  -8    6.12    3.73
 -11 -12   8    3.96    3.58
  11 -12  -9    5.83    5.85
 -11 -12  -9    8.35    3.08
 -11 -12   9    3.60    2.36
 -11  13   0    2.03    2.30
 -11 -13   0    4.00    3.16
  11 -13   0    7.89    4.09
 -11 -13   0    9.41    5.42
 -11  13   1   28.96    7.03
 -11  13  -1   45.50   10.96
 -11 -13  -1   32.89   14.78
 -11 -13   1   40.34    9.05
  11 -13  -1   25.98   14.65
  11 -13   1   34.97    6.83
 -11 -13   1   23.33    6.54
 -11  13  -2   14.52    3.83
 -11 -13  -2    9.09    3.61
 -11 -13   2   12.84    6.64
  11 -13  -2   10.28    4.31
  11 -13   2    5.09    5.36
 -11  13   3   32.21   11.73
 -11  13  -3   24.03    7.53
 -11 -13  -3   33.25    7.42
 -11 -13   3   24.52    7.60
  11 -13  -3   22.24    7.46
  11 -13   3   14.86    8.69
 -11 -13   3   19.56    9.90
 -11  13   4    3.35    3.13
 -11  13  -4    3.54    4.41
 -11 -13  -4    6.22    4.35
 -11 -13   4    4.29    3.25
  11 -13  -4   12.34    8.80
 -11 -13   4    4.85    3.55
 -11  13  -5    3.65    3.89
  11 -13  -5    4.46    5.57
 -11 -13  -5    3.93    4.60
 -11 -13   5    7.12    2.66
  11 -13  -5    7.92    5.12
 -11 -13   5   14.90    6.15
 -11  13  -6    8.84    6.97
  11 -13  -6   27.14    5.36
 -11 -13  -6   10.20    8.99
 -11 -13   6   16.78    6.76
  11 -13  -6    8.15    4.26
 -11 -13   6   11.73    4.59
 -11  13  -7   19.67    9.16
  11 -13  -7    7.84    5.93
 -11 -13  -7    4.77    4.20
  11 -13  -7   -1.87    5.13
 -11 -13   7   -2.22    4.05
 -11  14   0   11.55    5.31
 -11 -14   0    6.33    3.17
  11 -14   0    6.44    2.83
 -11 -14   0    5.12    2.06
 -11  14   1   13.73    5.66
 -11  14  -1    9.95    6.31
 -11 -14  -1    7.53    4.36
 -11 -14   1   12.53    4.60
  11 -14  -1   19.35    9.39
  11 -14   1    9.09    3.60
 -11 -14   1    2.94    2.42
 -11  14   2   11.64    3.80
 -11  14  -2    9.49    5.26
 -11 -14  -2    3.30    5.20
 -11 -14   2    9.88    4.17
  11 -14  -2    1.56    8.82
  11 -14   2    4.51    3.16
 -11 -14   2    4.69    4.60
 -11  14   3    3.98    2.56
 -11  14  -3   -0.81    3.83
 -11 -14  -3    7.13    4.53
 -11 -14   3   10.12    6.48
  11 -14  -3   12.54    6.09
  11 -14   3   -0.67    5.58
 -11 -14   3    4.84    4.82
 -11  14   4   26.10    7.90
 -11  14  -4   15.09    5.44
 -11 -14  -4    7.66    4.12
  11 -14  -4   15.30    9.56
  11 -14   4   11.55    8.93
 -11 -14   4   18.87    7.61
 -12   0   0   99.17   20.56
 -12   0   0   97.79   20.03
 -12   0   1   51.56   13.18
 -12   0  -1   40.89    9.13
 -12   0   1   35.68   10.27
 -12   0  -1   40.50   13.15
 -12   0  -2   71.93    8.74
  12   0  -2   71.04   18.81
 -12   0   2   69.41   14.15
 -12   0  -2   72.84   10.93
 -12   0  -3    5.43    2.01
  12   0  -3   11.18    2.84
 -12   0   3    5.61    2.17
 -12   0  -4    6.59    2.66
  12   0  -4    5.91    2.16
 -12   0  -4    9.67    3.10
 -12   0   4    4.02    2.24
  12   0  -5   23.50    4.94
 -12   0  -5   28.53    5.92
 -12   0   5   25.33    7.53
  12   0  -6   48.04    9.74
 -12   0  -6   39.23    9.08
 -12   0   6   36.23    5.94
 -12   0  -7   34.74    8.01
  12   0  -7   48.47   12.82
 -12   0  -7   35.62    5.79
 -12   0   7   37.89    9.60
 -12   0  -8    5.60    3.62
  12   0  -8    7.93    3.31
 -12   0  -8   11.01    4.84
 -12   0   8   14.38    4.18
 -12   0  -9    2.77    2.15
  12   0  -9    8.48    2.66
 -12   0  -9    6.38    2.67
 -12   0   9    1.98    1.47
 -12   0 -10   40.08    8.69
  12   0 -10   30.31   13.25
 -12   0 -10   36.56    9.63
 -12   0  10   26.39    9.35
 -12   0 -11   14.24    4.95
  12   0 -11   15.12    5.01
 -12   0 -11    6.31    5.84
 -12   0  11    8.32    3.89
 -12   0 -12   13.92    4.87
  12   0 -12    9.10    4.76
 -12   0 -12    9.23    5.85
 -12   0  12   14.62    3.83
 -12   0 -13   19.09    4.49
  12   0 -13   20.48    8.26
 -12   0 -13   14.89   10.94
 -12   0  13   18.58   15.16
 -12   0 -14    3.06    3.34
  12   0 -14   -0.33    4.40
 -12   0 -14    8.07    2.51
 -12   0  14   10.11    3.95
 -12   0 -15   13.78    5.72
  12   0 -15   17.11    8.37
 -12   0 -15    7.50    5.00
 -12   0  15    5.86    4.11
 -12  -1   0   45.69    8.41
 -12   1   0   40.09    9.17
 -12  -1   0   48.85    7.38
 -12  -1  -1    5.37    2.07
  12   1  -1    5.88    2.67
 -12   1   1    3.92    2.55
 -12   1  -1   10.68    3.42
 -12  -1   1   11.42    3.78
 -12  -1  -1    7.93    3.05
 -12  -1  -2   29.04    6.50
  12   1  -2   19.17    5.24
  12  -1  -2   17.05    4.67
 -12   1  -2   38.53    6.48
 -12  -1   2   24.38    6.38
 -12  -1  -2   19.56    4.58
 -12  -1   2   21.25    7.29
 -12  -1  -3  106.53   13.81
 -12   1  -3   86.18    5.66
  12   1  -3  104.18   13.15
  12  -1  -3   91.15   24.03
 -12  -1  -3  103.13   19.47
 -12   1   3  101.23   16.44
 -12  -1   3   77.81   14.07
 -12  -1  -4   44.34   10.41
 -12   1  -4   53.00    9.16
  12   1  -4   51.98    6.40
  12  -1  -4   52.37   13.20
 -12  -1   4   39.81    6.45
 -12   1  -4   33.43   10.71
 -12  -1  -4   38.90    6.89
 -12   1   4   47.75   11.81
 -12  -1   4   47.41    7.90
 -12  -1  -5   20.10    7.10
 -12   1  -5   25.60    8.65
  12   1  -5   21.57    7.89
  12  -1  -5   19.34    3.83
 -12  -1   5   24.77    5.18
 -12   1  -5   39.83   10.18
 -12  -1  -5   24.32    9.18
 -12   1   5   24.52    6.12
 -12  -1   5   33.44    7.58
 -12   1  -6   10.96    4.83
 -12  -1  -6   15.50    5.20
  12   1  -6    9.43    3.94
  12  -1  -6   16.81    5.03
 -12   1  -6   11.46    4.79
 -12  -1  -6   12.57    6.37
 -12   1   6   12.33    4.18
 -12  -1   6   15.56    5.26
 -12   1  -7   15.62    4.83
 -12  -1  -7   22.50   12.50
  12   1  -7   26.82    7.90
  12  -1  -7   29.26    7.40
 -12   1  -7   18.42    9.25
 -12  -1  -7   27.20    6.86
 -12   1   7   21.84    6.48
 -12  -1   7   25.16    6.52
 -12   1  -8   26.83    6.00
  12   1  -8   29.41    5.81
  12  -1  -8   28.28    5.99
 -12   1  -8   20.71    5.80
 -12  -1  -8   30.84    6.54
 -12   1   8   13.60    4.24
 -12  -1   8   23.42    5.63
 -12   1  -9   97.61   18.54
 -12  -1  -9   52.89   16.00
  12   1  -9  104.66   14.64
  12  -1  -9  101.61   16.13
 -12   1  -9   92.25   17.03
 -12  -1  -9   95.89   20.43
 -12   1   9   89.74   21.01
 -12  -1   9   99.28   18.54
 -12   1 -10   10.83    4.93
 -12  -1 -10   13.76    3.62
  12   1 -10    9.39    2.40
  12  -1 -10    8.09    3.52
 -12   1 -10    9.47    3.79
 -12  -1 -10   12.78    2.80
 -12   1  10   12.95    3.41
 -12  -1  10    9.23    3.12
 -12   1 -11    5.76    2.83
 -12  -1 -11    4.18    2.16
  12   1 -11    3.88    2.02
 -12   1 -11    1.45    2.32
 -12  -1 -11    2.24    3.25
 -12   1  11    4.50    3.25
 -12  -1  11    5.03    2.31
 -12   1 -12    2.89    3.90
 -12  -1 -12    3.24    2.96
  12   1 -12   -0.85    4.02
  12  -1 -12    9.54    3.59
 -12   1 -12    3.52    3.84
 -12  -1 -12    7.55    4.09
 -12   1  12    6.90    3.75
 -12  -1  12   11.96    4.02
 -12   1 -13    4.91    3.29
 -12  -1 -13    9.04    5.08
  12   1 -13    8.22    4.17
 -12   1 -13    6.17    3.19
 -12  -1 -13   14.57    4.07
 -12   1  13    6.08    3.62
 -12  -1  13   14.27    4.12
 -12   1 -14    4.76    2.84
 -12  -1 -14    7.03    3.01
  12   1 -14    4.63    5.27
  12  -1 -14   18.66    7.06
 -12   1 -14   14.13    5.83
 -12  -1 -14    4.96    2.24
 -12   1  14   14.84    4.79
 -12  -1  14   10.65    4.45
 -12   1 -15    7.69    3.81
 -12  -1 -15   16.48    5.11
  12   1 -15    9.84    5.83
  12  -1 -15   15.48    3.94
 -12   1 -15   20.13    5.00
 -12  -1 -15   19.46    6.02
 -12   1  15   12.55    6.25
 -12  -1  15   21.65    6.88
 -12   2   0  174.99   24.99
  12   2   0  143.03    8.19
 -12  -2   0  156.47   20.98
 -12  -2  -1   50.47   11.63
 -12   2   1   70.09   15.75
 -12   2  -1   48.55   12.93
  12   2  -1   47.75   11.96
 -12   2  -1   48.50    9.28
 -12  -2   1   52.63    6.64
 -12  -2  -1   57.15   12.64
 -12  -2   1   44.49   13.77
 -12   2   2    7.11    2.58
 -12  -2  -2    3.97    2.44
 -12   2  -2    7.91    3.67
  12   2  -2    4.02    1.88
 -12   2  -2    8.23    2.96
 -12  -2   2    4.77    2.29
 -12  -2  -2    3.46    1.58
 -12  -2   2    7.01    3.00
 -12  -2  -3   29.15    5.84
 -12   2  -3   25.55    6.63
  12   2  -3   24.34    7.30
  12  -2  -3   23.01    5.48
 -12  -2  -3   31.38    6.14
 -12  -2   3   33.45    9.41
 -12  -2  -4   64.28   11.30
 -12   2  -4   90.99   22.18
  12   2  -4   56.65   12.40
  12  -2  -4   77.08   11.43
 -12   2  -4   60.85   17.30
 -12  -2   4   49.24   12.64
 -12  -2  -4   62.11   15.91
 -12   2   4   42.87   13.54
 -12  -2   4   58.94    9.42
 -12  -2  -5   54.10   15.82
 -12   2  -5   49.12   12.82
  12   2  -5   54.86   10.62
  12  -2  -5   49.71    8.65
 -12   2  -5   59.42    9.28
 -12  -2   5   46.90   12.73
 -12  -2  -5   45.60    8.83
 -12   2   5   46.81    9.56
 -12  -2   5   57.57    8.89
 -12   2  -6    2.35    2.40
 -12  -2  -6    3.49    2.84
  12   2  -6    7.56    3.18
  12  -2  -6    8.52    4.40
 -12  -2   6    2.27    1.57
 -12   2  -6    9.33    3.67
 -12  -2  -6    5.51    3.04
 -12   2   6    1.70    1.71
 -12  -2   6    2.90    2.27
 -12   2  -7   13.82    4.62
 -12  -2  -7   15.76    5.78
  12   2  -7    7.55    3.44
  12  -2  -7   29.40    8.46
 -12   2  -7   14.08    5.67
 -12  -2  -7   11.60    4.18
 -12   2   7    8.45    2.64
 -12  -2   7   20.13    9.49
 -12   2  -8   32.87    6.88
 -12  -2  -8   20.41    7.86
  12   2  -8   20.94    5.70
  12  -2  -8   28.25   10.27
 -12   2  -8   31.16    6.77
 -12  -2  -8   27.59   12.88
 -12   2   8   19.24    6.17
 -12  -2   8   28.78    9.21
 -12   2  -9   11.29    4.29
 -12  -2  -9   12.46    4.08
  12   2  -9    9.22    4.90
  12  -2  -9   12.50    4.06
 -12  -2  -9   26.48    8.84
 -12   2   9    1.89    3.40
 -12  -2   9   10.36    5.01
 -12   2 -10   10.58    3.94
  12   2 -10    6.64    3.38
  12  -2 -10   19.77    7.15
 -12   2 -10    4.33    2.15
 -12  -2 -10    1.07    3.47
 -12  -2  10    3.17    2.24
 -12   2 -11   20.39    6.63
 -12  -2 -11   17.71    5.07
  12   2 -11   17.90    4.07
  12  -2 -11   12.84    7.94
 -12   2 -11   19.04    6.16
 -12  -2 -11   27.99    7.39
 -12  -2  11   22.73    6.45
 -12   2 -12   43.39   10.18
 -12  -2 -12   40.56   10.67
  12   2 -12   47.21   11.02
  12  -2 -12   39.50   14.01
 -12   2 -12   44.42   13.80
 -12  -2 -12   51.60   13.50
 -12  -2  12   40.80   14.77
 -12   2 -13   13.49    6.56
 -12  -2 -13    9.92    4.07
  12   2 -13   13.43    4.20
  12  -2 -13    5.16    2.98
 -12   2 -13   14.02    4.47
 -12  -2 -13   15.90    5.52
 -12  -2  13    8.44    4.98
 -12   2 -14    4.56    2.21
 -12  -2 -14    7.82    2.95
  12   2 -14    3.97    2.82
  12  -2 -14   15.90    5.11
 -12   2 -14    9.05    3.87
 -12  -2 -14    4.91    2.74
 -12   2  14    4.30    2.17
 -12  -2  14   10.11    3.73
 -12   2 -15    8.96    5.61
 -12  -2 -15    3.79    2.10
  12   2 -15    7.52    4.82
  12  -2 -15   15.13    6.00
 -12   2 -15   11.84    4.25
 -12  -2 -15    6.57    5.77
 -12  -2  15    3.25    3.09
 -12   3   0    9.03    2.75
  12   3   0    5.07    1.77
 -12  -3   0    9.49    3.28
 -12   3   1   88.78   20.27
 -12   3  -1   98.44   21.61
  12   3  -1   83.87   11.18
  12   3   1   85.50    8.35
 -12  -3   1   96.95   17.65
 -12  -3  -1   88.44   20.92
 -12  -3   1   96.58   18.62
 -12   3   2   43.34   11.60
 -12  -3  -2   36.83    8.76
 -12   3  -2   31.38    7.34
  12   3  -2   31.98    7.86
 -12  -3   2   35.06    8.82
 -12  -3  -2   42.82    9.71
 -12  -3   2   52.73   14.78
 -12  -3  -3   97.18   12.41
 -12   3  -3  120.01   27.14
  12   3  -3   91.42    9.94
  12  -3  -3  129.03   27.00
 -12  -3  -3  100.70   19.46
 -12  -3   3  110.40   20.99
 -12  -3  -4    0.16    1.46
 -12   3  -4    8.67    4.72
  12   3  -4    3.03    1.61
  12  -3  -4    3.35    3.33
 -12   3  -4   14.30    7.28
 -12  -3   4    8.18    3.66
 -12  -3  -4    4.75    2.53
 -12  -3   4    6.06    3.28
 -12  -3  -5    8.13    4.45
 -12   3  -5   13.05    5.19
  12   3  -5   11.93    3.97
  12  -3  -5    8.45    5.68
 -12   3  -5   17.89    4.12
 -12  -3   5    5.22    3.03
 -12  -3  -5   15.31    6.20
 -12   3   5    7.00    3.43
 -12  -3   5    8.07    3.65
 -12   3  -6  106.63   25.39
 -12  -3  -6  111.91   15.15
  12   3  -6   87.90   11.72
  12  -3  -6   98.92   14.11
 -12   3  -6  103.01   17.92
 -12  -3   6   94.34   14.33
 -12  -3  -6  104.29   17.62
 -12   3   6   97.55   15.64
 -12  -3   6  114.08   23.54
 -12   3  -7    6.69    3.44
  12   3  -7    2.63    1.61
  12  -3  -7    4.99    2.28
 -12   3  -7    3.70    3.92
 -12  -3  -7    9.43    3.96
 -12   3   7    1.86    1.20
 -12  -3   7    3.61    4.59
 -12   3  -8   40.45   11.85
 -12  -3  -8   42.98   11.10
  12  -3  -8   52.50   11.58
 -12   3  -8   37.44    8.20
 -12  -3  -8   32.59    6.90
 -12   3   8   36.37    7.43
 -12  -3   8   52.57   14.07
 -12   3  -9   42.87    8.31
 -12  -3  -9   48.96   14.44
  12   3  -9   46.46    8.56
  12  -3  -9   53.51   12.81
 -12   3  -9   57.48   10.35
 -12  -3  -9   57.97   14.64
 -12   3   9   42.73    9.22
 -12  -3   9   37.07   10.50
 -12   3 -10    7.41    2.54
  12   3 -10    5.23    2.27
  12  -3 -10   10.92    4.37
 -12   3 -10    5.11    2.76
 -12  -3 -10    2.35    3.78
 -12   3  10    2.02    1.34
 -12  -3  10    8.70    5.58
 -12   3 -11   21.24    5.99
 -12  -3 -11   22.11    6.33
  12   3 -11   28.79    7.42
  12  -3 -11   25.79    5.57
 -12   3 -11   21.45    5.76
 -12  -3 -11   37.52    7.69
 -12   3  11   17.92    5.06
 -12  -3  11   22.17    4.73
 -12   3 -12    1.67    1.92
  12   3 -12    3.02    3.45
  12  -3 -12    3.11    3.31
 -12   3 -12    6.12    4.97
 -12  -3 -12    8.15    5.06
 -12  -3  12    6.89    3.63
 -12   3 -13   20.46    5.26
 -12  -3 -13   23.90    7.20
  12  -3 -13   29.21    9.67
 -12   3 -13   21.39    9.25
 -12  -3 -13   30.85   13.16
 -12  -3  13   33.78   10.45
 -12   3 -14    8.51    4.27
 -12  -3 -14    5.46    2.39
  12   3 -14    6.35    3.58
  12  -3 -14    4.31    4.40
 -12   3 -14    7.74    2.60
 -12  -3 -14    4.00    2.76
 -12  -3  14    9.65    5.03
 -12   4   0    5.76    5.31
 -12  -4   0    4.14    3.23
 -12   4  -1    6.77    2.92
 -12  -4   1   19.69    5.21
 -12  -4  -1   16.10    6.49
 -12  -4   1   16.46    6.81
 -12   4   2   69.60   17.23
 -12   4  -2   66.87   17.46
 -12  -4   2   60.00   13.44
 -12  -4  -2   60.98    9.83
 -12  -4   2   56.78   13.50
 -12   4   3   27.06    7.07
 -12   4  -3   28.44    8.41
 -12  -4  -3   22.22    5.17
 -12  -4   3   28.12   10.31
 -12   4  -4   26.12    7.16
  12  -4  -4    7.82    4.06
 -12  -4   4   18.21    3.61
 -12  -4  -4   27.38    6.74
 -12  -4   4   24.32    6.49
 -12   4  -5   26.30   15.67
  12   4  -5    8.02    2.50
  12  -4  -5   19.48    5.07
 -12  -4   5   20.54    8.56
 -12  -4  -5   25.65    8.54
 -12  -4   5   19.76    4.73
 -12   4  -6   20.56    5.89
  12   4  -6   12.01    4.48
  12  -4  -6   20.86    7.94
 -12  -4   6   14.08    4.80
 -12  -4  -6   27.19    6.72
 -12   4   6   17.22    6.51
 -12  -4   6   21.37    7.00
 -12   4  -7   12.45    4.45
 -12  -4  -7    9.27    3.62
  12   4  -7   11.04    3.70
  12  -4  -7    8.58    4.41
 -12  -4  -7   13.22    5.74
  12  -4  -7    7.99    3.66
 -12   4   7   12.37    4.88
 -12  -4   7    9.28    3.23
 -12   4  -8    3.71    3.52
 -12  -4  -8    2.33    1.96
  12   4  -8   -0.08    2.28
  12  -4  -8    6.45    3.42
 -12  -4  -8    6.45    2.76
 -12   4   8    3.05    1.54
 -12  -4   8    8.88    4.87
 -12   4  -9   24.05    8.78
 -12  -4  -9   26.50    8.05
  12   4  -9   17.55    7.46
  12  -4  -9   29.09    9.89
 -12  -4  -9   24.30    5.15
 -12  -4   9   26.46    7.09
 -12   4 -10   43.31   10.76
  12   4 -10   42.38   13.40
  12  -4 -10   61.93   12.86
 -12  -4 -10   48.15   14.14
 -12  -4  10   65.48   16.68
 -12   4 -11   19.30    5.19
 -12  -4 -11   12.25    4.11
  12  -4 -11   25.18   10.16
 -12  -4 -11   19.56    5.26
 -12  -4  11   18.29    5.91
 -12   4 -12    3.34    2.36
  12   4 -12    3.96    2.09
  12  -4 -12    7.63    2.31
 -12  -4 -12    5.34    4.08
 -12  -4  12    3.77    3.28
 -12   4 -13    5.53    2.94
  12  -4 -13    2.36    5.22
 -12  -4 -13    6.55    2.32
 -12  -4  13    7.86    4.00
 -12   4 -14   19.98    9.15
  12  -4 -14   37.48    9.33
 -12  -4 -14   31.85   10.95
 -12  -4  14   24.68    8.48
 -12   5   0   77.54   13.63
 -12  -5   0   73.04   19.41
 -12  -5   0   67.90   11.99
 -12   5   1   12.75    4.09
 -12   5  -1    9.25    3.48
 -12  -5   1   21.65    6.97
 -12   5   2   23.27    4.93
 -12   5  -2   24.17    8.93
 -12  -5   2   31.92    7.17
 -12  -5  -2   15.81    4.09
 -12  -5   2   30.36    6.34
 -12   5   3   12.50    4.84
 -12   5  -3    6.47    4.20
 -12  -5  -3    5.97    3.14
 -12  -5   3    8.90    3.56
 -12   5  -4   53.76   10.13
  12  -5  -4   47.36   11.61
 -12  -5   4   40.70    7.86
 -12  -5  -4   58.97   11.40
 -12  -5   4   39.79   11.79
 -12   5  -5   49.73    9.45
  12  -5  -5   65.39   10.86
 -12  -5   5   45.48    9.52
 -12  -5  -5   48.23    9.85
 -12  -5   5   40.49   11.15
 -12   5  -6   37.52   13.34
  12  -5  -6   25.75    6.97
 -12  -5   6   20.62    5.06
 -12  -5  -6   18.04    6.01
 -12  -5   6   27.56   11.07
 -12   5  -7   35.67   12.19
  12  -5  -7   44.55   10.50
 -12  -5  -7   32.55    6.95
  12  -5  -7   32.84    6.68
 -12  -5   7   20.66    6.70
 -12   5  -8   37.88   14.68
  12  -5  -8   44.80    6.69
 -12  -5  -8   42.05   11.35
 -12  -5   8   43.70   10.29
 -12   5  -9    5.60    2.96
  12  -5  -9   11.41    6.06
 -12  -5  -9    5.00    2.90
 -12  -5   9    8.97    2.89
 -12   5 -10   20.07    5.67
  12  -5 -10   19.00    6.87
 -12  -5 -10   15.31    4.21
 -12  -5  10   14.12    4.22
 -12   5 -11   10.22    5.51
  12  -5 -11    7.38    7.36
 -12  -5 -11    8.42    5.09
 -12  -5  11    6.38    4.08
 -12   5 -12   27.46    6.54
  12  -5 -12   26.09   10.74
 -12  -5 -12   26.91    8.82
 -12  -5  12   22.29    7.82
 -12   5 -13    6.24    3.13
  12  -5 -13   20.62   10.04
 -12  -5 -13    5.40    2.89
 -12  -5  13    6.94    4.48
 -12   5 -14    1.80    3.89
  12  -5 -14   11.43    4.63
 -12  -5 -14    5.57    3.61
 -12  -5  14    8.37    3.44
 -12   6   0    0.32    2.41
 -12  -6   0    5.44    2.39
 -12  -6   0    5.90    4.13
 -12   6   1   70.17   13.43
 -12   6  -1   57.00   13.06
 -12  -6   1   48.22   11.49
 -12  -6  -1   60.89   14.01
 -12  -6   1   60.51   13.95
 -12   6   2    7.89    2.73
 -12   6  -2    7.22    3.23
 -12  -6   2    5.07    1.72
 -12  -6  -2    5.44    3.21
 -12  -6   2    9.56    3.96
 -12   6   3   18.32    5.17
 -12   6  -3   22.33    8.30
 -12  -6   3   15.49    4.66
 -12  -6  -3    7.89    2.31
 -12  -6   3    7.93    4.32
 -12   6  -4   21.55    5.49
  12  -6  -4   32.92    7.02
 -12  -6   4   18.66    7.67
 -12  -6  -4   38.69    8.96
 -12  -6   4   37.60    7.32
 -12   6  -5   19.62   10.11
  12  -6  -5   15.51    4.50
 -12  -6   5   11.12    3.71
 -12  -6  -5   22.48    5.92
 -12  -6   5   20.90    6.49
 -12   6  -6   12.19    4.57
  12  -6  -6    8.77    3.86
 -12  -6   6    2.82    1.70
  12  -6  -6   -0.12    3.58
 -12  -6   6    3.31    4.55
 -12   6  -7   12.41    5.81
  12  -6  -7   16.99    6.02
 -12  -6  -7   17.80    5.75
  12  -6  -7   11.57    4.89
 -12  -6   7   27.15    8.10
 -12   6  -8   37.52   11.18
  12  -6  -8   30.58    7.54
 -12  -6  -8   28.97    7.33
 -12  -6   8   29.29   10.64
 -12   6  -9    5.54    2.68
  12  -6  -9    7.52    3.94
 -12  -6  -9    3.28    3.99
 -12  -6   9    7.98    4.20
 -12   6 -10    6.04    2.87
  12  -6 -10    5.70    4.85
 -12  -6 -10    8.39    3.79
 -12  -6  10    2.25    1.76
 -12   6 -11   18.99    5.74
  12  -6 -11   26.99    5.36
 -12  -6 -11   13.46    4.29
 -12  -6  11   12.57    6.46
 -12   6 -12    6.44    2.43
  12  -6 -12    8.36    3.92
 -12  -6 -12    2.07    2.68
 -12  -6  12    4.10    3.14
 -12   6 -13   24.08    9.60
  12  -6 -13   17.84    5.16
 -12  -6 -13   18.57    4.93
 -12  -6  13   14.99    5.69
 -12   7   0   44.02   10.14
 -12  -7   0   32.12    9.55
 -12  -7   0   42.18    8.73
 -12   7   1    7.34    3.35
 -12   7  -1    4.69    2.68
 -12  -7   1    2.17    2.86
 -12  -7  -1    5.30    2.36
 -12  -7   1    5.78    3.12
 -12   7   2   53.15   10.70
 -12   7  -2   38.57   10.17
 -12  -7  -2   57.21   12.49
 -12  -7   2   25.63    6.16
 -12  -7   2   38.46   11.66
 -12   7   3    7.35    3.96
 -12   7  -3    6.77    4.82
 -12  -7  -3    7.18    4.23
 -12  -7   3    1.26    1.71
 -12  -7   3    3.77    3.33
 -12   7   4   40.53   11.09
 -12   7  -4   36.29   12.49
 -12  -7  -4   40.03    7.29
 -12  -7   4   50.63    9.35
 -12   7  -5   44.92    8.70
  12  -7  -5   35.94   10.73
 -12  -7   5   28.00    7.16
 -12  -7  -5   21.73    4.97
  12  -7  -5   21.18    6.28
 -12  -7   5   24.01    6.12
 -12   7  -6   23.48    6.66
  12  -7  -6    9.79    4.78
 -12  -7   6    4.64    1.76
 -12  -7  -6   16.95    5.91
  12  -7  -6    9.30    4.57
 -12  -7   6    7.15    3.03
 -12   7  -7   21.95    5.86
  12  -7  -7   41.72    9.51
 -12  -7  -7   18.02    7.43
  12  -7  -7   25.16    7.76
 -12  -7   7   33.97   10.36
 -12   7  -8   14.10    4.07
  12  -7  -8    8.44    4.43
 -12  -7  -8   13.27    4.08
 -12  -7   8   10.76    5.37
 -12   7  -9    2.86    2.26
  12  -7  -9    8.55    6.62
 -12  -7  -9    8.72    3.80
 -12  -7   9    0.28    1.73
 -12   7 -10   39.45   10.07
  12  -7 -10   26.71    9.59
 -12  -7 -10   30.70   10.96
 -12  -7  10   33.63   10.87
 -12   7 -11    1.01    2.49
  12  -7 -11    7.37    4.53
 -12  -7 -11    5.82    3.84
 -12  -7  11    6.06    2.68
 -12   7 -12    8.73    3.63
  12  -7 -12    9.48    4.93
 -12  -7 -12   14.89    7.32
 -12  -7  12   10.53    7.41
 -12   7 -13    9.55    5.31
  12  -7 -13    7.76    4.45
 -12  -7 -13    5.78    4.81
 -12  -7  13   16.03    5.75
 -12   8   0    4.27    2.93
 -12  -8   0    5.47    1.97
 -12  -8   0    6.20    4.79
 -12   8   1   29.19   10.41
 -12   8  -1   33.27    7.47
 -12  -8   1   28.88    7.88
 -12  -8  -1   22.28    5.95
 -12  -8   1   29.92    6.48
 -12   8   2   48.32   15.42
 -12   8  -2   72.65   18.31
 -12  -8  -2   74.04   17.41
 -12  -8   2   69.86   12.33
 -12  -8   2   66.02   18.36
 -12   8   3   12.52    4.95
 -12   8  -3    6.83    4.00
 -12  -8  -3    9.49    5.01
 -12  -8   3   12.95    3.68
 -12  -8   3    9.12    5.63
 -12   8   4    9.60    4.22
 -12   8  -4   15.18    4.46
 -12  -8  -4    6.18    5.71
 -12  -8   4    4.27    2.93
 -12   8  -5   21.08    6.01
  12  -8  -5   18.43    6.70
 -12  -8  -5   23.27    8.25
 -12  -8   5   16.13    4.16
  12  -8  -5   13.45    7.43
 -12  -8   5   16.36    7.83
 -12   8  -6   25.24    7.08
  12  -8  -6   32.37   10.90
 -12  -8   6   23.17    7.48
 -12  -8  -6   29.25    8.39
  12  -8  -6   30.44    5.77
 -12  -8   6   27.13    8.83
 -12   8  -7    8.73    4.47
  12  -8  -7    2.20    5.60
 -12  -8  -7   11.61    4.75
  12  -8  -7    3.01    2.16
 -12  -8   7    7.89    4.43
 -12   8  -8    4.66    3.23
  12  -8  -8   13.25    4.20
 -12  -8  -8    7.36    4.76
 -12  -8   8    5.08    2.11
 -12   8  -9    2.22    1.89
  12  -8  -9   10.28    4.09
 -12  -8  -9    8.61    2.04
 -12  -8   9    2.14    2.98
 -12   8 -10    3.71    3.29
  12  -8 -10   15.62    6.61
 -12  -8 -10   10.72   13.49
 -12  -8  10    3.47    2.97
 -12   8 -11   21.39    9.29
  12  -8 -11    7.11    5.10
 -12  -8 -11    8.14    5.39
 -12  -8  11   11.16    4.87
 -12   8 -12    2.87    2.39
  12  -8 -12    9.74    5.65
 -12  -8 -12    5.97    3.55
 -12  -8  12    5.26    3.36
 -12   9   0    5.01    2.68
 -12  -9   0    3.53    1.83
 -12  -9   0    3.91    2.36
 -12   9   1   19.32    7.17
 -12   9  -1   14.19    7.19
 -12  -9  -1   19.66    5.41
 -12  -9   1   17.90    6.13
 -12  -9   1   13.89    7.80
 -12   9   2   23.32    4.89
 -12   9  -2   20.12    8.12
 -12  -9  -2    8.73    3.56
 -12  -9   2   14.93    5.27
 -12  -9   2   17.89    5.34
 -12   9   3   36.93    8.90
 -12   9  -3   26.66    9.62
 -12  -9  -3   40.24   13.80
 -12  -9   3   26.90    9.47
 -12  -9   3   45.03   10.53
 -12   9   4   51.33   12.59
 -12   9  -4   64.20   12.62
 -12  -9  -4   65.83   11.16
 -12  -9   4   50.77   17.86
  12  -9  -4   53.13    9.20
 -12  -9   4   47.43   16.08
 -12   9  -5    2.34    3.69
  12  -9  -5   17.42    7.72
 -12  -9  -5    6.45    3.27
  12  -9  -5    6.69    3.92
 -12  -9   5    6.49    4.13
 -12   9  -6   35.42    9.54
  12  -9  -6   32.80   12.64
 -12  -9  -6   23.85   13.77
 -12  -9   6   27.83    8.37
  12  -9  -6   35.09   10.30
 -12  -9   6   35.38    9.63
 -12   9  -7   11.39    4.64
  12  -9  -7   18.83    5.26
 -12  -9  -7   23.98    7.34
  12  -9  -7    8.02    3.97
 -12  -9   7   18.29    5.51
 -12   9  -8   45.04   11.86
  12  -9  -8   35.44   12.39
 -12  -9  -8   52.69   14.65
 -12  -9   8   45.36   14.66
 -12   9  -9    6.75    6.22
  12  -9  -9   25.52    8.97
 -12  -9  -9   23.02    8.01
 -12   9 -10   16.29    5.53
  12  -9 -10    5.01    4.75
 -12  -9 -10    6.23    2.20
 -12  -9  10    5.16    3.15
 -12   9 -11    5.72    2.57
  12  -9 -11    5.58    5.16
 -12  -9 -11    6.03    3.77
 -12  -9  11    8.27    4.55
 -12  10   0   20.78    4.61
 -12 -10   0   19.90    6.14
 -12 -10   0   28.43    8.77
 -12  10   1   15.56    4.47
 -12  10  -1   18.61    7.17
 -12 -10  -1   20.20    8.55
 -12 -10   1   14.52    5.25
 -12 -10   1   29.92   10.33
 -12  10   2   -0.64    3.31
 -12  10  -2    1.72    1.98
 -12 -10  -2    3.98    2.30
 -12 -10   2    4.29    1.93
  12 -10  -2   -0.36    5.43
 -12 -10   2    8.44    5.06
 -12  10   3   17.43    5.02
 -12  10  -3   23.20    7.90
 -12 -10  -3   25.04    9.26
 -12 -10   3   21.38    5.57
  12 -10  -3   21.72    5.08
 -12 -10   3   25.96    8.00
 -12  10   4    7.01    3.28
 -12  10  -4    5.69    3.04
 -12 -10  -4    2.38    2.98
 -12 -10   4    3.06    2.26
  12 -10  -4    8.60    6.82
 -12 -10   4    9.79    2.86
 -12  10  -5   36.95   11.72
  12 -10  -5   52.60   14.04
 -12 -10  -5   29.33   10.74
  12 -10  -5   37.66    8.92
 -12 -10   5   22.86    7.74
 -12  10  -6   15.25    6.42
  12 -10  -6    1.42    2.70
 -12 -10  -6    4.44    5.11
  12 -10  -6    5.43    3.50
 -12 -10   6    8.86    3.83
 -12  10  -7   29.55   12.65
  12 -10  -7    9.97    4.11
 -12 -10  -7   12.22    5.67
  12 -10  -7   13.84    8.12
 -12 -10   7   17.29    7.03
 -12  10  -8    5.07    2.46
  12 -10  -8    8.37    4.73
 -12 -10  -8    5.75    3.63
 -12 -10   8    5.21    2.86
 -12  10  -9    9.89    4.52
  12 -10  -9   17.41    5.41
 -12 -10  -9   13.69    7.17
 -12 -10   9    3.64    2.42
 -12  10 -10    5.31    2.92
  12 -10 -10    8.97    3.29
 -12 -10 -10    2.46    4.53
 -12 -10  10    4.34    4.33
 -12  11   0    4.89    4.49
 -12 -11   0    5.78    4.45
 -12 -11   0    3.61    3.18
 -12  11   1    8.54    6.34
 -12  11  -1   24.47    6.51
 -12 -11  -1   20.28   11.13
 -12 -11   1   33.20   18.02
  12 -11  -1    7.51    3.37
 -12 -11   1   15.77    6.42
 -12  11   2   18.23    6.49
 -12  11  -2   18.30    7.26
 -12 -11  -2   15.27    6.33
 -12 -11   2   21.14   13.07
  12 -11  -2   14.65    5.52
 -12 -11   2   29.68    7.85
 -12  11   3   14.69    5.91
 -12  11  -3   22.85    4.60
 -12 -11  -3   24.42    9.50
 -12 -11   3    6.55    3.23
  12 -11  -3   11.60    6.04
 -12 -11   3   16.47    5.81
 -12  11   4    3.79    3.53
 -12  11  -4    4.96    3.82
 -12 -11  -4   10.23    4.35
 -12 -11   4    4.27    3.51
  12 -11  -4    8.02    5.17
 -12 -11   4    3.55    2.36
 -12  11  -5    2.98    4.74
  12 -11  -5    6.33    3.66
 -12 -11  -5   -1.33    3.80
 -12 -11   5    2.86    2.55
  12 -11  -5    9.83    4.79
 -12 -11   5    8.90    3.97
 -12  11  -6   11.14    3.93
  12 -11  -6   11.54    4.89
 -12 -11  -6    6.15    3.54
  12 -11  -6   11.87    6.83
 -12 -11   6   10.88    4.04
 -12  11  -7    8.04    6.23
  12 -11  -7    8.59    4.54
 -12 -11  -7    4.97    5.03
  12 -11  -7    4.09    2.75
 -12 -11   7    5.70    5.33
 -12  11  -8   14.47    5.31
  12 -11  -8    3.39    5.01
 -12 -11  -8    9.62    4.00
 -12 -11   8    8.14    3.00
 -12  12   0   11.68    6.08
 -12 -12   0    9.34    5.33
  12 -12   0    6.81    6.63
 -12 -12   0    6.77    2.67
 -12  12   1   28.81   10.51
 -12  12  -1   15.48    4.81
 -12 -12  -1   15.51    4.42
  12 -12  -1   22.38    7.37
 -12 -12   1   12.79    4.21
 -12  12   2   12.20    4.65
 -12  12  -2   16.24    6.11
 -12 -12  -2   13.90    5.15
 -12 -12   2    9.10    5.25
  12 -12  -2   15.46    6.60
 -12 -12   2   12.03    4.82
 -12  12   3   30.32   13.99
 -12  12  -3   36.62    9.04
 -12 -12  -3   12.99    4.12
 -12 -12   3   14.43    4.99
  12 -12  -3   16.42    8.33
 -12 -12   3   26.74   11.90
 -12  12   4   10.79    5.12
 -12  12  -4    1.07    1.57
 -12 -12  -4    4.88    2.60
 -12 -12   4    3.30    2.32
  12 -12  -4    5.54    5.06
 -12 -12   4    7.03    4.71
 -12  12  -5   13.72    5.30
  12 -12  -5    9.54    5.88
 -12 -12  -5    4.29    3.39
 -12 -12   5    4.36    2.42
  12 -12  -5    0.69    5.64
 -12 -12   5   12.91    5.56
 -12  12  -6   18.94    8.64
  12 -12  -6   29.90   10.33
 -12 -12  -6   22.31    7.71
  12 -12  -6   14.61    4.62
 -12 -12   6   14.39    3.61
 -12  12  -7    3.49    5.18
  12 -12  -7    4.80    3.56
 -12 -12  -7   10.43    6.43
  12 -12  -7    1.81    3.28
 -12 -12   7    7.72    3.47
 -12  13   0    6.72    3.45
 -12 -13   0   21.72    6.78
  12 -13   0   20.85    5.82
 -12 -13   0    6.90    3.60
 -12  13   1    9.19    2.93
 -12  13  -1    6.90    4.66
 -12 -13  -1    5.37    3.02
 -12 -13   1    6.66    3.31
  12 -13  -1   -3.44    6.33
  12 -13   1   15.31    7.37
 -12 -13   1    5.34    5.28
 -12  13   2    0.69    2.69
 -12  13  -2    6.34    3.08
 -12 -13  -2    9.09    3.46
 -12 -13   2    6.59    4.70
  12 -13  -2    5.76    5.53
  12 -13   2    4.86    5.76
 -12 -13   2    5.74    3.47
 -12  13   3   11.53    4.94
 -12  13  -3   18.71    5.68
 -12 -13  -3   11.52    4.38
 -12 -13   3   27.00    8.93
  12 -13  -3   18.16    8.43
 -12 -13   3   21.34   11.15
 -12  13   4    4.08    3.37
 -12  13  -4    4.64    3.43
 -12 -13  -4   13.63    7.18
 -12 -13   4    6.06    3.66
  12 -13  -4    8.87    5.60
 -12 -13   4   14.21    5.07
 -13   0   0    2.94    1.62
 -13   0   0    5.82    2.07
 -13   0  -1   13.13    5.12
  13   0  -1    4.18    2.10
 -13   0   1   12.69    5.68
 -13   0  -1    7.01    3.76
 -13   0  -2    1.43    1.70
  13   0  -2    2.96    2.57
 -13   0   2    4.61    2.79
 -13   0  -2    8.26    2.79
 -13   0  -3   54.39    7.91
  13   0  -3   57.88   11.79
 -13   0  -3   40.39   13.82
 -13   0   3   36.20    7.63
 -13   0  -4   53.81    9.83
  13   0  -4   50.68   14.54
 -13   0  -4   67.40    9.91
 -13   0   4   58.82   12.63
  13   0  -5   90.59   12.21
 -13   0  -5   71.10   13.17
 -13   0   5   74.11   20.47
  13   0  -6    6.79    4.41
 -13   0  -6    1.90    3.47
 -13   0   6    3.70    3.53
  13   0  -7   81.28   18.28
 -13   0  -7   88.58   19.06
 -13   0   7   94.84   25.04
 -13   0  -8   17.90    5.30
  13   0  -8   17.71    5.12
 -13   0  -8   19.58    4.57
 -13   0   8   14.89    5.23
  13   0  -9    5.82    2.71
 -13   0  -9    8.14    4.47
 -13   0   9    9.83    3.66
 -13   0 -10    7.61    3.83
  13   0 -10    7.75    4.04
 -13   0 -10   12.03    5.64
 -13   0  10    6.03    3.52
 -13   0 -11    6.69    2.55
  13   0 -11   -1.01    3.73
 -13   0 -11    5.83    4.36
 -13   0  11    4.16    2.22
 -13   0 -12   -2.59    2.54
  13   0 -12    4.95    3.00
 -13   0 -12    3.10    3.38
 -13   0  12    4.64    2.95
 -13   0 -13    4.06    2.49
  13   0 -13    1.89    2.61
 -13   0 -13    6.12    3.43
 -13   0  13    4.20    2.71
 -13   0 -14    3.99    1.93
  13   0 -14    4.61    2.65
 -13   0 -14    5.10    3.12
 -13   0  14    4.95    3.84
 -13  -1   0   40.10    9.53
 -13   1   0   56.86   11.66
 -13  -1   0   59.97   11.41
 -13  -1  -1   79.59   17.29
  13   1  -1   75.16   11.16
 -13   1   1   94.09   15.80
 -13   1  -1   70.46   14.08
 -13  -1   1   59.72   11.57
 -13  -1  -1   75.20   12.97
 -13  -1  -2   27.73    7.10
  13   1  -2   14.80    5.30
  13  -1  -2   19.60    4.68
 -13   1  -2   26.69    7.49
 -13  -1   2   24.44    6.06
 -13  -1  -2   28.49    6.26
 -13  -1  -3    1.82    1.52
  13   1  -3    1.96    2.26
 -13   1  -3    2.95    2.42
 -13  -1  -3    5.18    2.08
 -13  -1   3    3.22    2.29
 -13  -1  -4   22.11    4.06
 -13   1  -4   12.48    4.62
  13   1  -4   20.67    6.62
  13  -1  -4   31.63    7.88
 -13  -1   4   25.21    8.12
 -13   1  -4   28.05    8.04
 -13  -1  -4   18.38    5.47
 -13   1   4   23.39    8.12
 -13  -1   4   26.55    5.19
 -13  -1  -5   49.25   10.02
 -13   1  -5   53.40    8.79
  13   1  -5   51.75   12.97
  13  -1  -5   61.61    8.67
 -13   1  -5   53.08   11.26
 -13  -1  -5   62.18   11.57
 -13   1   5   54.07   14.13
 -13  -1   5   56.70   12.08
 -13  -1  -6    7.58    2.62
 -13   1  -6    2.71    1.97
  13   1  -6    6.99    4.44
  13  -1  -6    5.12    2.74
 -13   1  -6    9.40    4.73
 -13   1   6    6.95    3.15
 -13  -1   6   11.25    5.77
 -13   1  -7   36.93   11.60
 -13  -1  -7   29.01    9.18
  13   1  -7   36.94    9.96
  13  -1  -7   38.95   12.39
 -13   1  -7   33.43    8.82
 -13  -1  -7   39.52   10.94
 -13   1   7   36.78   13.42
 -13  -1   7   32.55   12.36
 -13   1  -8    8.31    5.91
 -13  -1  -8    9.92    6.14
  13   1  -8   10.59    3.88
  13  -1  -8   16.73    5.78
 -13   1  -8   11.19    4.43
 -13  -1  -8   22.20    5.87
 -13   1   8   15.65    4.07
 -13  -1   8   27.86    8.09
 -13   1  -9    2.03    2.13
  13   1  -9    6.46    5.75
  13  -1  -9    5.89    2.99
 -13   1  -9    8.05    4.74
 -13  -1  -9    0.04    4.07
 -13   1   9    3.94    2.04
 -13  -1   9    0.32    2.03
 -13  -1 -10    2.99    1.43
  13   1 -10    3.41    4.06
  13  -1 -10   12.11    6.19
 -13   1 -10    7.78    4.90
 -13  -1 -10    7.64    3.77
 -13   1  10    2.65    1.59
 -13  -1  10    7.57    3.12
 -13   1 -11   30.23    9.61
 -13  -1 -11   32.47    9.95
  13   1 -11   37.92   11.07
  13  -1 -11   26.53   11.53
 -13   1 -11   36.48    7.74
 -13  -1 -11   34.91    9.49
 -13   1  11   21.89    8.05
 -13  -1  11   27.20    9.93
 -13   1 -12    2.79    4.79
 -13  -1 -12    5.20    3.10
  13   1 -12    8.00    4.15
  13  -1 -12    5.60    3.20
 -13   1 -12    1.59    1.86
 -13  -1 -12    5.09    4.91
 -13   1  12    4.45    2.50
 -13  -1  12    8.85    4.24
 -13   1 -13   14.02    4.71
 -13  -1 -13   15.51    5.47
  13   1 -13   15.79    6.71
 -13   1 -13   17.85    3.71
 -13  -1 -13   15.61    7.00
 -13  -1  13    7.82    5.93
 -13   1 -14    8.45    3.96
 -13  -1 -14    7.64    3.26
  13   1 -14    3.84    1.78
  13  -1 -14    9.30    3.10
 -13   1 -14    7.56    4.63
 -13  -1 -14    3.04    2.76
 -13  -1  14   -0.90    2.86
 -13   2   0   61.65   14.78
  13   2   0   55.73   14.93
 -13  -2   0   68.91   15.46
 -13  -2  -1   50.22   13.49
 -13   2   1   52.68   10.10
 -13   2  -1   51.07   15.54
  13   2  -1   43.32   12.24
 -13   2  -1   54.61   13.10
 -13  -2   1   48.81    7.56
 -13  -2  -1   47.71   10.16
 -13   2   2   68.09   13.08
 -13  -2  -2   58.78   13.36
 -13   2  -2   66.06   19.86
  13   2  -2   51.37   11.29
 -13   2  -2   57.62   16.08
 -13  -2   2   75.23   18.14
 -13  -2  -2   66.65   12.71
 -13  -2   2   66.40   14.64
 -13  -2  -3   43.95   10.80
 -13   2  -3   30.92   10.95
  13   2  -3   34.32    7.42
  13  -2  -3   42.70   13.90
 -13   2  -3   51.84    9.81
 -13  -2  -3   42.44    6.63
 -13  -2   3   31.62    7.62
 -13  -2  -4   26.78    7.67
 -13   2  -4   31.02    7.92
  13   2  -4   16.25    5.50
  13  -2  -4   25.84    7.56
 -13   2  -4   14.07    3.77
 -13  -2   4   22.66    7.39
 -13  -2  -4   18.38    3.99
 -13  -2   4   22.35    8.03
 -13  -2  -5   10.96    5.55
 -13   2  -5   10.31    3.53
  13   2  -5    5.91    2.05
  13  -2  -5    9.45    4.14
 -13   2  -5    8.33    5.45
 -13  -2   5    7.81    4.28
 -13  -2  -5   14.85    5.25
 -13   2   5    7.97    2.26
 -13  -2   5   19.84    5.87
 -13  -2  -6    4.34    2.22
 -13   2  -6    2.19    2.40
  13   2  -6   -0.39    2.49
  13  -2  -6   10.59    5.22
 -13   2  -6   10.71    4.24
 -13  -2  -6    2.82    2.52
 -13   2   6    2.54    2.04
 -13  -2   6    5.90    3.11
 -13   2  -7   12.69    5.00
 -13  -2  -7    8.36    2.43
  13   2  -7    6.66    3.75
  13  -2  -7    7.12    3.82
 -13   2  -7   13.74    5.62
 -13  -2  -7   11.92    4.53
 -13   2   7    4.45    2.42
 -13  -2   7   12.11    3.64
 -13   2  -8   16.51    4.60
 -13  -2  -8   14.83    4.57
  13   2  -8   12.69    4.86
  13  -2  -8   31.30    6.46
 -13   2  -8   22.11    5.31
 -13  -2  -8   15.97    4.85
 -13   2   8   11.73    4.38
 -13  -2   8   17.06    6.47
 -13   2  -9   36.58    9.00
 -13  -2  -9   27.77    8.60
  13   2  -9   20.40    6.13
  13  -2  -9   26.74    7.18
 -13   2  -9   38.09    8.68
 -13  -2  -9   43.52    9.30
 -13   2   9   32.37   10.50
 -13  -2   9   41.89   10.18
 -13   2 -10   55.57   15.26
 -13  -2 -10   43.45    9.79
  13   2 -10   27.96   15.73
  13  -2 -10   75.27   10.63
 -13   2 -10   46.45   10.04
 -13  -2 -10   42.44    8.13
 -13   2  10   30.67    7.14
 -13  -2  10   32.13   10.59
 -13   2 -11   13.78    5.00
  13   2 -11    7.05    2.86
  13  -2 -11   23.89    7.64
 -13   2 -11   11.88    3.08
 -13  -2 -11   16.75    4.00
 -13   2  11   14.02    4.73
 -13  -2  11   14.16    3.54
 -13   2 -12    8.68    4.51
  13   2 -12   15.49    5.38
  13  -2 -12   12.29    4.73
 -13   2 -12   15.65    7.25
 -13  -2 -12   26.05    7.97
 -13  -2  12   16.26    4.17
 -13   2 -13    9.74    4.16
 -13  -2 -13    9.10    4.11
  13   2 -13   13.97    3.87
  13  -2 -13    5.80    3.49
 -13  -2 -13   13.31    6.50
 -13  -2  13    9.54    7.66
 -13   3   0   13.23    4.05
 -13  -3   0   15.83    5.67
 -13   3   1   17.91    4.30
 -13   3  -1   24.99    5.87
 -13  -3   1   25.84    6.35
 -13  -3  -1   15.30    3.47
 -13   3   2   73.89   17.89
 -13   3  -2   76.50   13.75
 -13  -3   2   77.15   15.56
 -13  -3  -2   82.79   20.89
 -13  -3   2   75.71   18.59
 -13   3  -3   34.28    9.87
  13  -3  -3   38.48   14.21
 -13  -3  -3   26.50    5.57
 -13  -3   3   45.63    7.84
 -13   3  -4    6.76    3.88
  13  -3  -4    3.01    2.52
 -13  -3   4    3.18    1.32
 -13  -3  -4    4.77    2.64
 -13  -3   4    5.73    3.10
 -13   3  -5    8.08    3.12
  13  -3  -5    2.26    3.67
 -13   3  -5    4.40    2.47
 -13  -3   5    2.95    1.54
 -13  -3  -5   10.98    3.95
 -13  -3   5    5.13    3.10
 -13   3  -6    8.03    4.21
  13  -3  -6    8.67    4.28
 -13   3  -6    4.75    2.32
 -13  -3  -6    7.71    2.67
 -13   3   6    1.74    1.14
 -13  -3   6    6.06    4.07
  13  -3  -7    1.23    4.53
 -13   3  -7   15.90    5.49
 -13  -3  -7   11.06    4.48
 -13   3   7    7.39    4.15
 -13  -3   7    5.54    2.86
 -13   3  -8    7.86    5.00
  13   3  -8    3.76    2.44
  13  -3  -8    1.55    3.12
 -13   3  -8    5.73    3.51
 -13  -3  -8    6.12    4.70
 -13   3   8    0.94    1.50
 -13  -3   8    2.44    3.09
 -13   3  -9   20.39    6.57
  13  -3  -9   27.51    8.25
 -13   3  -9    6.56    4.83
 -13  -3  -9   19.21    5.28
 -13   3   9   12.06    6.02
 -13  -3   9   32.57    7.90
 -13   3 -10   35.06    9.81
  13  -3 -10   26.53   12.48
 -13   3 -10   32.49    7.24
 -13  -3 -10   37.75   15.84
 -13  -3  10   22.52    7.64
 -13   3 -11   15.57    6.03
  13  -3 -11    9.94    5.40
 -13   3 -11   14.30    4.56
 -13  -3 -11    8.44    2.98
 -13  -3  11    5.34    4.55
 -13   3 -12   -0.12    2.71
  13  -3 -12    8.52    5.74
 -13   3 -12    9.97    4.65
 -13  -3 -12    5.12    3.17
 -13  -3  12   -2.17    3.19
  13  -3 -13   11.68    5.67
 -13   3 -13   13.61    4.75
 -13  -3 -13    3.71    3.75
 -13  -3  13    8.70    3.81
 -13   4   0    9.77    3.74
 -13  -4   0    1.19    2.38
 -13   4   1    6.35    2.69
 -13   4  -1    5.80    2.56
 -13  -4   1   14.81    5.51
 -13  -4  -1   13.53    4.05
 -13  -4   1   15.70    5.04
 -13   4   2    7.68    4.13
 -13   4  -2    9.30    4.43
 -13  -4   2    8.87    2.97
 -13  -4  -2   12.31    4.15
 -13  -4   2    8.38    5.15
 -13   4  -3    2.89    1.58
 -13  -4  -3    3.58    2.95
 -13  -4   3    3.16    2.08
 -13   4  -4    5.95    3.47
  13  -4  -4    7.77    3.48
 -13  -4   4    5.13    2.48
 -13  -4  -4    3.96    3.02
 -13  -4   4   10.90    6.13
 -13   4  -5   25.82    7.04
  13  -4  -5   40.34    9.37
 -13  -4   5   19.30    4.26
 -13  -4  -5   28.62    8.02
 -13  -4   5   38.77   11.27
 -13   4  -6   97.10   27.00
  13  -4  -6   81.01   21.91
 -13  -4  -6   75.47   17.81
 -13  -4   6   77.20   16.34
 -13   4  -7   34.57    9.00
  13  -4  -7   34.14   11.84
 -13  -4  -7   42.00    9.92
 -13  -4   7   38.93    7.06
 -13   4  -8   21.60    8.41
  13  -4  -8   27.19    6.53
 -13  -4  -8   34.93    6.77
 -13  -4   8   20.03    7.36
 -13   4  -9   15.84    5.48
  13  -4  -9   10.07    4.23
 -13  -4  -9    3.92    2.22
 -13  -4   9    8.33    4.18
 -13   4 -10   25.11    7.10
  13  -4 -10   14.20    4.89
 -13  -4 -10   19.53    5.76
 -13  -4  10   13.54    5.15
 -13   4 -11    5.08    2.52
  13  -4 -11    4.40    4.69
 -13  -4 -11    4.69    2.46
 -13  -4  11    4.65    2.31
 -13   4 -12   -2.55    2.80
  13  -4 -12   11.83    6.86
 -13  -4 -12    4.65    2.82
 -13  -4  12    2.59    3.78
 -13   4 -13    4.91    2.60
  13  -4 -13    5.83    5.24
 -13  -4 -13    5.10    3.46
 -13  -4  13    4.00    5.30
 -13   5   0   29.16    7.63
 -13  -5   0   15.36    5.72
 -13   5   1    8.88    5.41
 -13   5  -1   10.61    5.61
 -13  -5   1    7.59    3.25
 -13  -5  -1    8.93    5.61
 -13  -5   1    6.66    4.54
 -13   5   2   27.19    7.11
 -13   5  -2   35.42    7.07
 -13  -5   2   18.54    4.93
 -13  -5  -2   28.86    7.16
 -13  -5   2   26.96    6.80
 -13   5   3    4.27    3.47
 -13   5  -3    7.45    3.99
 -13  -5  -3    5.06    3.15
 -13  -5   3   10.76    4.36
 -13   5  -4   29.34    9.52
  13  -5  -4   28.43    9.38
 -13  -5   4   16.03    3.68
 -13  -5  -4   22.89    6.39
 -13  -5   4   29.30   12.05
 -13   5  -5   13.41    6.75
  13  -5  -5    6.76    3.11
 -13  -5   5   14.47    4.86
 -13  -5  -5   18.88    6.59
 -13  -5   5   13.89    5.10
 -13   5  -6   29.01    6.46
  13  -5  -6   35.40    8.50
 -13  -5  -6   31.40   10.29
 -13  -5   6   30.52    7.27
 -13   5  -7   20.31    6.58
  13  -5  -7   24.60    7.29
 -13  -5  -7   18.68    6.53
 -13  -5   7   12.69    4.20
 -13   5  -8   11.97    5.60
  13  -5  -8   12.71    4.76
 -13  -5  -8   17.90    6.11
 -13  -5   8   14.04    5.06
 -13   5  -9   12.64    5.97
  13  -5  -9    8.57    5.55
 -13  -5  -9   17.05    3.66
 -13  -5   9   20.52    9.15
 -13   5 -10   10.69    7.64
  13  -5 -10    8.94    2.86
 -13  -5 -10    5.13    2.12
 -13  -5  10   15.15    7.23
 -13   5 -11    5.43    3.12
  13  -5 -11   11.66    4.12
 -13  -5 -11    5.07    4.79
 -13  -5  11    3.48    3.38
 -13   5 -12   10.22    5.25
  13  -5 -12   10.40    6.48
 -13  -5 -12   13.58    7.34
 -13  -5  12   13.67    6.13
 -13   6   0   56.67   12.83
 -13  -6   0   49.68   11.25
 -13   6   1   19.00    6.32
 -13   6  -1   11.01    4.16
 -13  -6   1   19.69    5.46
 -13  -6  -1   15.16    4.42
 -13  -6   1   13.97    8.91
 -13   6   2    3.48    2.34
 -13   6  -2   -1.13    3.29
 -13  -6   2    6.89    3.13
 -13  -6  -2    5.90    3.88
 -13  -6   2    3.42    3.13
 -13   6   3   22.88    7.28
 -13   6  -3   17.06    6.37
 -13  -6   3   10.52    4.00
 -13  -6  -3   28.16    9.80
 -13  -6   3   22.74    8.74
 -13   6  -4   71.27   12.14
  13  -6  -4   52.34   10.87
 -13  -6   4   52.98   15.68
 -13  -6  -4   72.55   13.42
 -13  -6   4   57.25    9.51
 -13   6  -5    4.88    2.84
  13  -6  -5    6.22    4.30
 -13  -6   5   -0.09    1.84
 -13  -6  -5    9.18    5.16
 -13  -6   5   10.43    3.33
 -13   6  -6    6.49    4.11
  13  -6  -6    1.80    2.70
 -13  -6  -6    3.06    2.55
  13  -6  -6    3.08    3.61
 -13  -6   6    9.08    4.85
 -13   6  -7    3.37    3.01
  13  -6  -7    7.97    3.62
 -13  -6  -7    1.09    2.18
 -13  -6   7    9.20    5.22
 -13   6  -8   31.11   10.29
  13  -6  -8   24.23    5.69
 -13  -6  -8   16.70    5.20
 -13  -6   8   26.05    8.60
 -13   6  -9    3.40    3.10
  13  -6  -9   12.96    4.52
 -13  -6  -9    6.74    3.50
 -13  -6   9    4.16    3.83
 -13   6 -10    3.22    3.41
  13  -6 -10    7.38    5.64
 -13  -6 -10    3.93    3.39
 -13  -6  10    7.90    4.61
 -13   6 -11    8.10    3.83
  13  -6 -11    2.20    3.90
 -13  -6 -11    2.87    3.92
 -13  -6  11    8.44    2.78
 -13   6 -12   21.66   13.52
  13  -6 -12   34.64   10.26
 -13  -6 -12   29.51   12.52
 -13  -6  12   23.80    9.20
 -13   7   0   21.92    5.62
 -13  -7   0   14.30    3.91
 -13   7   1   23.33    5.38
 -13   7  -1   16.91    5.17
 -13  -7   1   25.41    5.16
 -13  -7  -1   23.00    6.23
 -13  -7   1   21.03    7.21
 -13   7   2   22.34    4.95
 -13   7  -2   18.61    5.16
 -13  -7   2   16.82    5.27
 -13  -7  -2   21.99    4.92
 -13  -7   2   26.22    7.55
 -13   7   3   10.71    4.40
 -13   7  -3   16.52    4.47
 -13  -7   3   14.78    3.42
 -13  -7  -3   17.25    5.25
 -13  -7   3   22.93    5.81
 -13   7  -4   20.93    6.46
  13  -7  -4   22.52    7.06
 -13  -7  -4   16.85    5.50
 -13  -7   4   23.51    9.79
 -13   7  -5    5.52    2.97
  13  -7  -5    7.33    4.46
 -13  -7   5    2.54    1.96
 -13  -7  -5    6.68    3.69
 -13  -7   5    6.75    4.55
  13  -7  -6   16.60    5.53
 -13  -7  -6    9.00    4.72
  13  -7  -6    5.29    4.72
 -13  -7   6   13.02    4.94
 -13   7  -7   10.54    3.96
  13  -7  -7    5.03    4.30
 -13  -7  -7    4.49    3.67
 -13  -7   7    5.38    3.20
 -13   7  -8    4.06    4.06
  13  -7  -8    7.77    4.50
 -13  -7  -8    4.42    5.37
 -13  -7   8    7.18    2.69
 -13   7  -9    6.97    2.69
 -13  -7  -9   18.04    5.47
 -13  -7   9    5.66    3.40
 -13   7 -10    5.73    4.02
  13  -7 -10    3.94    3.27
 -13  -7 -10    5.34    2.59
 -13  -7  10    1.79    1.78
 -13   7 -11    9.41    4.84
  13  -7 -11   12.56    8.12
 -13  -7 -11   16.76    6.36
 -13  -7  11    6.26    3.75
 -13   8   0    2.91    3.11
 -13  -8   0    4.52    2.31
 -13   8   1   14.52    4.83
 -13   8  -1   10.85    5.20
 -13  -8   1    5.21    2.44
 -13  -8  -1    6.68    2.65
 -13  -8   1    4.09    3.34
 -13   8   2    9.45    5.72
 -13   8  -2    5.49    3.98
 -13  -8   2    1.66    1.60
 -13  -8  -2    9.95    3.97
 -13  -8   2    4.77    3.61
 -13   8   3   25.79    8.15
 -13   8  -3   41.44   14.14
 -13  -8   3   22.99    6.71
 -13  -8  -3   26.08    5.73
 -13  -8   3   26.12    9.20
 -13   8  -4    1.41    1.63
 -13  -8  -4    2.84    2.13
 -13  -8   4    0.81    2.23
 -13   8  -5   40.63   12.04
  13  -8  -5   41.62    9.13
 -13  -8   5   29.51   11.20
 -13  -8  -5   30.59    6.86
  13  -8  -5   39.46    8.62
 -13  -8   5   43.78   11.12
 -13   8  -6   42.84   13.29
  13  -8  -6   30.40    9.76
 -13  -8  -6   35.51   12.83
  13  -8  -6   18.31   10.47
 -13  -8   6   45.01    8.44
 -13   8  -7   52.13   15.35
  13  -8  -7   38.34   13.33
 -13  -8  -7   41.81    9.59
 -13  -8   7   34.41   10.54
 -13   8  -8   12.03    4.71
  13  -8  -8    8.63    4.24
 -13  -8  -8    5.13    3.33
 -13  -8   8    6.64    3.29
 -13   8  -9   16.50    6.36
  13  -8  -9   33.76    9.04
 -13  -8  -9   21.13    5.65
 -13  -8   9   27.08    8.45
 -13   8 -10    6.33    3.94
  13  -8 -10   11.95    7.22
 -13  -8 -10    3.55    4.09
 -13  -8  10   12.43    5.15
 -13   9   0    3.85    2.96
 -13  -9   0    4.21    2.89
 -13  -9   0    5.01    3.71
 -13   9   1   15.52    4.04
 -13   9  -1   12.46    3.25
 -13  -9   1   16.84    4.47
 -13  -9  -1   17.20    4.37
 -13  -9   1   26.94    8.52
 -13   9   2   15.73    7.09
 -13   9  -2   15.50    4.55
 -13  -9  -2   18.77    6.55
 -13  -9   2    5.18    2.95
 -13  -9   2   10.51    3.75
 -13   9   3    3.43    3.35
 -13   9  -3   16.72    4.73
 -13  -9  -3   17.51    6.40
 -13  -9   3    5.26    2.66
 -13  -9   3   12.89    4.44
 -13   9   4   10.33    3.32
 -13   9  -4    7.58    3.99
 -13  -9   4    3.92    1.94
 -13  -9  -4   18.64    6.69
  13  -9  -4   19.57    5.50
 -13  -9   4   14.04    5.14
 -13   9  -5   11.58    4.16
  13  -9  -5   20.96    7.67
 -13  -9   5    5.45    3.03
 -13  -9  -5    9.41    3.71
  13  -9  -5    7.08    4.73
 -13  -9   5   16.21    6.40
 -13   9  -6   18.77   12.24
  13  -9  -6   11.80    4.96
 -13  -9  -6   22.27    7.15
  13  -9  -6   12.69    6.59
 -13  -9   6   12.79    6.00
 -13   9  -7    4.78    4.03
  13  -9  -7    3.62    4.99
 -13  -9  -7   10.79    2.82
 -13  -9   7    1.80    3.54
 -13   9  -8   11.64    4.73
  13  -9  -8   22.92    5.80
 -13  -9  -8    9.06    3.87
 -13  -9   8    9.37    4.08
 -13   9  -9   10.44    4.43
  13  -9  -9   19.68    7.43
 -13  -9  -9   15.23    5.66
 -13  -9   9   10.22    5.73
 -13  10   0    7.06    2.95
 -13 -10   0    1.77    1.70
 -13  10   1   30.07    6.64
 -13  10  -1   25.83    7.93
 -13 -10  -1   27.46    7.33
 -13 -10   1   30.02   10.27
 -13 -10   1   27.05    7.32
 -13  10   2   12.66    3.77
 -13  10  -2   17.08    8.46
 -13 -10  -2   26.18    7.92
 -13 -10   2   19.71    9.73
 -13 -10   2   12.94    6.01
 -13  10   3   11.82    5.75
 -13  10  -3   21.14    5.65
 -13 -10  -3    4.81    5.83
 -13 -10   3   10.41    3.34
  13 -10  -3    9.91    6.08
 -13 -10   3    9.62    3.32
 -13  10   4   11.28    4.26
 -13  10  -4    8.63    4.31
 -13 -10  -4    6.02    5.23
 -13 -10   4    3.57    2.51
  13 -10  -4   10.46    3.88
 -13 -10   4    5.41    3.42
 -13  10  -5    1.67    2.62
  13 -10  -5   10.71    4.89
 -13 -10  -5    2.82    3.78
  13 -10  -5    5.31    4.37
 -13 -10   5    1.29    2.93
 -13  10  -6    6.39    4.33
  13 -10  -6   12.51    4.54
 -13 -10  -6    4.38    2.82
  13 -10  -6    7.42    4.56
 -13 -10   6    9.26    5.61
 -13  10  -7    2.74    2.38
  13 -10  -7   10.96    3.77
 -13 -10  -7   -1.08    3.72
 -13 -10   7    3.49    2.19
 -13  10  -8    6.94    2.89
  13 -10  -8    2.67    2.54
 -13 -10  -8    5.22    2.93
 -13 -10   8    1.79    1.82
 -13  11   0   32.42    7.96
 -13 -11   0   12.06    7.66
 -13  11   1   11.62    4.78
 -13  11  -1   10.31    3.79
 -13 -11  -1   12.17    4.57
 -13 -11   1   11.13    4.93
  13 -11  -1   10.40    3.32
 -13 -11   1    9.29    4.05
 -13  11   2   21.18   10.06
 -13  11  -2   11.53    3.99
 -13 -11  -2   22.58    6.32
 -13 -11   2   16.19    7.09
  13 -11  -2   21.77   11.07
 -13 -11   2    7.51    5.72
 -13  11   3    2.59    2.13
 -13  11  -3    2.43    2.47
 -13 -11  -3    6.66    2.20
 -13 -11   3    4.16    1.84
  13 -11  -3   -0.65    4.16
 -13 -11   3    1.65    3.11
 -13  11   4   14.91    5.03
 -13  11  -4   22.95    6.86
 -13 -11  -4   13.09    5.45
 -13 -11   4   13.19    3.43
  13 -11  -4   13.44    5.77
 -13 -11   4   10.69    6.62
 -13  11  -5    7.86    4.81
  13 -11  -5   22.54    6.52
 -13 -11  -5   11.50    5.70
  13 -11  -5   18.36    6.05
 -13 -11   5   17.89    7.84
 -13  11  -6    3.02    4.48
  13 -11  -6    7.00    4.80
 -13 -11  -6    7.22    4.96
  13 -11  -6    3.92    5.86
 -13 -11   6    8.74    3.36
 -13  12   0    1.84    2.61
 -13 -12   0    2.02    2.87
  13 -12   0    1.93    3.64
 -13  12   1    8.20    4.60
 -13  12  -1    7.94    2.84
 -13 -12  -1    8.37    7.97
 -13 -12   1    6.26    4.94
  13 -12  -1    6.33    3.73
 -13 -12   1    5.68    3.24
 -13  12   2    3.44    3.71
 -13  12  -2    6.98    4.26
 -13 -12  -2   16.16    4.82
 -13 -12   2    8.72    3.90
  13 -12  -2    4.08    5.98
 -13 -12   2    7.05    3.88
 -13  12   3   12.29    4.43
 -13  12  -3   10.15    4.27
 -13 -12  -3    8.02    6.01
 -13 -12   3    5.82    4.16
  13 -12  -3   12.73    5.69
 -13 -12   3    2.93    4.11
 -14   0   0  143.29    7.22
 -14   0   0  113.92   15.73
 -14   0  -1    8.21    3.32
  14   0  -1   13.07    4.28
 -14   0   1   10.71    3.75
 -14   0  -1   19.32    5.47
 -14   0  -2   38.07    8.80
  14   0  -2   25.96   10.23
 -14   0   2   25.80    8.24
 -14   0  -2   32.50    9.63
 -14   0  -3   57.21   12.31
  14   0  -3   49.69   16.13
 -14   0  -3   57.58   18.53
 -14   0  -4   34.80    7.91
  14   0  -4   21.46    8.10
 -14   0  -4   23.10    5.22
 -14   0   4   22.92    5.64
 -14   0  -5    5.39    2.81
  14   0  -5    5.33    3.56
 -14   0  -5    6.63    2.36
 -14   0   5    5.25    2.49
 -14   0  -6    8.50    3.15
  14   0  -6    4.11    2.89
 -14   0  -6    1.57    2.87
 -14   0   6    6.05    3.56
  14   0  -7    1.92    2.61
 -14   0  -7   12.53    5.06
 -14   0   7    6.72    2.58
  14   0  -8   19.21    6.73
 -14   0  -8   30.81    8.57
 -14   0   8   25.26    5.14
 -14   0  -9   19.90    5.78
  14   0  -9   28.51    7.54
 -14   0  -9   24.88    5.85
 -14   0   9   20.38    7.16
 -14   0 -10    0.90    1.59
  14   0 -10    6.29    5.01
 -14   0 -10    2.41    3.06
 -14   0  10    4.62    2.13
 -14   0 -11    1.75    4.23
  14   0 -11   -1.86    3.75
 -14   0 -11   12.58    6.86
 -14   0  11    4.64    2.86
 -14   0 -12   16.94    6.58
  14   0 -12   13.81    5.90
 -14   0 -12   22.62    7.38
 -14   0  12   13.52    7.41
  14   1   0   44.22   10.74
 -14   1   0   62.68    9.59
 -14  -1   0   59.38   17.41
 -14  -1  -1   29.39    6.49
  14   1  -1   15.90    6.94
 -14   1  -1   17.46    5.52
 -14  -1   1   24.51    6.38
 -14  -1  -1   16.82    6.60
 -14  -1  -2   35.26    7.90
  14   1  -2   31.02   11.02
  14  -1  -2   36.54   10.87
 -14   1  -2   39.64    9.56
 -14  -1   2   31.67   11.74
 -14  -1  -2   35.20    6.92
 -14  -1  -3    2.70    1.78
  14   1  -3    3.54    2.01
  14  -1  -3    1.56    2.12
 -14   1  -3   11.39    5.26
 -14  -1  -3    5.79    3.79
 -14  -1   3   13.42    5.64
 -14  -1  -4   48.40   13.46
  14   1  -4   39.60   12.95
  14  -1  -4   55.10   15.65
 -14  -1   4   55.52   10.13
 -14   1  -4   48.30   10.80
 -14  -1  -4   67.00   14.07
 -14  -1   4   47.07    8.90
 -14  -1  -5    6.20    3.37
  14   1  -5    6.60    3.15
  14  -1  -5   13.04    4.76
 -14   1  -5   10.31    3.47
 -14  -1  -5    8.05    2.96
 -14   1   5    2.48    2.47
 -14  -1   5    9.41    3.21
 -14  -1  -6   22.27    6.56
 -14   1  -6   25.92    6.41
  14   1  -6   21.14    9.78
  14  -1  -6   30.02    6.11
 -14   1  -6   21.32    4.97
 -14  -1  -6   23.40    6.71
 -14   1   6   16.09    5.45
 -14  -1   6   25.79    5.75
 -14  -1  -7    4.75    2.98
 -14   1  -7    7.26    4.68
  14   1  -7    1.44    2.26
  14  -1  -7    7.06    3.15
 -14   1  -7   -0.60    2.07
 -14  -1  -7    3.29    1.98
 -14   1   7    5.61    2.78
 -14  -1   7    7.37    3.36
 -14  -1  -8   22.80    6.58
 -14   1  -8   24.90    8.09
  14   1  -8   16.13    7.31
  14  -1  -8   23.23    6.39
 -14   1  -8   35.35   10.35
 -14  -1  -8   49.15    9.06
 -14   1   8   14.08    3.10
 -14  -1   8   36.63    9.73
 -14   1  -9    4.70    2.42
 -14  -1  -9   -0.02    1.99
  14  -1  -9    6.84    3.69
 -14   1  -9    9.95    4.22
 -14  -1  -9    2.87    2.13
 -14   1   9    3.29    2.21
 -14  -1   9    1.28    1.39
 -14   1 -10   11.97    5.83
  14   1 -10    5.67    4.63
  14  -1 -10   11.91    6.23
 -14   1 -10    7.26    4.18
 -14  -1 -10    9.54    5.90
 -14   1  10   10.96    3.09
 -14  -1  10    7.01    4.11
 -14   1 -11    0.66    2.66
 -14  -1 -11    1.95    1.38
  14   1 -11    4.03    2.72
  14  -1 -11    4.11    3.08
 -14   1 -11    1.59    2.80
 -14  -1 -11    6.07    2.78
 -14   1  11    2.18    2.99
 -14  -1  11    6.45    3.26
 -14   1 -12   14.83    6.93
  14  -1 -12   22.37   10.91
 -14   1 -12   19.73    5.70
 -14  -1 -12   20.74    8.72
 -14  -1  12   12.26    4.51
 -14   2   0    6.18    2.77
 -14  -2   0    2.98    3.09
 -14   2   1   12.65    3.30
 -14   2  -1   13.37    4.42
 -14  -2   1   10.09    3.89
 -14  -2  -1   19.99    5.12
 -14   2  -2   11.31    4.35
  14  -2  -2   18.12    6.23
 -14   2  -2   14.38    5.68
 -14  -2   2   11.82    3.43
 -14  -2  -2   10.60    3.26
 -14   2  -3   32.88   11.40
  14  -2  -3   33.25    6.61
 -14   2  -3   30.59    6.86
 -14  -2  -3   19.11    5.16
 -14  -2   3   28.26    7.85
 -14   2  -4   -0.10    2.39
  14  -2  -4    1.49    3.01
 -14   2  -4    6.47    2.49
 -14  -2   4    2.97    2.16
 -14  -2  -4   11.28    4.97
 -14  -2   4    4.16    2.00
 -14   2  -5   12.38    6.56
  14  -2  -5   14.30    6.63
 -14  -2   5    9.77    3.74
 -14   2  -5   34.28    8.75
 -14  -2  -5   15.72    4.45
 -14  -2   5   19.84    6.38
 -14   2  -6   25.03   10.30
  14  -2  -6   31.10    8.49
 -14   2  -6   33.39    9.17
 -14  -2  -6   41.06    8.20
 -14   2   6   22.63    6.54
 -14  -2   6   24.08    6.80
 -14   2  -7    4.60    2.15
  14  -2  -7   10.70    5.73
 -14   2  -7    4.00    3.23
 -14  -2  -7    3.44    3.67
 -14   2   7    0.64    1.83
 -14  -2   7    7.82    3.97
 -14   2  -8    6.61    4.79
  14  -2  -8    4.66    2.69
 -14   2  -8    2.16    2.93
 -14  -2  -8    7.03    5.78
 -14   2   8    2.80    2.01
 -14  -2   8    2.51    1.51
 -14   2  -9   11.91    3.43
  14  -2  -9   17.55    9.15
 -14   2  -9   22.42    7.46
 -14  -2  -9   22.35    8.89
 -14  -2   9   20.90    5.98
 -14   2 -10   11.61    4.31
  14  -2 -10   13.69    4.36
 -14   2 -10   14.38    4.77
 -14  -2 -10   10.48    6.91
 -14  -2  10   13.85    7.50
 -14   2 -11    5.53    2.60
  14  -2 -11   10.33    4.91
 -14   2 -11    8.34    4.33
 -14  -2 -11    4.97    2.84
 -14  -2  11    8.19    4.00
 -14   2 -12    2.75    2.44
  14  -2 -12    6.16    4.21
 -14   2 -12    1.80    2.21
 -14  -2 -12    6.28    3.90
 -14  -2  12    4.36    3.13
 -14  -3   0    4.59    2.87
 -14   3   1   24.56    8.22
 -14   3  -1   23.92    6.04
 -14  -3   1   11.43    3.91
 -14  -3  -1    6.62    2.96
 -14   3   2   11.89    4.17
 -14   3  -2    7.93    2.87
 -14  -3   2   11.79    5.06
 -14  -3  -2    7.02    5.36
 -14  -3   2   10.86    2.83
 -14   3  -3    3.93    3.14
  14  -3  -3    2.27    1.88
 -14  -3  -3    3.28    2.07
 -14  -3   3    4.68    3.20
 -14   3  -4   15.84    5.42
  14  -3  -4    8.62    2.90
 -14  -3   4    9.47    3.89
 -14  -3  -4   16.07    5.83
 -14  -3   4   12.45    5.81
 -14   3  -5   32.64    8.30
 -14  -3  -5   36.45    8.10
 -14  -3   5   25.62    6.70
 -14   3  -6    8.64    3.97
  14  -3  -6    5.03    3.85
 -14  -3  -6    8.52    4.16
 -14  -3   6    9.97    5.79
 -14   3  -7   55.08   10.55
  14  -3  -7   30.87   15.46
 -14   3  -7   52.46   11.97
 -14  -3  -7   41.01   10.25
 -14  -3   7   41.01   11.09
 -14   3  -8   16.95    5.23
  14  -3  -8   11.85    4.29
 -14   3  -8   26.76    7.30
 -14  -3   8    7.90    4.11
 -14   3  -9    6.63    4.16
  14  -3  -9   -1.18    3.92
 -14   3  -9   13.38    4.45
 -14  -3  -9    4.72    4.51
 -14  -3   9    4.92    2.05
 -14   3 -10    6.64    4.17
  14  -3 -10   23.67    6.23
 -14   3 -10   16.09    5.79
 -14  -3 -10   15.35    5.44
 -14  -3  10   22.52    5.95
 -14   3 -11   16.44    5.13
  14  -3 -11   16.60    3.91
 -14   3 -11    7.18    4.71
 -14  -3 -11   16.19    7.94
 -14  -3  11    7.19    4.79
 -14   3 -12    8.77    3.66
  14  -3 -12   17.26    6.54
 -14   3 -12    3.16    2.25
 -14  -3 -12   13.06    5.57
 -14  -3  12    4.04    3.34
 -14   4   0   -0.58    2.22
 -14  -4   0    4.59    2.93
 -14   4   1   37.91    9.40
 -14   4  -1   35.11   10.31
 -14  -4   1   23.29    5.79
 -14  -4  -1   31.42    7.82
 -14   4   2   23.85    7.38
 -14   4  -2   16.92   15.81
 -14  -4   2   16.85    3.81
 -14  -4  -2   14.88    5.65
 -14  -4   2    7.92    2.33
 -14   4  -3   26.93   11.59
  14  -4  -3   24.47    8.08
 -14  -4  -3   29.46    7.46
 -14  -4   3   26.43    4.57
 -14   4  -4   10.66    4.87
  14  -4  -4   17.84    5.38
 -14  -4  -4   26.15    5.97
 -14  -4   4   20.33    4.97
 -14   4  -5    2.26    2.35
  14  -4  -5    8.40    3.40
 -14  -4  -5    5.05    3.38
 -14  -4   5    6.64    3.51
 -14   4  -6    9.57    3.00
  14  -4  -6    8.94    4.48
 -14  -4  -6    7.37    4.03
 -14  -4   6    5.78    3.00
 -14   4  -7    6.00    2.89
  14  -4  -7   12.19    4.81
 -14  -4  -7    4.63    3.20
 -14  -4   7    4.09    3.59
 -14   4  -8   24.27    9.43
  14  -4  -8   30.39    9.13
 -14  -4  -8   13.36    5.19
 -14  -4   8   22.79    5.26
 -14   4  -9   13.05    6.15
  14  -4  -9   21.08    7.24
 -14  -4  -9    8.85    4.72
 -14  -4   9   15.20    5.09
 -14   4 -10    7.73    4.15
  14  -4 -10    5.16    3.25
 -14  -4 -10    7.65    4.28
 -14  -4  10    5.65    4.28
 -14   4 -11    7.07    5.17
  14  -4 -11    3.46    3.36
 -14  -4 -11   11.59    6.03
 -14  -4  11    5.27    4.38
 -14   5   0    3.34    1.59
 -14  -5   0    3.31    2.56
 -14   5   1   27.61    9.46
 -14   5  -1   30.26    8.23
 -14  -5   1   31.88    7.57
 -14  -5  -1   28.64    6.64
 -14   5   2    4.80    3.45
 -14   5  -2    4.54    2.90
 -14  -5   2    4.71    2.21
 -14  -5  -2    0.48    1.79
 -14  -5   2   -1.01    3.27
 -14   5  -3   12.73    3.38
  14  -5  -3   26.18    6.23
 -14  -5  -3    8.12    3.80
 -14  -5   3    8.32    3.74
  14  -5  -4    4.84    3.17
 -14  -5   4    2.04    1.65
 -14  -5  -4    1.61    2.44
 -14  -5   4    5.71    3.90
 -14   5  -5   27.97   11.88
  14  -5  -5   41.75   12.07
 -14  -5  -5   49.02   10.62
 -14  -5   5   31.79    8.55
 -14   5  -6    3.63    3.52
  14  -5  -6   15.08    6.35
 -14  -5  -6   11.90    4.25
 -14  -5   6   10.93    4.64
 -14   5  -7   25.73   12.42
  14  -5  -7   35.57    7.82
 -14  -5  -7   30.13   10.09
 -14  -5   7   25.85    5.69
 -14   5  -8    5.90    2.85
  14  -5  -8    4.86    2.26
 -14  -5  -8    6.68    4.93
 -14  -5   8    2.26    1.93
 -14   5  -9    4.08    3.23
  14  -5  -9    5.37    3.94
 -14  -5  -9    6.04    3.10
 -14  -5   9    4.00    2.90
 -14   5 -10    7.68    2.51
  14  -5 -10    2.09    3.99
 -14  -5 -10    6.00    2.75
 -14  -5  10   -0.01    3.68
 -14   5 -11   15.51    7.14
  14  -5 -11    6.39    4.90
 -14  -5 -11    9.61    5.01
 -14  -5  11    9.79    5.53
 -14   6   0    5.44    2.72
 -14  -6   0    6.86    3.14
 -14   6   1    6.16    4.09
 -14   6  -1    3.04    2.35
 -14  -6   1    8.16    3.57
 -14  -6  -1    5.81    3.00
 -14   6   2   17.22    5.20
 -14   6  -2   17.91    9.86
 -14  -6   2   14.79    8.24
 -14  -6  -2   17.80    3.92
 -14  -6   2   10.23    6.27
 -14   6   3   35.91    8.01
 -14   6  -3   34.49    9.68
 -14  -6  -3   26.07    5.22
 -14  -6   3   35.56    7.06
 -14   6  -4   12.35    4.59
  14  -6  -4   10.70    4.20
 -14  -6   4   14.15    6.00
 -14  -6  -4    6.01    2.84
 -14  -6   4   16.16    4.59
 -14   6  -5   13.04    5.08
  14  -6  -5   13.55    3.96
 -14  -6  -5   14.57    3.78
 -14  -6   5   15.27    6.01
 -14   6  -6    4.75    4.24
  14  -6  -6    3.77    2.71
 -14  -6  -6    4.44    1.76
 -14  -6   6    1.98    1.67
 -14   6  -7    8.83    2.70
  14  -6  -7   15.49    8.52
 -14  -6  -7    6.01    3.26
 -14  -6   7   14.75    4.17
 -14   6  -8    8.48    5.02
  14  -6  -8   10.90    4.72
 -14  -6  -8    2.14    2.90
 -14  -6   8    8.05    2.67
 -14   6  -9   18.39    4.48
  14  -6  -9   26.44    8.70
 -14  -6  -9   22.75    6.31
 -14  -6   9   25.46    9.90
 -14   6 -10   10.38    4.65
  14  -6 -10    7.75    4.18
 -14  -6 -10   11.13    4.28
 -14  -6  10   10.32    4.30
 -14   7   0    4.84    3.83
 -14  -7   0    6.14    2.89
 -14   7   1   30.76    7.53
 -14   7  -1   30.60    7.36
 -14  -7   1   24.67    7.51
 -14  -7  -1   25.31    9.91
 -14  -7   1   26.64    7.44
 -14   7   2    4.70    3.41
 -14   7  -2    3.63    4.11
 -14  -7   2    6.51    2.90
 -14  -7  -2   10.25    4.16
 -14  -7   2    5.85    3.35
 -14   7   3    2.41    2.16
 -14   7  -3    7.66    4.35
 -14  -7   3    1.66    1.28
 -14  -7  -3    3.82    2.87
 -14  -7   3    6.98    3.11
 -14   7  -4   11.75    5.56
  14  -7  -4   27.06    7.08
 -14  -7   4   16.28    4.00
 -14  -7  -4   14.43    5.99
 -14  -7   4   16.03    5.17
 -14   7  -5   51.96   11.96
  14  -7  -5   33.40   10.64
 -14  -7  -5   37.98   11.67
 -14  -7   5   44.74   11.58
 -14   7  -6    8.96    2.80
  14  -7  -6   10.57    3.08
 -14  -7  -6   23.31    7.86
 -14  -7   6   18.30    4.94
 -14   7  -7   26.67    9.93
  14  -7  -7   20.98    5.63
 -14  -7  -7   21.75    7.22
 -14   7  -8   25.29   10.43
  14  -7  -8   13.22    7.00
 -14  -7  -8   15.41    4.82
 -14  -7   8   13.07    5.92
 -14   7  -9    5.90    2.76
  14  -7  -9    2.30    4.60
 -14  -7  -9    6.92    2.88
 -14  -7   9    4.42    3.36
 -14   8   0   37.52   16.46
 -14  -8   0   33.38   10.36
 -14   8   1    7.72    4.11
 -14   8  -1    6.54    3.71
 -14  -8   1    9.92    3.72
 -14  -8  -1    6.39    4.31
 -14  -8   1    6.56    4.60
 -14   8   2    9.03    5.14
 -14   8  -2   13.86    6.74
 -14  -8   2    5.51    2.01
 -14  -8  -2   11.29    4.16
 -14  -8   2   12.99    5.63
 -14   8   3    8.46    4.21
 -14   8  -3   10.26    4.13
 -14  -8   3    7.86    3.05
 -14  -8  -3   16.02    6.32
 -14  -8   3   11.86    4.82
 -14   8  -4   33.03    9.20
  14  -8  -4   27.60    9.86
 -14  -8  -4   25.68    6.84
 -14  -8   4   20.54    8.60
 -14   8  -5    6.49    3.64
  14  -8  -5   14.94    5.06
 -14  -8  -5    6.09    4.57
  14  -8  -5   -0.67    3.74
 -14  -8   5    5.98    4.65
 -14   8  -6   11.64    4.15
  14  -8  -6   15.89    5.84
 -14  -8  -6    5.91    3.51
 -14  -8   6    9.49    4.78
 -14   8  -7   16.26    4.86
  14  -8  -7    7.31    3.31
 -14  -8  -7    5.68    3.01
 -14  -8   7    9.82    3.67
 -14   8  -8   11.46    4.79
  14  -8  -8   15.41    7.93
 -14  -8  -8   20.14    4.96
 -14  -8   8   11.07    3.02
 -14  -9   0   25.76   10.24
 -14   9   1   12.35    4.10
 -14   9  -1    6.29    3.79
 -14  -9   1    6.70    2.71
 -14  -9  -1    9.64    3.74
 -14  -9   1    5.95    4.99
 -14   9   2   15.78    3.97
 -14   9  -2   10.80    4.94
 -14  -9  -2   13.68    5.83
 -14  -9   2   10.60    4.99
 -14  -9   2   20.12    4.92
 -14   9   3    3.70    3.22
 -14   9  -3    5.83    4.30
 -14  -9   3    3.45    2.18
 -14  -9  -3    2.28    2.92
 -14  -9   3    8.46    4.95
 -14   9  -4    6.44    3.02
  14  -9  -4    7.14    3.27
 -14  -9  -4    2.08    2.11
  14  -9  -4   -0.13    4.09
 -14  -9   4   -1.88    3.16
 -14   9  -5   10.20    4.30
  14  -9  -5   12.42    4.25
 -14  -9  -5    7.87    4.19
  14  -9  -5    4.84    3.92
 -14  -9   5   14.19    4.75
 -14   9  -6    8.76    2.50
  14  -9  -6   10.88    5.49
 -14  -9  -6    6.25    3.63
 -14  -9   6    3.52    3.29
 -14   9  -7   14.13    5.26
  14  -9  -7    9.44    5.35
 -14  -9  -7   10.86    4.53
 -14  -9   7    7.66    5.10
 -14  10   0    4.83    3.42
 -14 -10   0    4.40    3.56
 -14  10   1   17.23    6.63
 -14  10  -1   21.95    5.42
 -14 -10  -1   14.88    7.10
 -14 -10   1   19.00    5.78
 -14 -10   1   16.82    6.82
 -14  10   2   15.34    5.29
 -14  10  -2    9.48    3.82
 -14 -10  -2   26.60    6.47
 -14 -10   2    5.94    2.70
 -14 -10   2   14.08    4.13
 -14  10   3    7.01    3.07
 -14  10  -3    6.11    2.93
 -14 -10  -3   15.49    5.65
 -14 -10   3    6.60    3.96
  14 -10  -3    5.79    3.11
 -14  10  -4    2.51    3.65
  14 -10  -4   14.05    6.78
 -14 -10  -4    5.87    4.79
  14 -10  -4    5.71    5.18
 -14 -10   4    6.57    3.84
 -14  10  -5    5.26    3.94
  14 -10  -5    4.38    4.63
 -14 -10  -5    6.51    4.15
  14 -10  -5    7.48    5.36
 -14 -10   5    4.37    2.54
 -14  11   0    5.98    4.16
 -14 -11   0    5.52    3.12
 -14  11   1    4.23    2.94
 -14  11  -1    2.00    3.32
 -14 -11  -1    4.06    2.28
 -14 -11   1    4.68    2.26
 -14 -11   1    3.86    2.50
 -14  11   2   17.84    5.08
 -14  11  -2    8.90    3.05
 -14 -11   2    8.51    3.69
 -14 -11  -2    5.13    4.96
  14 -11  -2   10.95    3.89
 -14 -11   2    9.69    4.17
  15   0   0    2.91    1.63
 -15   0   0    0.37    2.55
 -15   0  -1   32.70   14.04
  15   0  -1   33.45    7.65
 -15   0   1   35.75    7.78
 -15   0  -1   46.31    5.75
 -15   0  -2   15.14    3.90
  15   0  -2    7.85    2.93
 -15   0  -2   12.51    4.65
 -15   0  -3   46.41   17.64
  15   0  -3   36.90   14.52
 -15   0  -3   76.64   18.06
 -15   0  -4    3.98    2.49
  15   0  -4    7.53    4.64
 -15   0  -5   13.24    5.15
  15   0  -5   12.09    4.88
 -15   0  -5   20.44    8.22
 -15   0   5   12.80    4.03
 -15   0  -6   -0.48    2.29
  15   0  -6    7.74    3.75
 -15   0  -6    4.74    2.72
 -15   0   6    2.77    2.35
 -15   0  -7    2.53    1.91
 -15   0  -7    3.34    2.63
 -15   0   7    8.80    2.27
  15   0  -8    6.39    2.96
 -15   0  -8    5.89    2.28
 -15   0   8    8.24    3.05
 -15   0  -9   20.10    7.46
 -15   0   9   16.57    6.83
 -15   0 -10    8.03    3.55
 -15   0  10    3.75    2.22
 -15   1   0    8.51    4.22
 -15  -1   0   12.19    3.56
 -15   1  -1    7.37    2.07
  15  -1  -1   11.76    3.81
 -15  -1   1    9.75    4.45
 -15  -1  -1    9.73    2.86
 -15   1  -2   27.43    8.98
  15  -1  -2   21.24   12.67
 -15   1  -2   22.66    7.89
 -15  -1   2   33.98    8.42
 -15  -1  -2   27.45    8.73
 -15   1  -3    2.52    2.54
  15  -1  -3    4.70    2.93
 -15   1  -3    6.17    3.23
 -15  -1  -3    2.66    1.49
  15  -1  -4    8.98    4.35
 -15   1  -4    1.82    2.50
 -15  -1  -4    2.64    2.30
 -15  -1   4    7.21    1.68
  15  -1  -5   16.06    3.92
 -15   1  -5   24.96    9.90
 -15  -1  -5   18.60    5.53
 -15  -1   5   12.00    6.46
  15  -1  -6    5.88    3.40
 -15   1  -6    6.24    2.55
 -15  -1  -6    6.80    3.30
 -15  -1   6    2.34    2.00
 -15   1  -7    8.52    5.10
  15  -1  -7   10.27    3.84
 -15   1  -7   11.00    5.27
 -15  -1  -7    8.60    3.69
 -15   1   7    2.81    2.37
 -15  -1   7   13.45    6.52
 -15   1  -8   14.88    4.88
  15  -1  -8    7.33    3.89
 -15   1  -8    7.46    3.10
 -15  -1  -8    9.21    2.94
 -15  -1   8   11.39    4.03
 -15   1  -9    7.66    4.37
  15  -1  -9    6.14    3.25
 -15   1  -9   11.75    4.96
 -15  -1  -9    7.45    2.14
 -15  -1   9    4.11    2.64
 -15   1 -10   10.34    4.30
  15  -1 -10    5.46    3.16
 -15   1 -10   25.28    6.49
 -15  -1 -10   26.53    7.37
 -15  -1  10    9.03    4.55
 -15   2   0    2.32    2.90
 -15  -2   0    3.27    3.86
 -15   2   1   10.87    4.64
 -15   2  -1    3.19    2.41
 -15  -2   1    9.83    2.55
 -15  -2  -1    3.75    1.52
 -15   2  -2    9.54    3.71
  15  -2  -2    3.87    2.96
 -15  -2   2    6.09    3.03
 -15  -2  -2   12.31    4.77
 -15   2  -3    8.31    3.78
  15  -2  -3    7.94    4.46
 -15  -2  -3   12.64    4.70
 -15   2  -4    4.62    2.42
  15  -2  -4    4.79    3.11
 -15   2  -4   -0.97    2.81
 -15  -2   4   -0.11    1.73
 -15  -2  -4    3.87    1.84
 -15  -2   4    6.33    2.69
 -15   2  -5   22.18    6.56
  15  -2  -5   10.06    5.62
 -15   2  -5   22.23    4.78
 -15  -2  -5   26.18    7.37
 -15  -2   5   15.40    4.54
 -15   2  -6   15.27    6.40
  15  -2  -6   18.60    5.83
 -15   2  -6   27.85    7.71
 -15  -2  -6    9.15    4.38
 -15  -2   6   22.50    8.04
 -15   2  -7   31.94   12.17
  15  -2  -7   18.16    9.71
 -15   2  -7   18.31    5.65
 -15  -2  -7   24.21    9.21
 -15   2  -8    3.88    3.64
  15  -2  -8    5.17    3.48
 -15   2  -8    7.71    2.78
 -15  -2  -8    3.15    3.84
 -15  -2   8    1.21    2.76
 -15   2  -9   19.93    4.00
  15  -2  -9   11.73    8.53
 -15   2  -9    5.56    2.47
 -15  -2  -9   20.44    9.30
 -15  -2   9   24.47    8.04
 -15   2 -10    6.70    4.33
  15  -2 -10    8.67    4.13
 -15   2 -10    9.99    4.27
 -15  -2 -10    7.22    2.58
 -15  -2  10    8.16    4.54
 -15   3   0    6.28    3.34
 -15  -3   0    7.12    2.48
 -15   3   1   24.44    6.36
 -15   3  -1   21.77    4.19
 -15  -3   1   18.21    6.29
 -15  -3  -1   21.84    5.65
 -15   3  -2    3.12    2.93
  15  -3  -2    7.23    3.83
 -15  -3   2    5.88    2.88
 -15  -3  -2    3.48    1.80
 -15   3  -3   27.43    8.26
  15  -3  -3   19.71    5.71
 -15  -3  -3   17.49    7.28
 -15  -3   3   15.31    3.69
 -15   3  -4   20.02    5.28
  15  -3  -4    9.76    4.19
 -15  -3   4   18.47    4.99
 -15  -3   4   18.73    6.08
 -15   3  -5    8.20    5.26
  15  -3  -5    7.71    2.55
 -15  -3  -5    9.02    3.34
 -15  -3   5    6.44    4.30
 -15   3  -6    2.06    2.50
  15  -3  -6    3.71    2.96
 -15  -3  -6    1.10    1.81
 -15  -3   6    3.69    4.22
 -15   3  -7    4.37    2.97
  15  -3  -7    3.45    2.09
 -15  -3  -7    4.12    2.86
 -15  -3   7   -0.23    2.95
 -15   3  -8   30.69   13.77
  15  -3  -8   18.42   10.74
 -15  -3  -8   25.63    7.09
 -15  -3   8   39.60   10.23
 -15   3  -9    4.51    2.34
  15  -3  -9    5.83    3.64
 -15  -3  -9    4.30    3.58
 -15  -3   9    2.56    1.74
  15  -3 -10   -0.05    3.64
 -15  -3 -10    9.32    5.02
 -15  -3  10    4.81    2.77
 -15   4   0   49.69   10.73
 -15  -4   0   43.34    8.56
 -15   4   1    9.03    4.68
 -15   4  -1    8.03    6.37
 -15  -4   1    5.10    3.52
 -15  -4  -1    8.25    2.78
 -15   4  -2    5.41    3.26
 -15  -4   2    2.80    1.70
 -15  -4  -2    1.55    1.64
 -15   4  -3    8.49    3.48
  15  -4  -3   14.52    4.24
 -15  -4  -3    8.35    3.09
 -15  -4   3   14.00    6.62
 -15   4  -4   28.05    5.97
  15  -4  -4   19.07    7.10
 -15  -4  -4   24.46    7.19
 -15  -4   4   22.96    5.46
 -15   4  -5    8.42    3.53
  15  -4  -5    4.14    3.20
 -15  -4  -5    2.45    2.00
 -15  -4   5    3.69    1.97
 -15   4  -6    2.67    3.96
  15  -4  -6    8.01    2.98
 -15  -4  -6    3.60    2.63
 -15  -4   6    3.51    2.27
 -15   4  -7    4.79    5.17
  15  -4  -7    7.84    3.79
 -15  -4  -7    5.62    4.03
 -15  -4   7    2.56    2.84
 -15   4  -8    9.45    3.44
  15  -4  -8   11.11    4.48
 -15  -4  -8    4.90    2.14
 -15  -4   8    0.82    2.52
 -15   4  -9    8.59    5.28
  15  -4  -9    5.74    4.06
 -15  -4  -9   13.47    5.12
 -15  -4   9    4.81    4.20
 -15   5   0    4.95    2.39
 -15  -5   0    3.99    2.18
 -15   5   1    5.24    3.79
 -15   5  -1   14.04    4.11
 -15  -5   1    4.16    2.00
 -15  -5  -1    5.95    3.23
 -15   5   2   24.91    7.64
 -15   5  -2   22.07    5.76
 -15  -5   2   18.60    5.23
 -15  -5  -2   15.13    3.99
 -15   5  -3   38.47    9.33
  15  -5  -3   36.52   17.70
 -15  -5  -3   37.89   10.57
 -15  -5   3   40.86   10.95
 -15   5  -4    7.14    2.74
  15  -5  -4    3.84    1.90
 -15  -5  -4   11.37    4.82
 -15  -5   4    8.68    4.58
 -15   5  -5    6.20    3.82
  15  -5  -5    5.39    4.64
 -15  -5  -5    6.00    2.66
 -15  -5   5   -0.88    3.34
 -15   5  -6    0.34    3.50
  15  -5  -6    3.87    2.91
 -15  -5  -6    8.48    5.82
 -15  -5   6   10.60    5.45
 -15   5  -7    7.65    3.42
  15  -5  -7    6.07    3.90
 -15  -5  -7   18.37    6.87
 -15  -5   7    2.50    4.28
 -15   5  -8   10.98    7.45
  15  -5  -8   15.18    4.70
 -15  -5  -8    8.72    4.36
 -15  -5   8    7.29    3.43
 -15   5  -9    7.72    3.57
  15  -5  -9    9.15    6.51
 -15  -5  -9    6.68    3.74
 -15  -5   9    9.58    4.44
 -15   6   0    5.30    3.79
 -15  -6   0    2.66    2.49
 -15   6   1    9.14    4.58
 -15   6  -1    2.14    2.80
 -15  -6   1    9.47    2.70
 -15  -6  -1    6.62    2.53
 -15   6   2    7.83    4.10
 -15   6  -2    5.97    3.19
 -15  -6   2    4.22    1.93
 -15  -6  -2    7.15    4.04
 -15  -6   2   12.39    4.34
 -15   6  -3    3.18    2.26
  15  -6  -3    6.73    2.57
 -15  -6  -3    4.94    2.99
 -15  -6   3    4.65    5.40
 -15   6  -4    9.00    5.51
  15  -6  -4   14.89    4.29
 -15  -6  -4    2.55    2.74
 -15  -6   4   11.07    5.27
 -15   6  -5    6.84    3.15
  15  -6  -5    4.01    2.58
 -15  -6  -5    6.23    3.16
 -15  -6   5    2.11    3.12
 -15   6  -6   78.72   21.93
  15  -6  -6   61.78   24.82
 -15  -6  -6   53.87   18.30
 -15  -6   6   72.49   26.08
 -15   6  -7    4.59    3.44
  15  -6  -7    8.18    4.05
 -15  -6  -7    7.72    3.62
 -15  -6   7    2.35    2.09
 -15   6  -8    6.36    4.03
  15  -6  -8    7.66    4.53
 -15  -6  -8    7.70    3.23
 -15  -6   8    5.02    3.28
 -15   7   0    8.09    4.04
 -15  -7   0    5.02    4.28
 -15   7   1    2.71    1.91
 -15   7  -1    5.07    3.49
 -15  -7   1    3.17    2.23
 -15  -7  -1    3.34    1.79
 -15   7   2   23.56    6.26
 -15   7  -2   24.50    8.56
 -15  -7   2   18.20    6.59
 -15  -7  -2   16.27    6.34
 -15  -7   2   27.15    8.36
 -15   7  -3   32.84   10.63
  15  -7  -3   12.21    4.24
 -15  -7   3   20.69    6.06
 -15  -7  -3   30.85    7.55
 -15  -7   3   27.85    8.07
 -15   7  -4    9.10    4.45
  15  -7  -4    4.64    2.54
 -15  -7  -4   11.41    2.90
 -15  -7   4    5.48    4.60
 -15   7  -5   19.09    5.41
  15  -7  -5    9.97    4.62
 -15  -7  -5   21.26    5.44
 -15  -7   5   14.44    7.82
 -15   7  -6   -1.09    3.35
  15  -7  -6   -0.33    4.60
 -15  -7  -6    3.89    3.95
 -15  -7   6    7.41    3.46
 -15   7  -7   10.10    3.80
  15  -7  -7    4.87    6.84
 -15  -7  -7   10.98    4.47
 -15  -7   7   28.31    8.44
 -15   8   0   50.20   14.05
 -15  -8   0   37.22   11.96
 -15   8   1   18.64    7.62
 -15   8  -1    6.26    4.65
 -15  -8   1    4.78    1.78
 -15  -8  -1    5.58    2.81
 -15   8   2    2.64    3.24
 -15   8  -2    5.66    3.46
 -15  -8   2    4.67    3.09
 -15  -8  -2    1.67    2.97
 -15  -8   2    2.77    2.76
 -15   8   3    3.30    2.41
 -15   8  -3    7.99    4.25
 -15  -8   3    5.54    2.72
 -15  -8  -3   12.79    5.84
 -15  -8   3    9.43    5.57
 -15   8  -4    4.90    2.83
  15  -8  -4    7.82    4.66
 -15  -8  -4    3.97    2.35
 -15  -8   4    9.84    4.98
 -15   8  -5    6.62    3.42
  15  -8  -5    7.40    5.54
 -15  -8  -5    6.98    3.47
 -15  -8   5   12.00    3.36
 -15   8  -6    6.13    2.78
  15  -8  -6    7.63    3.75
 -15  -8  -6    5.19    5.63
 -15  -8   6    6.73    2.73
 -15   9   0   -0.75    4.08
 -15  -9   0    1.84    3.54
 -15   9   1   26.52   11.19
 -15   9  -1   12.58    3.49
 -15  -9   1   32.00    9.91
 -15  -9  -1   25.13    7.81
 -15   9   2   11.26    3.94
 -15   9  -2   16.69    6.66
 -15  -9   2    4.11    2.58
 -15  -9  -2   12.01    5.01
 -15  -9   2    6.53    2.98
 -15   9   3    7.90    3.58
 -15   9  -3    9.68    3.03
 -15  -9  -3    5.08    2.78
 -16   0   0   12.40    6.61
 -16   0  -1    9.88    3.50
 -16   0  -2   10.04    4.01
 -16   0  -3    9.62    2.56
 -16   0  -4    3.71    2.58
 -16   0  -5    4.26    2.31
 -16   0  -6    4.83    3.56
 -16   0   6    0.63    1.30
 -16   0  -7   27.00    9.24
 -16   0   7   16.18    5.94
 -16   0  -8    7.53    3.68
 -16   0   8    4.00    3.63
 -16  -1   0    5.64    2.84
 -16  -1   1   20.01    3.49
 -16  -1  -1    6.70    3.70
 -16   1  -2   12.65    6.26
 -16  -1   2    8.61    4.87
 -16  -1  -2   20.08    5.02
 -16   1  -3   14.64    6.08
 -16  -1  -3    6.76    4.37
 -16   1  -4    5.05    2.48
 -16  -1  -4    5.29    1.89
 -16   1  -5    6.91    3.94
 -16  -1  -5    4.16    3.41
 -16  -1   5    2.45    1.84
 -16   1  -6   31.22    7.37
 -16  -1  -6   23.49    5.85
 -16  -1   6   20.39    6.78
 -16   1  -7    8.83    4.35
 -16  -1  -7    7.16    3.07
 -16  -1   7    6.88    4.85
 -16   1  -8    5.95    2.53
 -16  -1  -8    6.60    3.16
 -16  -1   8    3.53    4.86
 -16  -2   0    2.18    1.81
  16  -2  -1   16.34    4.34
 -16  -2   1   11.23    6.14
 -16  -2  -1   13.46    4.47
  16  -2  -2   12.78    5.81
 -16  -2   2   12.25    3.53
 -16  -2  -2   13.45    4.22
 -16   2  -3    6.41    2.46
  16  -2  -3    9.93    3.19
 -16  -2  -3   23.38    5.28
 -16   2  -4   12.14    4.67
  16  -2  -4    3.17    3.50
 -16  -2  -4    8.61    3.00
 -16   2  -5    4.08    2.37
  16  -2  -5   -2.28    2.88
 -16   2  -5   12.79    3.33
 -16  -2  -5    5.66    3.66
 -16  -2   5    1.31    3.63
 -16   2  -6    1.48    1.58
  16  -2  -6    4.27    2.81
 -16   2  -6   -0.24    3.18
 -16  -2  -6    9.25    4.41
 -16  -2   6    6.43    4.02
 -16   2  -7    4.63    5.23
  16  -2  -7    6.85    3.55
 -16   2  -7    7.36    3.67
 -16  -2  -7    9.65    3.77
 -16  -2   7    4.24    2.16
 -16   2  -8    1.33    2.14
  16  -2  -8    6.09    3.11
 -16   2  -8    5.93    3.03
 -16  -2  -8    5.54    4.71
 -16  -2   8    2.11    1.76
 -16   3   0   12.98    6.77
 -16  -3   0   17.67    5.91
 -16   3  -1    6.55    3.72
 -16  -3   1    8.79    3.19
 -16  -3  -1    4.40    3.01
 -16   3  -2    2.97    3.03
  16  -3  -2    4.93    2.83
 -16  -3   2    2.06    1.83
 -16  -3  -2    1.40    2.59
 -16   3  -3    4.39    1.87
  16  -3  -3    4.92    2.36
 -16  -3  -3    4.70    2.59
 -16   3  -4   10.40    4.41
  16  -3  -4    6.96    4.29
 -16  -3  -4    8.75    4.06
 -16  -3   4    5.79    2.65
 -16   3  -5    9.42    4.54
  16  -3  -5    4.38    2.99
 -16  -3  -5   15.86    5.22
 -16  -3   5   13.64    5.71
 -16   3  -6    8.42    3.72
  16  -3  -6   16.25    4.49
 -16  -3  -6    6.58    2.55
 -16  -3   6    2.90    2.80
 -16   3  -7   12.50    5.54
  16  -3  -7    5.56    8.02
 -16  -3  -7    7.86    3.50
 -16  -3   7   17.14    7.87
 -16   4   0    8.57    4.13
 -16  -4   0    2.55    1.75
 -16   4   1    4.46    2.86
 -16   4  -1    8.55    3.71
 -16  -4   1   -0.87    2.35
 -16  -4  -1   12.38    5.28
 -16   4  -2    6.70    3.36
  16  -4  -2    2.82    2.21
 -16  -4   2    2.15    1.27
 -16  -4  -2    1.60    2.78
 -16   4  -3    2.89    2.23
  16  -4  -3   10.43    4.58
 -16  -4  -3    8.33    4.60
 -16   4  -4   17.51    7.12
  16  -4  -4   18.17    6.51
 -16  -4  -4   25.12    8.41
 -16  -4   4   42.50    6.91
 -16   4  -5   12.14    5.22
  16  -4  -5   10.47    3.62
 -16  -4  -5    2.87    2.54
 -16  -4   5    4.14    3.27
 -16   4  -6    6.42    3.85
  16  -4  -6    0.76    3.58
 -16  -4  -6    5.22    5.60
 -16  -4   6    4.33    4.06
 -16   4  -7    3.57    2.05
  16  -4  -7    6.21    4.08
 -16  -4  -7    9.69    5.67
 -16  -4   7    6.91    4.07
 -16   5   0    3.20    3.10
 -16  -5   0    2.44    2.52
 -16   5   1   11.85    6.04
 -16   5  -1    9.73    3.05
 -16  -5   1    8.11    4.44
 -16  -5  -1    4.39    3.72
 -16   5  -2    3.59    3.75
  16  -5  -2    1.48    3.85
 -16  -5   2    3.05    3.04
 -16  -5  -2    6.63    2.10
 -16   5  -3    7.68    3.94
  16  -5  -3    5.26    3.22
 -16  -5  -3    1.86    2.35
 -16   5  -4    8.97    3.72
  16  -5  -4    6.27    3.44
 -16  -5  -4   13.33    4.44
 -16  -5   4    6.68    2.45
 -16   5  -5   31.04   10.81
  16  -5  -5   36.41   13.94
 -16  -5  -5   26.66    9.46
 -16  -5   5   25.90    9.18
 -16   5  -6   11.61    4.06
  16  -5  -6    9.03    3.87
 -16  -5  -6    6.70    4.60
 -16  -5   6   10.18    5.26
 -16   6   0    4.16    3.58
 -16  -6   0    0.20    2.94
 -16   6   1    3.88    2.96
 -16   6  -1    5.86    2.88
 -16  -6   1    4.39    3.27
 -16  -6  -1    6.81    4.30
 -16   6   2   31.11    8.56
 -16   6  -2   31.75    8.33
 -16  -6   2   18.98    6.36
 -16  -6  -2   25.68    9.29
 -16   6  -3   10.11    5.00
  16  -6  -3    3.76    4.04
 -16  -6  -3    7.92    3.05
 -16  -6   3    4.64    2.85
 -16   6  -4    2.15    2.05
  16  -6  -4    5.56    3.49
 -16  -6  -4    3.59    2.96
 -16  -6   4    3.93    3.63
 -16   6  -5    5.80    6.36
  16  -6  -5   13.38    4.83
 -16  -6   5   15.41    6.81
 -16   7   0    6.24    3.03
 -16  -7   0    5.22    2.85
 -16   7   1   11.81    4.25
 -16   7  -1    7.01    3.56
 -16  -7   1    3.12    2.87
 -16  -7  -1   12.97    3.87
 -16   7   2    3.29    3.23
 -16   7  -2    3.30    3.66
 -16  -7   2    3.11    2.73
 -16  -7  -2    9.93    4.85
 -16   7  -3   13.95    4.36
  16  -7  -3    7.20    2.68
 -16  -7  -3   -0.49    3.30
 -16  -7   3    7.71    3.56
 -17   0  -1   -1.16    2.85
 -17   0  -2    7.53    2.83
 -17   0  -3    4.66    2.34
 -17   0  -4   15.32    5.09
 -17   0  -5   10.41    3.46
 -17  -1   0    7.81    3.68
 -17  -1   1    4.16    2.73
 -17  -1  -1    9.53    6.63
 -17  -1  -2    0.00    1.96
 -17   1  -3    1.48    2.40
 -17  -1  -3    6.86    3.48
 -17   1  -4   14.65    6.16
 -17  -1  -4   18.95    5.39
 -17  -2   0    5.59    1.69
 -17  -2   1   14.46    4.36
 -17  -2  -1    7.13    3.92
 -17  -2   2    7.34    3.45
 -17  -2  -2    4.98    2.92
 -17  -2  -3    5.41    2.77
 -17  -2  -4    4.21    3.45
 -17   3   0    2.83    3.04
 -17  -3   0    0.85    2.00
 -17   3  -1    7.91    2.81
 -17  -3   1    5.40    4.14
 -17  -3  -1    7.60    3.28
 -17   3  -2    4.50    2.85
 -17  -3  -2   11.58    4.87
 -17  -3  -3   12.80    7.00
 -17   4   0    6.10    3.18
 -17  -4   0    1.85    1.90
 -17   4  -1    2.75    2.75
 -17  -4   1    1.39    1.58
 -17  -4  -1    3.97    2.32
 -17   4  -2    2.86    3.30
  17  -4  -2    3.07    2.23
   0   0   0    0.00    0.00
;
_shelx_hkl_checksum              91071
#END Tags that were not found in dictionaries
loop_
_space_group_symop_operation_xyz
'x, y, z'
'-x+1/2, -y, z+1/2'
'x+1/2, -y+1/2, -z'
'-x, y+1/2, -z+1/2'
loop_
_atom_site_label
_atom_site_type_symbol
_atom_site_fract_x
_atom_site_fract_y
_atom_site_fract_z
_atom_site_U_iso_or_equiv
_atom_site_adp_type
_atom_site_occupancy
_atom_site_site_symmetry_order
_atom_site_calc_flag
_atom_site_refinement_flags_posn
_atom_site_refinement_flags_adp
Cu1 Cu 1.06970(9) 0.04870(8) 0.08517(7) 0.0332(3) Uani 1 1 d . .
Cu2 Cu 0.79916(8) 0.29324(8) 0.16393(7) 0.0326(3) Uani 1 1 d . .
O1 O 0.8893(6) 0.2016(6) 0.2236(4) 0.0450(18) Uani 1 1 d . .
O2 O 0.9924(6) 0.1500(5) 0.0284(4) 0.0409(16) Uani 1 1 d . .
O3 O 1.1216(5) -0.0424(5) 0.1686(4) 0.0380(14) Uani 1 1 d . .
O4 O 0.8722(7) 0.4272(5) 0.1969(5) 0.0498(19) Uani 1 1 d . .
O5 O 0.7152(5) 0.3506(5) 0.0752(4) 0.0391(15) Uani 1 1 d . .
O6 O 1.2175(5) 0.1104(6) 0.0586(5) 0.0467(18) Uani 1 1 d . .
O7 O 0.652(2) -0.1431(12) -0.0909(19) 0.217(12) Uani 1 1 d . U
H7D H 0.6544 -0.1503 -0.1423 0.325 Uiso 1 1 calc R U
N1 N 1.0160(7) 0.1044(6) 0.1828(5) 0.0387(19) Uani 1 1 d . .
N2 N 0.8778(6) 0.2602(6) 0.0704(4) 0.0335(17) Uani 1 1 d . .
N3 N 1.0668(7) -0.0370(6) -0.0107(5) 0.0386(18) Uani 1 1 d . .
N4 N 1.1012(7) -0.0098(7) -0.0852(5) 0.045(2) Uani 1 1 d . .
H4A H 1.1269 0.0453 -0.0952 0.054 Uiso 1 1 calc R U
N5 N 0.7015(6) 0.2967(6) 0.2526(5) 0.0370(17) Uani 1 1 d . .
N6 N 0.7187(7) 0.3361(6) 0.3258(5) 0.0417(19) Uani 1 1 d . .
H6B H 0.7741 0.3648 0.3389 0.050 Uiso 1 1 calc R U
C1 C 1.0985(16) 0.1286(12) 0.3165(9) 0.097(7) Uani 1 1 d . .
H1A H 1.0597 0.1848 0.3278 0.146 Uiso 1 1 calc R U
H1B H 1.1602 0.1458 0.2884 0.146 Uiso 1 1 calc R U
H1C H 1.1141 0.0972 0.3686 0.146 Uiso 1 1 calc R U
C2 C 1.0394(9) 0.0640(7) 0.2619(6) 0.043(3) Uani 1 1 d . .
H2A H 0.9765 0.0469 0.2907 0.052 Uiso 1 1 calc R U
C3 C 1.0990(8) -0.0253(6) 0.2440(6) 0.037(2) Uani 1 1 d . .
C4 C 0.9481(7) 0.1646(6) 0.1705(6) 0.0348(19) Uani 1 1 d . .
C5 C 0.9410(7) 0.1931(6) 0.0812(5) 0.0323(18) Uani 1 1 d . .
C6 C 0.8550(8) 0.3062(8) -0.0076(6) 0.041(2) Uani 1 1 d . .
H6A H 0.8534 0.2599 -0.0536 0.049 Uiso 1 1 calc R U
C7 C 0.9325(10) 0.3808(11) -0.0247(8) 0.064(4) Uani 1 1 d . .
H7A H 0.9977 0.3517 -0.0304 0.096 Uiso 1 1 calc R U
H7B H 0.9338 0.4253 0.0212 0.096 Uiso 1 1 calc R U
H7C H 0.9157 0.4136 -0.0759 0.096 Uiso 1 1 calc R U
C8 C 0.7543(7) 0.3525(7) 0.0020(6) 0.037(2) Uani 1 1 d . .
C9 C 0.9958(11) -0.1788(9) 0.0510(8) 0.061(3) Uani 1 1 d . .
H9A H 0.9957 -0.1401 0.1008 0.091 Uiso 1 1 calc R U
H9B H 1.0365 -0.2342 0.0605 0.091 Uiso 1 1 calc R U
H9C H 0.9278 -0.1977 0.0380 0.091 Uiso 1 1 calc R U
C10 C 1.0375(8) -0.1245(7) -0.0195(7) 0.041(2) Uani 1 1 d . .
C11 C 1.0514(7) -0.1543(7) -0.1019(6) 0.037(2) Uani 1 1 d . .
C12 C 1.0913(7) -0.0771(8) -0.1423(6) 0.040(2) Uani 1 1 d . .
C13 C 1.1241(13) -0.0571(11) -0.2286(7) 0.072(4) Uani 1 1 d . .
H13A H 1.1478 0.0072 -0.2321 0.107 Uiso 1 1 calc R U
H13B H 1.0682 -0.0657 -0.2665 0.107 Uiso 1 1 calc R U
H13C H 1.1777 -0.0997 -0.2437 0.107 Uiso 1 1 calc R U
C14 C 0.6489(13) 0.3657(11) 0.4653(9) 0.074(5) Uani 1 1 d . .
H14A H 0.7117 0.3992 0.4711 0.112 Uiso 1 1 calc R U
H14B H 0.6467 0.3144 0.5051 0.112 Uiso 1 1 calc R U
H14C H 0.5938 0.4084 0.4757 0.112 Uiso 1 1 calc R U
C15 C 0.6405(9) 0.3267(8) 0.3777(7) 0.044(2) Uani 1 1 d . .
C16 C 0.5703(8) 0.2767(6) 0.3363(6) 0.0375(19) Uani 1 1 d . .
C17 C 0.6110(8) 0.2598(8) 0.2574(7) 0.042(2) Uani 1 1 d . .
C18 C 0.5679(11) 0.2108(11) 0.1856(7) 0.069(4) Uani 1 1 d . .
H18A H 0.6150 0.2120 0.1396 0.104 Uiso 1 1 calc R U
H18B H 0.5063 0.2416 0.1690 0.104 Uiso 1 1 calc R U
H18C H 0.5538 0.1461 0.2007 0.104 Uiso 1 1 calc R U
C19 C 0.4667(8) 0.2511(7) 0.3649(7) 0.046(3) Uani 1 1 d . .
H19A H 0.4143 0.2951 0.3619 0.055 Uiso 1 1 calc R U
C20 C 0.8207(12) 0.0159(13) -0.1617(14) 0.204(11) Uani 1 1 d G U
H20A H 0.8731 -0.0273 -0.1540 0.245 Uiso 1 1 calc R U
C21 C 0.8321(14) 0.0896(15) -0.2165(14) 0.208(11) Uani 1 1 d G U
H21A H 0.8923 0.0968 -0.2461 0.249 Uiso 1 1 calc R U
C22 C 0.7553(17) 0.1527(12) -0.2278(12) 0.206(11) Uani 1 1 d G U
H22A H 0.7631 0.2031 -0.2653 0.248 Uiso 1 1 calc R U
C23 C 0.6672(13) 0.1422(12) -0.1845(13) 0.160(13) Uani 1 1 d G .
H23A H 0.6147 0.1853 -0.1923 0.192 Uiso 1 1 calc R U
C24 C 0.6558(11) 0.0684(13) -0.1298(13) 0.160(14) Uani 1 1 d G .
H24A H 0.5956 0.0612 -0.1001 0.192 Uiso 1 1 calc R U
C25 C 0.7326(14) 0.0053(11) -0.1184(12) 0.123(9) Uani 1 1 d G .
C26 C 0.723(2) -0.0831(17) -0.0679(18) 0.133(9) Uani 1 1 d . U
H26A H 0.7872 -0.1169 -0.0757 0.160 Uiso 1 1 calc R U
C27 C 0.715(3) -0.067(2) 0.0209(18) 0.164(14) Uani 1 1 d . .
H27A H 0.6438 -0.0595 0.0340 0.196 Uiso 1 1 calc R U
H27B H 0.7377 -0.1243 0.0493 0.196 Uiso 1 1 calc R U
C28 C 0.763(3) 0.004(3) 0.054(2) 0.23(2) Uani 1 1 d . .
H28A H 0.7505 0.0060 0.1134 0.339 Uiso 1 1 calc R U
H28B H 0.7397 0.0621 0.0285 0.339 Uiso 1 1 calc R U
H28C H 0.8341 -0.0030 0.0438 0.339 Uiso 1 1 calc R U
loop_
_atom_site_aniso_label
_atom_site_aniso_U_11
_atom_site_aniso_U_22
_atom_site_aniso_U_33
_atom_site_aniso_U_23
_atom_site_aniso_U_13
_atom_site_aniso_U_12
Cu1 0.0366(6) 0.0326(5) 0.0305(5) 0.0001(4) 0.0003(5) 0.0091(5)
Cu2 0.0358(6) 0.0318(5) 0.0300(5) 0.0002(4) 0.0035(5) 0.0064(5)
O1 0.056(4) 0.053(4) 0.027(3) 0.006(3) 0.006(3) 0.024(4)
O2 0.048(4) 0.039(4) 0.035(4) -0.001(3) 0.007(3) 0.017(3)
O3 0.045(4) 0.034(3) 0.035(3) -0.003(3) -0.001(3) 0.017(3)
O4 0.064(5) 0.045(4) 0.040(4) -0.011(3) -0.001(4) -0.016(4)
O5 0.034(3) 0.045(4) 0.038(4) 0.009(3) 0.000(3) 0.009(3)
O6 0.041(4) 0.060(5) 0.039(4) 0.004(3) 0.014(3) -0.016(4)
O7 0.28(3) 0.105(13) 0.26(3) 0.007(17) -0.06(2) -0.074(16)
N1 0.050(5) 0.036(4) 0.031(4) 0.006(3) 0.002(3) 0.014(4)
N2 0.039(4) 0.042(4) 0.020(3) 0.000(3) 0.000(3) 0.017(3)
N3 0.038(4) 0.039(4) 0.039(4) -0.002(3) 0.004(4) -0.003(4)
N4 0.057(5) 0.048(5) 0.032(4) -0.012(4) -0.001(4) -0.014(4)
N5 0.038(4) 0.036(4) 0.037(4) -0.008(3) 0.009(3) -0.003(4)
N6 0.045(5) 0.047(5) 0.033(4) -0.009(4) 0.002(4) -0.012(4)
C1 0.162(19) 0.076(10) 0.055(9) -0.020(7) -0.055(11) 0.039(12)
C2 0.063(7) 0.035(5) 0.032(5) 0.008(4) 0.007(4) 0.026(5)
C3 0.046(5) 0.021(4) 0.043(5) 0.002(4) 0.004(4) 0.004(4)
C4 0.042(5) 0.031(4) 0.032(4) 0.004(4) 0.001(4) 0.008(4)
C5 0.034(4) 0.035(4) 0.028(4) 0.006(3) 0.007(4) 0.001(4)
C6 0.046(6) 0.048(5) 0.028(4) -0.002(4) 0.001(4) 0.016(5)
C7 0.050(7) 0.091(10) 0.051(7) 0.022(7) 0.015(6) 0.006(7)
C8 0.035(5) 0.042(5) 0.033(5) -0.007(4) -0.001(4) 0.002(4)
C9 0.086(9) 0.050(6) 0.046(6) 0.003(5) 0.007(6) -0.020(7)
C10 0.044(5) 0.038(5) 0.041(5) 0.004(4) -0.014(4) -0.004(4)
C11 0.030(4) 0.041(5) 0.038(5) -0.005(4) -0.011(4) -0.005(4)
C12 0.034(5) 0.051(6) 0.034(5) -0.004(4) -0.002(4) -0.004(4)
C13 0.106(12) 0.074(9) 0.035(6) -0.014(6) 0.011(7) -0.040(9)
C14 0.092(11) 0.072(9) 0.059(8) -0.024(7) 0.027(8) -0.034(8)
C15 0.054(6) 0.044(5) 0.035(5) -0.005(4) 0.010(5) -0.009(5)
C16 0.040(5) 0.036(4) 0.036(4) 0.006(4) 0.006(4) -0.001(4)
C17 0.045(6) 0.042(5) 0.040(5) -0.003(4) 0.002(4) -0.006(5)
C18 0.072(8) 0.094(10) 0.041(6) -0.008(6) -0.006(6) -0.040(9)
C19 0.041(5) 0.030(5) 0.067(7) 0.023(5) 0.019(5) 0.004(4)
C20 0.178(19) 0.146(17) 0.29(3) 0.100(18) 0.114(19) 0.057(15)
C21 0.182(19) 0.147(17) 0.29(3) 0.102(18) 0.115(19) 0.059(15)
C22 0.179(19) 0.148(17) 0.29(3) 0.100(18) 0.116(19) 0.054(15)
C23 0.14(2) 0.086(15) 0.25(4) 0.04(2) 0.05(2) 0.016(16)
C24 0.078(14) 0.12(2) 0.28(4) 0.03(3) 0.02(2) 0.003(14)
C25 0.122(19) 0.094(14) 0.15(2) 0.035(15) 0.049(17) 0.006(14)
C26 0.16(2) 0.093(15) 0.15(2) -0.017(16) 0.00(2) -0.030(15)
C27 0.17(3) 0.20(3) 0.13(2) -0.03(2) 0.02(2) -0.08(3)
C28 0.23(4) 0.19(4) 0.26(5) -0.01(4) -0.09(4) -0.06(3)
loop_
_atom_type_symbol
_atom_type_description
_atom_type_scat_dispersion_real
_atom_type_scat_dispersion_imag
_atom_type_scat_source
C C 0.0033 0.0016 'International Tables Vol C Tables 4.2.6.8 and 6.1.1.4'
H H 0.0000 0.0000 'International Tables Vol C Tables 4.2.6.8 and 6.1.1.4'
N N 0.0061 0.0033 'International Tables Vol C Tables 4.2.6.8 and 6.1.1.4'
O O 0.0106 0.0060 'International Tables Vol C Tables 4.2.6.8 and 6.1.1.4'
Cu Cu 0.3201 1.2651 'International Tables Vol C Tables 4.2.6.8 and 6.1.1.4'
loop_
_geom_angle_atom_site_label_1
_geom_angle_atom_site_label_2
_geom_angle_atom_site_label_3
_geom_angle
_geom_angle_site_symmetry_1
_geom_angle_site_symmetry_3
N1 Cu1 N3 154.1(4) . .
N1 Cu1 O3 81.4(3) . .
N3 Cu1 O3 97.3(3) . .
N1 Cu1 O2 83.0(3) . .
N3 Cu1 O2 94.7(3) . .
O3 Cu1 O2 163.7(3) . .
N1 Cu1 O6 109.4(4) . .
N3 Cu1 O6 96.5(3) . .
O3 Cu1 O6 94.4(3) . .
O2 Cu1 O6 95.1(3) . .
N2 Cu2 N5 165.1(4) . .
N2 Cu2 O5 81.3(3) . .
N5 Cu2 O5 97.7(3) . .
N2 Cu2 O1 83.3(3) . .
N5 Cu2 O1 94.1(3) . .
O5 Cu2 O1 160.5(3) . .
N2 Cu2 O4 99.2(3) . .
N5 Cu2 O4 95.8(3) . .
O5 Cu2 O4 93.8(3) . .
O1 Cu2 O4 100.4(3) . .
C4 O1 Cu2 108.6(6) . .
C5 O2 Cu1 109.3(6) . .
C3 O3 Cu1 115.6(6) . .
C3 O4 Cu2 143.2(7) 4_755 .
C8 O5 Cu2 115.6(6) . .
C8 O6 Cu1 133.9(7) 3 .
C4 N1 C2 124.7(8) . .
C4 N1 Cu1 115.2(7) . .
C2 N1 Cu1 118.8(6) . .
C5 N2 C6 126.3(8) . .
C5 N2 Cu2 116.3(6) . .
C6 N2 Cu2 117.2(6) . .
C10 N3 N4 106.4(8) . .
C10 N3 Cu1 132.8(7) . .
N4 N3 Cu1 120.8(6) . .
N3 N4 C12 111.8(9) . .
C17 N5 N6 106.0(8) . .
C17 N5 Cu2 130.7(7) . .
N6 N5 Cu2 123.2(7) . .
N5 N6 C15 111.9(8) . .
N1 C2 C1 112.8(10) . .
N1 C2 C3 106.4(8) . .
C1 C2 C3 110.3(11) . .
O4 C3 O3 123.8(9) 4_745 .
O4 C3 C2 118.5(9) 4_745 .
O3 C3 C2 117.6(8) . .
N1 C4 O1 128.2(9) . .
N1 C4 C5 112.3(8) . .
O1 C4 C5 119.4(8) . .
O2 C5 N2 129.3(8) . .
O2 C5 C4 118.8(8) . .
N2 C5 C4 111.9(8) . .
N2 C6 C7 109.4(9) . .
N2 C6 C8 107.4(8) . .
C7 C6 C8 109.0(9) . .
O6 C8 O5 125.2(9) 3_455 .
O6 C8 C6 118.2(9) 3_455 .
O5 C8 C6 116.6(9) . .
N3 C10 C11 110.5(9) . .
N3 C10 C9 121.8(10) . .
C11 C10 C9 127.8(10) . .
C12 C11 C10 104.6(9) . .
C12 C11 C19 128.8(10) . 2_654
C10 C11 C19 126.4(10) . 2_654
N4 C12 C11 106.8(9) . .
N4 C12 C13 118.3(10) . .
C11 C12 C13 134.9(11) . .
N6 C15 C16 106.8(9) . .
N6 C15 C14 118.7(10) . .
C16 C15 C14 134.4(11) . .
C15 C16 C17 105.3(9) . .
C15 C16 C19 128.2(10) . .
C17 C16 C19 126.3(10) . .
N5 C17 C16 109.9(9) . .
N5 C17 C18 120.3(10) . .
C16 C17 C18 129.8(11) . .
C16 C19 C11 118.7(9) . 2_655
C21 C20 C25 120.0 . .
C22 C21 C20 120.0 . .
C21 C22 C23 120.0 . .
C24 C23 C22 120.0 . .
C23 C24 C25 120.0 . .
C24 C25 C20 120.0 . .
C24 C25 C26 123.8(17) . .
C20 C25 C26 115.8(17) . .
O7 C26 C27 109(3) . .
O7 C26 C25 117(3) . .
C27 C26 C25 114(2) . .
C28 C27 C26 119(3) . .
loop_
_geom_bond_atom_site_label_1
_geom_bond_atom_site_label_2
_geom_bond_distance
_geom_bond_site_symmetry_2
Cu1 N1 1.915(8) .
Cu1 N3 1.982(8) .
Cu1 O3 2.008(7) .
Cu1 O2 2.014(7) .
Cu1 O6 2.226(7) .
Cu2 N2 1.910(7) .
Cu2 N5 1.950(8) .
Cu2 O5 2.007(7) .
Cu2 O1 2.037(7) .
Cu2 O4 2.228(7) .
O1 C4 1.287(12) .
O2 C5 1.263(11) .
O3 C3 1.282(12) .
O4 C3 1.238(12) 4_755
O5 C8 1.299(12) .
O6 C8 1.223(13) 3
O7 C26 1.34(3) .
N1 C4 1.277(12) .
N1 C2 1.442(12) .
N2 C5 1.300(11) .
N2 C6 1.458(12) .
N3 C10 1.325(13) .
N3 N4 1.350(12) .
N4 C12 1.345(13) .
N5 C17 1.335(14) .
N5 N6 1.334(11) .
N6 C15 1.357(13) .
C1 C2 1.510(19) .
C2 C3 1.543(13) .
C3 O4 1.238(12) 4_745
C4 C5 1.505(12) .
C6 C7 1.524(18) .
C6 C8 1.521(14) .
C8 O6 1.223(13) 3_455
C9 C10 1.493(15) .
C10 C11 1.414(14) .
C11 C12 1.396(15) .
C11 C19 1.512(12) 2_654
C12 C13 1.494(16) .
C14 C15 1.529(16) .
C15 C16 1.365(15) .
C16 C17 1.412(14) .
C16 C19 1.518(14) .
C17 C18 1.479(15) .
C19 C11 1.512(12) 2_655
C20 C21 1.3900 .
C20 C25 1.3900 .
C21 C22 1.3900 .
C22 C23 1.3900 .
C23 C24 1.3900 .
C24 C25 1.3900 .
C25 C26 1.52(3) .
C26 C27 1.46(4) .
C27 C28 1.32(4) .
