#------------------------------------------------------------------------------
#$Date: 2016-03-23 22:33:44 +0200 (Wed, 23 Mar 2016) $
#$Revision: 179485 $
#$URL: svn://www.crystallography.net/cod/cif/4/33/82/4338276.cif $
#------------------------------------------------------------------------------
#
# This file is available in the Crystallography Open Database (COD),
# http://www.crystallography.net/
#
# All data on this site have been placed in the public domain by the
# contributors.
#
data_4338276
loop_
_publ_author_name
'Lin, Lang'
'Yu, Rongmin'
'Wu, Xiao-Yuan'
'Yang, Wen-Bin'
'Zhang, Jian'
'Guo, Xiang-Guang'
'Lin, Zu-Jin'
'Lu, Can-Zhong'
_publ_section_title
;
 Enantioselective inclusion of alcohols by solvent-controlled assembled
 flexible metal-organic frameworks.
;
_journal_issue                   10
_journal_name_full               'Inorganic chemistry'
_journal_page_first              4794
_journal_page_last               4796
_journal_paper_doi               10.1021/ic500436g
_journal_volume                  53
_journal_year                    2014
_chemical_absolute_configuration ad
_chemical_formula_moiety         'C19 H24 Cu2 N6 O6, C9 H12 O'
_chemical_formula_sum            'C28 H36 Cu2 N6 O7'
_chemical_formula_weight         695.71
_chemical_name_systematic
;
 ?
;
_space_group_crystal_system      orthorhombic
_space_group_IT_number           19
_space_group_name_Hall           'P 2ac 2ab'
_space_group_name_H-M_alt        'P 21 21 21'
_symmetry_space_group_name_Hall  'P 2ac 2ab'
_symmetry_space_group_name_H-M   'P 21 21 21'
_atom_sites_solution_hydrogens   mixed
_audit_creation_method           SHELXL-2013
_cell_angle_alpha                90
_cell_angle_beta                 90
_cell_angle_gamma                90
_cell_formula_units_Z            4
_cell_length_a                   13.492(2)
_cell_length_b                   14.377(2)
_cell_length_c                   16.191(3)
_cell_measurement_reflns_used    9429
_cell_measurement_temperature    223(2)
_cell_measurement_theta_max      27.4739
_cell_measurement_theta_min      2.0700
_cell_volume                     3140.6(9)
_computing_cell_refinement       'CrystalClear (Rigaku Inc., 2008)'
_computing_data_collection       'CrystalClear (Rigaku Inc., 2008)'
_computing_data_reduction        'CrystalClear (Rigaku Inc., 2008)'
_computing_molecular_graphics    DIAMOND
_computing_publication_material  'SHELXL-2013 (Sheldrick, 2013)'
_computing_structure_refinement  'SHELXL-2013 (Sheldrick, 2013)'
_computing_structure_solution    'SHELXL-2013 (Sheldrick, 2013)'
_diffrn_ambient_temperature      223(2)
_diffrn_detector_area_resol_mean 28.5714
_diffrn_measured_fraction_theta_full 0.991
_diffrn_measured_fraction_theta_max 0.983
_diffrn_measurement_method       CCD_Profile_fitting
_diffrn_radiation_type           MoK\a
_diffrn_radiation_wavelength     0.71073
_diffrn_reflns_av_R_equivalents  0.0413
_diffrn_reflns_av_unetI/netI     0.0516
_diffrn_reflns_Laue_measured_fraction_full 0.991
_diffrn_reflns_Laue_measured_fraction_max 0.983
_diffrn_reflns_limit_h_max       17
_diffrn_reflns_limit_h_min       -17
_diffrn_reflns_limit_k_max       18
_diffrn_reflns_limit_k_min       -18
_diffrn_reflns_limit_l_max       19
_diffrn_reflns_limit_l_min       -20
_diffrn_reflns_number            25158
_diffrn_reflns_point_group_measured_fraction_full 0.986
_diffrn_reflns_point_group_measured_fraction_max 0.973
_diffrn_reflns_theta_full        25.242
_diffrn_reflns_theta_max         27.481
_diffrn_reflns_theta_min         2.070
_exptl_absorpt_coefficient_mu    1.407
_exptl_absorpt_correction_T_max  0.932
_exptl_absorpt_correction_T_min  0.919
_exptl_absorpt_correction_type   multi-scan
_exptl_crystal_colour            green
_exptl_crystal_density_diffrn    1.471
_exptl_crystal_description       block
_exptl_crystal_F_000             1440
_exptl_crystal_size_max          0.100
_exptl_crystal_size_mid          0.050
_exptl_crystal_size_min          0.050
_refine_diff_density_max         0.640
_refine_diff_density_min         -0.356
_refine_diff_density_rms         0.099
_refine_ls_abs_structure_details
;
 Flack x determined using 2108 quotients [(I+)-(I-)]/[(I+)+(I-)]
 (Parsons and Flack (2004), Acta Cryst. A60, s61).
;
_refine_ls_abs_structure_Flack   0.021(6)
_refine_ls_extinction_method     none
_refine_ls_goodness_of_fit_ref   1.014
_refine_ls_hydrogen_treatment    mixed
_refine_ls_matrix_type           full
_refine_ls_number_parameters     376
_refine_ls_number_reflns         7004
_refine_ls_number_restraints     24
_refine_ls_restrained_S_all      1.021
_refine_ls_R_factor_all          0.0426
_refine_ls_R_factor_gt           0.0363
_refine_ls_shift/su_max          0.001
_refine_ls_shift/su_mean         0.000
_refine_ls_structure_factor_coef Fsqd
_refine_ls_weighting_details
;
 w=1/[\s^2^(Fo^2^)+(0.0579P)^2^]
 where P=(Fo^2^+2Fc^2^)/3
;
_refine_ls_weighting_scheme      calc
_refine_ls_wR_factor_gt          0.0923
_refine_ls_wR_factor_ref         0.1000
_reflns_Friedel_coverage         0.776
_reflns_Friedel_fraction_full    0.980
_reflns_Friedel_fraction_max     0.960
_reflns_number_gt                6001
_reflns_number_total             7004
_reflns_threshold_expression     'I > 2\s(I)'
_cod_data_source_file            ic500436g_si_001.cif
_cod_data_source_block           L-3-1-PPP
_cod_depositor_comments
'Adding full bibliography for 4338272--4338281.cif.'
_cod_original_cell_volume        3140.5(9)
_cod_database_code               4338276
#BEGIN Tags that were not found in dictionaries:
_shelx_space_group_comment
;
The symmetry employed for this shelxl refinement is uniquely defined
by the following loop, which should always be used as a source of
symmetry information in preference to the above space-group names.
They are only intended as comments.
;
_shelx_estimated_absorpt_t_min   0.872
_shelx_estimated_absorpt_t_max   0.933
_shelxl_version_number           2013-2
_shelx_res_file
;
TITL a in P2(1)2(1)2(1)
CELL 0.71073 13.4917 14.3767 16.1908 90.000 90.000 90.000
ZERR 4.0000 0.0022 0.0024 0.0025 0.000 0.000 0.000
LATT -1
SYMM 0.5-X, -Y, 0.5+Z
SYMM 0.5+X, 0.5-Y, -Z
SYMM -X, 0.5+Y, 0.5-Z
SFAC C H N O CU
UNIT 112 144 24 28 8
MERG 2
FMAP 2
GRID
PLAN 20
TEMP -50
BOND
size 0.1 0.05 0.05
simu 0.01 0.005 c20 c21 c22
simu 0.01 0.005 c26 c27
simu 0.01 0.005 o7 c26
L.S. 30
acta
WGHT    0.057900
FVAR       0.36866
CU1   5   -0.700599   -0.206741    0.336018    11.00000    0.02978    0.02891 =
         0.02563    0.00058   -0.00339    0.00541
CU2   5   -0.429894   -0.451215    0.415013    11.00000    0.03106    0.02890 =
         0.02585    0.00013   -0.00093    0.00725
N1    3   -0.621769   -0.239220    0.428897    11.00000    0.03532    0.04008 =
         0.02186   -0.00042   -0.00112    0.01494
N2    3   -0.483686   -0.396459    0.317643    11.00000    0.03891    0.03205 =
         0.02475   -0.00272   -0.00282    0.01179
N3    3   -0.798999   -0.202253    0.247749    11.00000    0.03023    0.03608 =
         0.02938    0.00548   -0.00718   -0.00687
N4    3   -0.780753   -0.163120    0.174398    11.00000    0.03509    0.03913 =
         0.03172    0.00647   -0.00698   -0.01256
AFIX  43
H4A   2   -0.725856   -0.134863    0.161545    11.00000   -1.20000
AFIX   0
N5    3   -0.399826   -0.509365    0.584816    11.00000    0.04175    0.03312 =
         0.03171    0.00100   -0.00123   -0.01436
AFIX  43
H5A   2   -0.376381   -0.454170    0.594995    11.00000   -1.20000
AFIX   0
N6    3   -0.431887   -0.537330    0.510610    11.00000    0.03848    0.02854 =
         0.03047    0.00193   -0.00130   -0.00309
C1    1   -0.745300   -0.148183    0.498352    11.00000    0.03000    0.03092 =
         0.02846    0.00164    0.00291    0.00329
C2    1   -0.566969   -0.118630    0.523905    11.00000    0.04299    0.07369 =
         0.04273   -0.02019   -0.01168    0.00565
AFIX  33
H2A   2   -0.502144   -0.147168    0.529301    11.00000   -1.50000
H2B   2   -0.583336   -0.086051    0.574564    11.00000   -1.50000
H2C   2   -0.566222   -0.074904    0.478283    11.00000   -1.50000
AFIX   0
C3    1   -0.644285   -0.193687    0.507510    11.00000    0.04479    0.04208 =
         0.02050    0.00225    0.00025    0.01846
AFIX  13
H3A   2   -0.645073   -0.239685    0.553009    11.00000   -1.20000
AFIX   0
C4    1   -0.559178   -0.306936    0.418578    11.00000    0.02620    0.03256 =
         0.02557   -0.00010   -0.00158    0.00554
C5    1   -0.552463   -0.335036    0.328998    11.00000    0.03638    0.02713 =
         0.02447   -0.00035    0.00062    0.00675
C6    1   -0.459805   -0.437879    0.238432    11.00000    0.05814    0.04182 =
         0.03027   -0.01144   -0.01123    0.02728
AFIX  13
H6A   2   -0.521666   -0.454941    0.209242    11.00000   -1.20000
AFIX   0
C7    1   -0.398264   -0.371870    0.184318    11.00000    0.16109    0.05894 =
         0.04625    0.02326    0.04219    0.04335
AFIX  33
H7A   2   -0.436656   -0.316454    0.172301    11.00000   -1.50000
H7B   2   -0.381091   -0.402871    0.133066    11.00000   -1.50000
H7C   2   -0.338166   -0.354587    0.213402    11.00000   -1.50000
AFIX   0
C8    1   -0.399422   -0.525060    0.256025    11.00000    0.03236    0.03075 =
         0.03376   -0.00548   -0.00128    0.00341
C9    1   -0.851636   -0.134253    0.035998    11.00000    0.09170    0.06586 =
         0.04536    0.02087   -0.02937   -0.04156
AFIX  33
H9A   2   -0.789765   -0.100513    0.030199    11.00000   -1.50000
H9B   2   -0.906742   -0.092421    0.025954    11.00000   -1.50000
H9C   2   -0.853534   -0.184803   -0.003649    11.00000   -1.50000
AFIX   0
C10   1   -0.859226   -0.173281    0.122558    11.00000    0.05318    0.03155 =
         0.03632    0.00116   -0.02017   -0.00828
C11   1   -0.929931   -0.224030    0.163918    11.00000    0.03315    0.02543 =
         0.03915   -0.00398   -0.01056   -0.00152
C12   1   -0.889256   -0.240562    0.242427    11.00000    0.03355    0.03792 =
         0.03218    0.00035   -0.00219   -0.00946
C13   1   -0.931245   -0.289803    0.313998    11.00000    0.07209    0.09560 =
         0.04072    0.00843   -0.00196   -0.04455
AFIX  33
H13A  2   -0.884450   -0.287901    0.359450    11.00000   -1.50000
H13B  2   -0.944373   -0.354006    0.299179    11.00000   -1.50000
H13C  2   -0.992594   -0.259966    0.330549    11.00000   -1.50000
AFIX   0
C14   1   -0.466235   -0.749696    0.635723    11.00000    0.03603    0.03105 =
         0.05786    0.01673    0.01764    0.00331
AFIX   3
H14A  2   -0.448554   -0.796166    0.596323    11.00000   -1.20000
H14B  2   -0.428394   -0.792366    0.667553    11.00000   -1.20000
AFIX   0
C15   1   -0.505325   -0.678204    0.449826    11.00000    0.06767    0.04488 =
         0.04876   -0.00445    0.00180   -0.01717
AFIX  33
H15A  2   -0.504640   -0.640128    0.400371    11.00000   -1.50000
H15B  2   -0.573036   -0.695482    0.462878    11.00000   -1.50000
H15C  2   -0.466305   -0.733908    0.440580    11.00000   -1.50000
AFIX   0
C16   1   -0.462389   -0.624688    0.519814    11.00000    0.03038    0.03183 =
         0.03575    0.00091    0.00749   -0.00385
C17   1   -0.449141   -0.653100    0.602316    11.00000    0.02946    0.03275 =
         0.03935    0.00957    0.00686   -0.00564
C18   1   -0.408327   -0.577209    0.641812    11.00000    0.03519    0.04519 =
         0.02729    0.00896    0.00176   -0.00736
C19   1   -0.376459   -0.558730    0.728643    11.00000    0.08038    0.06809 =
         0.04202    0.00973   -0.00966   -0.03212
AFIX  33
H19A  2   -0.387306   -0.613926    0.761890    11.00000   -1.50000
H19B  2   -0.414768   -0.507504    0.751032    11.00000   -1.50000
H19C  2   -0.306611   -0.542760    0.729384    11.00000   -1.50000
AFIX  66
C20   1   -0.821362   -0.515882    0.160140    11.00000    0.13868    0.13588 =
         0.28077    0.08944    0.09658    0.04588
AFIX  43
H20A  2   -0.872815   -0.472790    0.151876    11.00000   -1.20000
AFIX  65
C21   1   -0.834359   -0.589667    0.214549    11.00000    0.15473    0.13023 =
         0.31322    0.11243    0.10999    0.04759
AFIX  43
H21A  2   -0.894603   -0.596474    0.243081    11.00000   -1.20000
AFIX  65
C22   1   -0.758274   -0.653387    0.226769    11.00000    0.13397    0.13441 =
         0.32517    0.10760    0.10293    0.04079
AFIX  43
H22A  2   -0.767065   -0.703285    0.263564    11.00000   -1.20000
AFIX  65
C23   1   -0.669191   -0.643322    0.184579    11.00000    0.13366    0.09368 =
         0.23695    0.04803    0.02509    0.01900
AFIX  43
H23A  2   -0.617738   -0.686414    0.192843    11.00000   -1.20000
AFIX  65
C24   1   -0.656192   -0.569537    0.130169    11.00000    0.09533    0.11679 =
         0.21550    0.02055    0.02858    0.00110
AFIX  43
H24A  2   -0.595948   -0.562731    0.101637    11.00000   -1.20000
AFIX  65
C25   1   -0.732276   -0.505816    0.117948    11.00000    0.10293    0.08278 =
         0.16138    0.02136    0.01896    0.00566
AFIX   0
O1    4   -0.781651   -0.109993    0.558761    11.00000    0.03510    0.05551 =
         0.03472   -0.00343    0.00692    0.01575
O2    4   -0.784640   -0.149030    0.425184    11.00000    0.03221    0.03836 =
         0.03075   -0.00008   -0.00017    0.00966
O3    4   -0.611412   -0.298329    0.276327    11.00000    0.04872    0.04620 =
         0.02524   -0.00463   -0.00890    0.02053
O4    4   -0.507028   -0.348924    0.471704    11.00000    0.04112    0.03927 =
         0.02555   -0.00082   -0.00189    0.01951
O5    4   -0.378246   -0.542583    0.330968    11.00000    0.04246    0.03277 =
         0.02573   -0.00252   -0.00153    0.01169
O6    4   -0.372794   -0.572774    0.196741    11.00000    0.06083    0.04252 =
         0.03439   -0.01021    0.00284    0.01871
O7    4   -0.652723   -0.357497    0.090725    11.00000    0.21489    0.09563 =
         0.19693    0.01303   -0.01440   -0.05771
AFIX   3
H7F   2   -0.652393   -0.350347    0.142835    11.00000   -1.20000
AFIX   0
C27   1   -0.714422   -0.432937   -0.023188    11.00000    0.16961    0.13900 =
         0.14384   -0.00338   -0.01484   -0.06433
AFIX  23
H27A  2   -0.738719   -0.377306   -0.051713    11.00000   -1.20000
H27B  2   -0.644116   -0.440098   -0.037009    11.00000   -1.20000
AFIX   0
C26   1   -0.723246   -0.418186    0.065896    11.00000    0.18401    0.09088 =
         0.17952    0.00386   -0.02201   -0.05922
AFIX  13
H26A  2   -0.786872   -0.384951    0.073433    11.00000   -1.20000
AFIX   0
C28   1   -0.764229   -0.507601   -0.052072    11.00000    0.23602    0.17509 =
         0.21426   -0.02939   -0.06836   -0.05568
AFIX  33
H28A  2   -0.751578   -0.514541   -0.110725    11.00000   -1.50000
H28B  2   -0.834699   -0.498918   -0.043038    11.00000   -1.50000
H28C  2   -0.742199   -0.562991   -0.023206    11.00000   -1.50000

AFIX   0
HKLF 4

REM  a in P2(1)2(1)2(1)
REM R1 =  0.0363 for    6001 Fo > 4sig(Fo)  and  0.0426 for all    7004 data
REM    376 parameters refined using     24 restraints

END

WGHT      0.0570      0.0000

REM Highest difference peak  0.640,  deepest hole -0.356,  1-sigma level  0.099
Q1    1  -0.8969 -0.6232  0.1504  11.00000  0.05    0.49
Q2    1  -0.8185 -0.5378  0.1595  11.00000  0.05    0.48
Q3    1  -0.7781 -0.5152 -0.0761  11.00000  0.05    0.43
Q4    1  -0.7724 -0.5566  0.0262  11.00000  0.05    0.42
Q5    1  -0.7213 -0.3608  0.0182  11.00000  0.05    0.39
Q6    1  -0.8328 -0.3386  0.3343  11.00000  0.05    0.37
Q7    1  -0.7909 -0.5017  0.0897  11.00000  0.05    0.37
Q8    1  -0.6868 -0.5082 -0.0668  11.00000  0.05    0.33
Q9    1  -0.7270 -0.4435  0.2368  11.00000  0.05    0.33
Q10   1  -0.6244 -0.2666  0.3282  11.00000  0.05    0.31
Q11   1  -0.6382 -0.5159 -0.1002  11.00000  0.05    0.30
Q12   1  -0.4990 -0.5100  0.4132  11.00000  0.05    0.30
Q13   1  -0.7732 -0.4695 -0.1596  11.00000  0.05    0.30
Q14   1  -0.7504 -0.4440  0.1225  11.00000  0.05    0.30
Q15   1  -0.8171 -0.5283 -0.1279  11.00000  0.05    0.30
Q16   1  -0.7682 -0.2665  0.3394  11.00000  0.05    0.29
Q17   1  -0.7035 -0.4983  0.2238  11.00000  0.05    0.29
Q18   1  -0.5602 -0.5664  0.4112  11.00000  0.05    0.29
Q19   1  -0.7044 -0.4570 -0.0101  11.00000  0.05    0.28
Q20   1  -0.7460 -0.4344  0.1568  11.00000  0.05    0.28
;
_shelx_res_checksum              12963
_shelx_hkl_file
;
   0   0   2    3.34    0.84
   0   0  -2    3.55    0.83
   0   0   2    3.62    1.81
   0   0  -2    3.79    1.68
   0   0   3    0.26    0.92
   0   0  -3   -0.07    0.54
   0   0   3    0.68    0.79
   0   0   4   40.85    4.16
   0   0  -4   37.71    3.91
   0   0  -4   41.81    4.61
   0   0   4   37.15    4.13
   0   0   5    0.33    0.90
   0   0  -5    0.12    0.70
   0   0  -5    0.55    1.36
   0   0   6   34.88    4.47
   0   0  -6   33.52    3.51
   0   0  -6   34.08    4.05
   0   0   7    0.68    1.33
   0   0  -7    0.44    1.03
   0   0  -7    1.29    1.73
   0   0   8 1103.45   23.83
   0   0  -8 1087.71   24.11
   0   0   9    1.39    1.09
   0   0  -9    0.49    2.21
   0   0  10   38.10    5.20
   0   0 -10   40.35    7.47
   0   0  11    0.05    1.29
   0   0  12 4074.30   22.66
   0   0 -13    0.54    2.73
   0   0 -14   11.33    7.66
   0   0 -15    1.24    3.35
   0   0 -16  101.04    9.16
   0  -1   2    2.81    1.86
   0   1  -2    2.42    1.33
   0   1   2    2.97    2.05
   0  -1  -2    2.42    1.33
   0  -1   2    2.31    1.09
   0   1  -2    2.99    1.39
   0  -1  -2    2.05    1.41
   0   1   2    2.15    1.14
   0  -1   2    2.12    1.05
   0   1  -2    1.78    0.99
   0  -1   3  505.65   13.97
   0   1  -3  512.94   14.05
   0   1   3  504.91   13.93
   0  -1  -3  502.66   13.74
   0   1  -3  481.26   13.05
   0  -1  -3  497.67   14.05
   0  -1   3  500.82   13.96
   0  -1   4 3963.13  257.41
   0   1  -4 2704.75   28.50
   0   1   4 2704.45   28.48
   0  -1  -4 2581.45   26.90
   0   1  -4 2573.75   26.84
   0  -1  -4 2665.19   29.32
   0  -1   4 2719.27   29.87
   0  -1   5  797.01   11.01
   0   1  -5  765.56   10.55
   0   1   5  756.26   20.66
   0  -1  -5  752.84   20.35
   0  -1  -5  790.09   13.28
   0  -1   5  752.71   22.17
   0  -1   6  297.23   12.85
   0   1  -6  281.40   12.27
   0   1   6  289.01   12.78
   0  -1  -6  287.30   12.16
   0  -1  -6  307.21   14.02
   0  -1   6  283.00   12.90
   0  -1   7  226.68   10.19
   0   1   7  219.19   11.17
   0  -1  -7  223.44   11.34
   0  -1   7  220.61   10.96
   0  -1   8   12.19    2.58
   0   1   8   19.98    5.68
   0  -1  -8   12.47    6.57
   0   1   9  818.88   18.21
   0  -1  -9  827.84   20.25
   0   1  -9  734.54   81.16
   0   1  10  410.48    7.47
   0  -1 -10  397.26   12.81
   0   1 -10  385.35    9.05
   0  -1  11  534.30   19.47
   0   1  11  545.34   20.30
   0  -1 -11  544.69   22.14
   0  -1  12   26.57    7.14
   0   1  12   27.96    4.00
   0  -1 -12   24.85    5.41
   0   1 -12   30.38   11.11
   0  -1 -13  497.27   23.25
   0   1 -13  505.67   19.64
   0  -1 -14   70.10    8.00
   0   1 -14   65.53   12.29
   0  -1 -15   27.20    9.86
   0   1 -15   26.98    7.61
   0  -1 -16    5.62    7.13
   0   1 -16    7.36    5.54
   0   2   0   12.97    1.63
   0   2   0   13.76    1.84
   0  -2   0   13.28    2.00
   0   2   0   14.60    1.73
   0  -2   1   21.61    2.54
   0   2  -1   21.26    2.57
   0   2   1   21.67    2.40
   0  -2  -1   21.23    2.52
   0  -2   1   26.07    2.79
   0   2  -1   22.20    2.34
   0  -2  -1   22.53    3.11
   0   2   1   21.88    2.56
   0  -2   1   21.48    2.13
   0   2  -1   27.52    2.65
   0  -2   2 1236.78   14.82
   0   2  -2 1197.72   14.39
   0   2   2 1218.86   14.41
   0  -2  -2 1160.31   14.20
   0  -2   2 1217.40   13.92
   0   2  -2 1201.05   13.72
   0  -2  -2 1249.98   15.82
   0  -2   2 1261.97   13.89
   0   2  -2 1219.47   13.35
   0  -2   3 1415.66   17.05
   0   2  -3 1316.11   15.77
   0   2   3 1367.54   16.17
   0  -2  -3 1321.80   15.72
   0  -2   3 1351.47   15.72
   0   2  -3 1312.95   15.03
   0  -2  -3 1362.12   17.01
   0  -2   3 1318.91   15.45
   0   2  -3 1369.31   15.75
   0  -2   4    9.42    5.00
   0   2  -4    8.62    1.47
   0   2   4    9.99    3.60
   0  -2  -4    8.69    1.74
   0  -2   4    8.78    1.46
   0  -2  -4    9.98    2.07
   0  -2   4    8.94    2.93
   0  -2   5 1669.22   20.30
   0   2   5 1760.09   22.03
   0  -2  -5 1688.36   22.46
   0  -2   5 1685.31   21.01
   0  -2   6 2422.08   28.26
   0   2   6 2323.57   26.46
   0  -2  -6 2425.01   30.85
   0  -2   6 2421.21   29.01
   0  -2   7  278.86   12.38
   0   2   7  274.07   12.14
   0  -2  -7  284.36   13.53
   0  -2   7  263.92   12.20
   0  -2   8    7.15    4.75
   0   2   8    8.34    4.39
   0  -2  -8    9.59    5.00
   0  -2   8    7.36    3.79
   0  -2   9  181.70    9.86
   0   2   9  179.69   10.16
   0  -2  -9  187.12   11.98
   0  -2  10  721.14   21.65
   0   2  10  734.66   23.07
   0  -2 -10  753.00   24.18
   0  -2  11  191.41   12.47
   0   2  11  206.82   13.88
   0  -2 -11  216.60   15.42
   0   2  12    3.60    2.31
   0  -2 -12    1.49    2.67
   0   2 -12    1.00    2.23
   0  -2  13   29.19    5.09
   0   2  13   30.91    4.73
   0  -2 -13   29.14    7.22
   0   2 -13   29.90    6.21
   0  -2 -14   51.51    9.35
   0   2 -14   58.20    6.27
   0  -2 -15  131.16   12.79
   0   2 -15  128.08    9.30
   0  -2 -16    2.54    4.16
   0   2 -16   -0.64    2.32
   0   3   0    0.96    1.96
   0  -3   0    2.07    2.06
   0  -3   1    1.83    1.84
   0   3   1    2.77    1.48
   0  -3   1    1.85    1.30
   0  -3  -1    3.58    2.34
   0  -3   1    1.84    0.92
   0  -3   2  158.81    8.26
   0   3   2  158.96    7.50
   0  -3   2  151.93    7.05
   0  -3  -2  167.04    8.48
   0  -3   2  159.99    6.88
   0   3  -2  156.42    6.71
   0  -3   3   64.00    4.47
   0   3   3   64.99    4.00
   0  -3   3   70.72    3.97
   0  -3  -3   67.55    5.02
   0  -3   3   66.00    3.46
   0  -3   4    1.84    2.60
   0   3   4    1.81    1.25
   0  -3  -4    1.18    3.58
   0  -3   4    0.96    0.80
   0  -3   5 1050.86   15.19
   0   3   5 1023.15   14.40
   0  -3   5 1013.64   13.44
   0  -3  -5 1027.59   15.97
   0  -3   5 1012.49   14.43
   0  -3   6  444.04   13.72
   0   3   6  446.61   14.33
   0  -3   6  452.71   13.58
   0  -3  -6  430.81   14.10
   0  -3   6  466.60   14.69
   0  -3   7  854.22   19.77
   0   3   7  860.24   19.33
   0  -3  -7  870.52   20.87
   0  -3   7  851.51   19.35
   0  -3   8   90.02   10.83
   0   3   8   83.18    6.93
   0  -3  -8   85.27    7.87
   0  -3   8   80.39    6.80
   0  -3   9  135.52   11.07
   0   3   9  132.22   10.64
   0  -3  -9  140.85   12.31
   0  -3   9  132.22   12.52
   0  -3  10 1111.39   32.28
   0   3  10 1095.76   30.94
   0  -3 -10 1164.36   34.07
   0  -3  11   88.10    9.56
   0   3  11   89.66    9.71
   0  -3 -11   94.51   11.17
   0  -3  12   13.68    6.86
   0   3  12   10.29    7.23
   0  -3 -12   13.40    8.92
   0  -3  13   49.89    7.22
   0   3  13   51.73    7.31
   0  -3 -13   52.82    8.11
   0  -3  14  227.88   11.86
   0  -3 -14  257.06   14.33
   0   3 -14  258.92   15.20
   0  -3 -15  115.83   10.92
   0   3 -15  104.57   10.18
   0  -3 -16    1.08    2.71
   0   3 -16    4.11    3.83
   0  -3 -17  117.89    7.63
   0   4   0   14.78    2.52
   0  -4   0   14.57    2.63
   0  -4   2 1088.38   16.87
   0   4   2 1093.35   15.91
   0  -4   2 1085.44   14.80
   0  -4   2 1097.11   12.84
   0   4  -2 1051.93   12.34
   0  -4   3 1546.37   21.67
   0   4   3 1568.41   21.15
   0  -4  -3 1557.17   21.14
   0  -4   3 1586.18   18.11
   0  -4   4  548.66   17.01
   0   4   4  538.62   16.32
   0  -4  -4  536.26   16.72
   0  -4   5    4.70    3.12
   0   4   5    5.72    4.26
   0  -4   5    3.32    2.55
   0  -4  -5    3.36    1.98
   0  -4   5    4.27    3.96
   0  -4   6  251.78   12.30
   0   4   6  245.79   11.50
   0  -4   6  241.12   10.85
   0  -4  -6  256.93   12.62
   0  -4   6  252.78   11.91
   0  -4   7   26.46    3.23
   0   4   7   27.36    3.24
   0  -4   7   25.93    3.04
   0  -4  -7   24.77    4.05
   0  -4   7   27.52    3.94
   0  -4   8   48.31    5.50
   0   4   8   50.67    4.87
   0  -4  -8   54.80   11.05
   0  -4   8   49.96    5.08
   0  -4   9   69.36    7.11
   0   4   9   63.88    6.18
   0  -4  -9   66.70    7.05
   0  -4   9   67.21    6.59
   0  -4  10  131.30    9.75
   0   4  10  131.65    9.35
   0  -4 -10  128.11   13.25
   0  -4  10  121.79   12.92
   0  -4  11 1321.96   58.04
   0   4  11 1347.50   17.26
   0  -4 -11 1335.14   31.10
   0  -4  12  529.19   20.23
   0   4  12  542.83   20.53
   0  -4 -12  532.07   22.89
   0  -4  13  278.21   10.13
   0   4  13  281.61   19.67
   0  -4 -13  283.65   20.86
   0  -4  14   15.09    5.48
   0   4  14   17.50    2.98
   0  -4 -14   21.38   10.41
   0  -4 -15  135.11   12.89
   0  -4 -16   29.61    7.51
   0  -4 -17    5.19    6.40
   0   5   0    0.53    1.79
   0  -5   0   -0.07    2.42
   0   5   1  281.84   13.04
   0   5  -1  294.36   14.17
   0  -5   1  295.79   14.94
   0  -5  -1  295.92   14.62
   0  -5   1  291.90   12.04
   0  -5   2   37.86    6.26
   0   5   2   37.31    5.74
   0  -5   2   41.32    5.62
   0  -5  -2   39.23    4.95
   0  -5   2   38.52    3.96
   0  -5   3  198.92   10.32
   0   5   3  211.93   10.51
   0  -5   3  184.40    8.94
   0  -5  -3  195.95   11.95
   0  -5   3  200.12    8.90
   0  -5   4   12.55    6.99
   0   5   4   10.39    2.70
   0  -5   4    9.83    4.50
   0  -5  -4   14.95    6.35
   0  -5   4   11.03    3.33
   0  -5   5 2227.06   47.40
   0   5   5 2161.89   44.30
   0  -5   5 2907.55  319.03
   0  -5  -5 2231.43   46.71
   0  -5   5 2093.29   41.41
   0  -5   6   95.10    6.27
   0   5   6   89.96   10.99
   0  -5   6   90.27   12.52
   0  -5  -6   89.06   11.08
   0  -5   6   92.62    5.29
   0  -5   7  786.65   19.69
   0   5   7  773.85   85.44
   0  -5   7  768.48   84.69
   0  -5  -7  771.28   85.87
   0  -5   7  806.56   18.95
   0  -5   8  720.51   22.05
   0   5   8  732.44   23.49
   0  -5   8  709.88   22.84
   0  -5  -8  736.92   23.28
   0  -5   8  746.24   22.03
   0  -5   9   18.75    8.89
   0   5   9   15.32    7.69
   0  -5  -9   18.38   12.29
   0  -5   9   14.75    8.57
   0  -5  10  442.08   15.13
   0   5  10  441.26   11.14
   0  -5 -10  465.02   22.09
   0  -5  10  446.09   19.02
   0  -5  11  459.62   24.14
   0   5  11  487.24   23.01
   0  -5 -11  491.42   24.57
   0  -5  12    0.80    1.49
   0   5  12    0.69    1.83
   0  -5 -12    1.88    3.84
   0  -5  13    2.37    1.63
   0   5  13    1.65    2.87
   0  -5 -13   -0.40    3.53
   0  -5  14   78.76    8.50
   0   5  14   86.21    9.45
   0  -5 -14   79.54   10.97
   0  -5 -15    1.81    3.99
   0  -5 -16   44.66    7.30
   0  -5 -17  123.03   13.60
   0   6   0  137.44    8.08
   0  -6   0  134.46   10.28
   0   6   1  677.22   21.04
   0   6  -1  680.48   20.85
   0  -6   1  684.63   20.68
   0  -6  -1  658.08   21.93
   0  -6   1  674.45   18.47
   0   6   2  290.64   14.04
   0  -6   2  319.41   14.79
   0  -6  -2  296.79   15.04
   0  -6   2  287.99   12.05
   0  -6   3  298.00   14.24
   0   6   3  304.86   15.88
   0  -6   3  291.52   13.28
   0  -6  -3  293.36   14.02
   0  -6   3  306.65   33.91
   0  -6   4    0.93    1.98
   0   6   4    0.82    2.52
   0  -6   4    0.57    1.80
   0  -6  -4   -0.09    3.33
   0  -6   4    0.35    0.92
   0  -6   5 1731.27   37.45
   0   6   5 1763.94   38.08
   0  -6  -5 1780.37   38.61
   0  -6   5 1723.27   34.61
   0  -6   6   57.05    5.78
   0   6   6   55.54    7.02
   0  -6   6   55.63    5.29
   0  -6  -6   57.10    7.42
   0  -6   6   53.61    5.28
   0  -6   7 1874.07   53.23
   0   6   7 1985.33   22.63
   0  -6   7 1838.44   49.29
   0  -6  -7 1946.82   24.87
   0  -6   7 1908.58   53.46
   0  -6   8   24.91    9.22
   0   6   8   20.90    8.35
   0  -6   8   18.40    3.98
   0  -6  -8   20.34    6.19
   0  -6   8   22.05    3.62
   0  -6   9  871.10   32.61
   0   6   9  919.62   33.89
   0  -6   9  906.67   32.90
   0  -6  -9  887.51   33.49
   0  -6   9  872.01   33.39
   0  -6  10   26.84    3.93
   0   6  10   25.95    7.49
   0  -6 -10   26.84   12.53
   0  -6  10   24.84    9.56
   0  -6  11  156.00    8.13
   0   6  11  151.91    8.04
   0  -6 -11  152.79   10.42
   0  -6  11  155.84   10.14
   0  -6  12    8.98    5.72
   0   6  12    7.97    5.84
   0  -6 -12    8.83    6.91
   0  -6  13   87.53    9.59
   0   6  13   88.54    9.12
   0  -6 -13   91.97   11.02
   0  -6  14   37.52    4.34
   0   6  14   41.39    5.26
   0  -6 -14   39.36   10.68
   0  -6 -16    3.06    4.97
   0  -6 -17  145.68   13.48
   0   7   0    0.83    2.36
   0  -7   0    1.11    2.32
   0   7   1  235.15   12.01
   0   7  -1  239.42   13.00
   0  -7   1  233.26   12.40
   0  -7  -1  233.39   15.28
   0  -7   1  232.72    9.88
   0   7   2    3.21    1.54
   0   7  -2    3.92    1.74
   0  -7   2    4.96    3.60
   0  -7  -2    5.30    4.10
   0  -7   2    4.77    2.00
   0   7   3   77.60    7.16
   0  -7   3   73.26    6.49
   0  -7  -3   84.06    7.85
   0  -7   3   75.03    5.73
   0  -7   4 1301.25   31.21
   0   7   4 1298.62   30.33
   0  -7   4 1178.38   27.48
   0  -7  -4 1254.11   30.14
   0  -7   4 1292.80   26.24
   0  -7   5  246.75   13.79
   0   7   5  241.05   13.52
   0  -7   5  240.21   12.92
   0  -7  -5  244.13   13.88
   0  -7   5  234.04   11.73
   0  -7   6   21.35    4.27
   0   7   6   24.08    4.52
   0  -7   6   31.40    6.31
   0  -7  -6   22.90    9.07
   0  -7   6   20.48    3.11
   0  -7   7   19.47    7.16
   0   7   7   23.95    4.36
   0  -7   7   21.49    3.77
   0  -7  -7   24.24   13.31
   0  -7   7   21.80    3.47
   0  -7   8 1703.81   63.97
   0   7   8 1696.83   59.80
   0  -7   8 1660.37   57.96
   0  -7  -8 1744.71   27.63
   0  -7   8 1774.25   20.19
   0  -7   9   -0.96    2.60
   0   7   9    1.04    2.17
   0  -7   9    2.12    2.58
   0  -7  -9    0.47    4.22
   0  -7   9    0.46    1.32
   0  -7  10    8.14    6.29
   0   7  10   11.55    7.18
   0  -7  10    7.83    4.03
   0  -7 -10   13.47    6.72
   0  -7  10    6.59    4.18
   0  -7  11  170.75    8.03
   0   7  11  164.02    8.29
   0  -7 -11  164.37   13.04
   0  -7  11  163.99    8.22
   0  -7  12   34.51    4.13
   0   7  12   32.08    5.95
   0  -7 -12   35.32   12.58
   0  -7  13  203.20   17.47
   0   7  13  192.36   16.69
   0  -7 -13  208.93   11.22
   0  -7  14    1.88    2.29
   0   7  14    1.30    2.04
   0  -7 -14    0.34    2.21
   0  -7 -15   22.46    7.50
   0  -7 -16  148.34   10.12
   0  -7 -17  139.31   14.03
   0   8   0  972.00   24.38
   0  -8   0  952.24   23.75
   0   8   1  273.09   14.16
   0   8  -1  282.72   14.35
   0  -8   1  284.38   14.18
   0  -8  -1  280.47   15.90
   0  -8   1  272.05   12.28
   0   8   2  243.33   12.84
   0   8  -2  240.36   12.67
   0  -8   2  272.02   13.69
   0  -8  -2  257.40   13.28
   0  -8   2  250.25   10.75
   0   8   3  266.18   15.98
   0   8  -3  248.02   14.19
   0  -8   3  245.08   16.28
   0  -8  -3  277.11   15.56
   0  -8   3  247.29   12.54
   0   8   4  128.21   12.70
   0   8  -4  122.39   10.72
   0  -8   4  122.42   10.69
   0  -8  -4  131.82   12.41
   0  -8   4  130.60   11.06
   0  -8   5   23.87   13.16
   0   8   5   24.92    5.52
   0  -8   5   19.64    3.43
   0  -8  -5   23.39    4.83
   0  -8   5   23.92    3.40
   0  -8   6    2.90    3.52
   0   8   6    2.00    2.73
   0  -8   6    1.88    4.37
   0  -8  -6    0.55    2.57
   0  -8   6    2.11    1.18
   0  -8   7    0.42    2.54
   0   8   7    1.11    2.71
   0  -8   7    1.32    1.85
   0  -8  -7    1.65    3.12
   0  -8   7    1.50    1.84
   0  -8   8   21.92   10.61
   0   8   8   21.36   12.30
   0  -8   8   18.27    3.56
   0  -8  -8   18.77   13.38
   0  -8   8   19.06    6.86
   0  -8   9   28.21    4.52
   0   8   9   30.20    8.15
   0  -8   9   26.72    3.37
   0  -8  -9   28.50    9.08
   0  -8  10    9.93    6.73
   0   8  10    8.64    6.85
   0  -8  10    7.98    3.77
   0  -8 -10    9.53    5.02
   0  -8  10    8.92    4.92
   0  -8  11   89.69    7.83
   0   8  11   81.15   12.92
   0  -8  11   94.83    6.85
   0  -8 -11   83.34    9.02
   0  -8  11   81.34   10.14
   0  -8  12  354.29   23.15
   0   8  12  370.21   24.08
   0  -8 -12  358.11   22.67
   0  -8  13  287.61   26.98
   0   8  13  260.71   21.41
   0  -8 -13  284.23   22.98
   0   8  14    9.95    9.71
   0  -8 -14   13.26    8.25
   0  -8 -15  115.68    8.70
   0  -8 -16   69.20    6.92
   0  -8 -17   34.14   11.09
   0   9   0    0.97    2.23
   0  -9   0    1.29    2.63
   0   9   1   43.74    7.68
   0   9  -1   46.26    7.26
   0  -9   1   45.74    8.00
   0  -9  -1   42.17    7.04
   0  -9   1   42.17    5.64
   0   9   2 1020.47   32.04
   0   9  -2 1012.11   33.10
   0   9   3  769.19   29.73
   0   9  -3  789.70   26.29
   0  -9   3  718.06   28.32
   0  -9  -3  754.71   25.25
   0  -9   3  749.40   20.52
   0   9   4   58.54    8.65
   0   9  -4   50.60    7.12
   0  -9   4   51.01    8.38
   0  -9  -4   57.66   11.83
   0  -9   4   54.88    5.94
   0   9   5  592.21   24.31
   0   9  -5  583.35   23.84
   0  -9   5  556.39   25.29
   0  -9  -5  616.93   31.18
   0  -9   5  576.16   21.84
   0   9   6   88.31   10.29
   0   9  -6   93.45   13.05
   0  -9   6  109.74   12.14
   0  -9  -6   79.88    9.80
   0  -9   6   84.46    9.31
   0   9   7  174.96   15.65
   0   9  -7  169.94   14.83
   0  -9   7  215.27   18.54
   0  -9  -7  164.31   14.94
   0  -9   7  163.12   14.49
   0   9   8   11.27    8.03
   0  -9   8    7.36    5.32
   0  -9  -8   10.35    5.28
   0  -9   8    8.76    6.93
   0   9   9   39.11   12.37
   0  -9   9   38.81    7.69
   0  -9  -9   39.49    8.12
   0  -9   9   41.88    6.34
   0   9  10  515.00   35.17
   0  -9  10  494.48   32.79
   0  -9 -10  501.93   34.67
   0  -9  10  466.10   32.75
   0   9  11   21.14   12.63
   0  -9  11   17.16   10.61
   0  -9 -11   19.95   12.15
   0  -9  11   19.31    3.12
   0   9  12   17.59   11.09
   0   9 -12   16.10    7.43
   0  -9 -12   16.45   11.19
   0   9  13    3.24    3.43
   0   9 -13    4.85    4.27
   0  -9 -13    3.96    5.99
   0   9  14  258.85   19.19
   0   9 -14  244.28   17.44
   0  -9 -14  265.41   22.61
   0  -9 -15   89.28    8.49
   0  -9 -16    5.21    6.71
   0  -9 -17   15.19   15.30
   0  10   0  216.04   19.71
   0 -10   0  223.66   15.83
   0  10   1   85.02   10.51
   0  10  -1   74.91   16.63
   0 -10   1   95.73   11.80
   0 -10  -1   81.74   10.10
   0 -10   1   80.60    8.35
   0  10   2  500.74   21.74
   0  10  -2  462.88   20.55
   0 -10   2  533.23   21.88
   0 -10  -2  491.75   22.62
   0 -10   2  525.60   19.18
   0  10   3   37.25   11.21
   0  10  -3   37.20    5.12
   0 -10   3   43.25    9.62
   0 -10  -3   46.28   20.28
   0 -10   3   35.54    2.33
   0  10   4    4.03    2.99
   0  10  -4    1.86    3.58
   0 -10   4    1.54    2.95
   0 -10  -4    3.75    3.17
   0 -10   4    1.14    0.92
   0  10   5   79.57   12.18
   0  10  -5   72.20   10.46
   0 -10   5   65.31    7.65
   0 -10  -5   73.75   22.25
   0 -10   5   69.08    5.30
   0  10   6  712.25   32.09
   0  10  -6  689.49   26.89
   0 -10   6  768.35   29.53
   0 -10  -6  674.16   34.24
   0 -10   6  664.02   22.18
   0  10   7    0.78    1.75
   0  10  -7    1.87    1.82
   0 -10   7   -0.67    5.56
   0 -10  -7    2.36    5.72
   0 -10   7    2.22    1.63
   0  10   8    0.56    2.10
   0  10  -8    2.39    3.14
   0 -10   8    0.71    2.50
   0 -10  -8    2.65    6.15
   0 -10   8    2.93    1.78
   0  10   9   31.46    5.88
   0  10  -9   31.04    6.94
   0 -10   9   27.82   13.45
   0 -10  -9   34.60   20.28
   0 -10   9   28.39    3.62
   0  10  10  226.04   15.63
   0  10 -10  236.45   16.02
   0 -10  10  229.62   15.15
   0 -10 -10  237.38   17.17
   0 -10  10  215.32   14.17
   0  10  11  229.04   18.87
   0  10 -11  225.26   18.48
   0 -10  11  234.54   23.74
   0 -10 -11  235.20   20.29
   0  10  12   15.95   13.38
   0  10 -12   15.03    9.61
   0 -10  12   16.48   11.82
   0 -10 -12   22.06   13.43
   0  10  13   11.85   14.02
   0  10 -13   13.89   11.41
   0 -10 -13   18.26   15.03
   0  10  14   15.87    9.16
   0  10 -14   10.43   12.67
   0 -10 -14   16.88   12.28
   0 -10 -15    1.57    3.55
   0 -10 -16    1.99    2.81
   0 -10 -17   24.46    9.82
   0  11   0    1.78    3.02
   0 -11   0   -0.11    2.78
   0  11   1   42.25   19.43
   0  11  -1   40.90   16.26
   0 -11   1   49.47   23.17
   0 -11  -1   36.76    5.94
   0 -11   1   33.38    2.67
   0  11   2  121.15   13.92
   0  11  -2  111.16   12.84
   0 -11   2  114.60   15.05
   0 -11  -2  103.52   15.20
   0 -11   2  105.63   10.12
   0  11   3  625.59   33.35
   0  11  -3  627.05   25.25
   0 -11   3  611.59   25.75
   0 -11  -3  611.46   26.15
   0 -11   3  620.15   20.56
   0  11   4   90.97   13.33
   0  11  -4   92.18   12.20
   0 -11   4   86.18   12.42
   0 -11  -4   95.89   13.18
   0  11   5   52.87    8.79
   0  11  -5   40.18    7.29
   0 -11   5   44.31   10.51
   0 -11  -5   42.23    7.73
   0 -11   5   45.60    6.03
   0  11   6   14.26    8.03
   0  11  -6   13.58    7.48
   0 -11   6   12.69    7.38
   0 -11  -6   10.95    6.90
   0 -11   6    7.53    4.28
   0  11   7  115.33   10.88
   0  11  -7  116.12   14.68
   0 -11   7  313.04   33.93
   0 -11  -7  114.61   11.79
   0 -11   7  112.47    8.68
   0  11   8  111.06   12.06
   0  11  -8  111.81   12.24
   0 -11   8  123.00   12.55
   0 -11  -8  111.54   18.72
   0  11   9   95.80    9.21
   0  11  -9   98.64   11.36
   0 -11   9   98.34    8.34
   0 -11  -9  106.72   10.21
   0 -11   9   88.44    6.82
   0  11  10   55.67    6.59
   0  11 -10   52.66   11.14
   0 -11  10   52.91    9.00
   0 -11 -10   54.34   10.05
   0 -11  10   50.75    6.79
   0  11  11   10.23    6.95
   0  11 -11   14.68    7.16
   0 -11  11    9.68    4.60
   0 -11 -11   11.75   10.72
   0  11  12    1.62    2.46
   0  11 -12    1.16    2.44
   0 -11  12    2.00    2.68
   0 -11 -12    3.67    4.56
   0  11  13   27.16    4.92
   0  11 -13   21.30    9.07
   0 -11  13   28.53    4.30
   0 -11 -13   28.19    5.81
   0  11  14   55.60    6.39
   0  11 -14   63.73    6.87
   0 -11 -14   58.98    8.72
   0 -11 -15   64.74   10.04
   0 -11 -16   18.69    8.14
   0  12   0  754.99   36.38
   0 -12   0  819.35   31.22
   0 -12   0  707.47   22.52
   0  12   1    1.93    6.48
   0  12  -1    5.16    6.38
   0 -12   1    5.46    3.52
   0 -12  -1    3.68    3.49
   0  12   2    1.13    5.27
   0  12  -2   -0.17    4.31
   0 -12   2    1.28    2.84
   0 -12  -2    2.00    4.33
   0 -12   2    0.24    0.79
   0  12   3    8.96    4.37
   0  12  -3    7.87    6.19
   0 -12   3    6.98    5.28
   0 -12  -3    6.10    5.96
   0 -12   3    5.69    2.55
   0  12   4   10.33    4.35
   0  12  -4   11.71    6.80
   0 -12   4    9.43    6.86
   0 -12  -4    8.64    7.28
   0  12   5    2.12    4.07
   0  12  -5    0.57    4.84
   0 -12   5    4.00    3.80
   0 -12  -5    6.63    5.39
   0  12   6   25.00   12.91
   0  12  -6   21.47   13.87
   0 -12   6   20.64   14.62
   0 -12  -6   27.05   18.28
   0  12   7   85.77   10.94
   0  12  -7   90.52    8.35
   0 -12   7  523.50   80.72
   0 -12  -7   90.85    8.86
   0  12   8   47.99    6.92
   0  12  -8   42.82   17.95
   0 -12   8   51.67    7.72
   0 -12  -8   43.55   12.99
   0  12   9    8.97    6.09
   0  12  -9    8.67    5.28
   0 -12   9    8.43    4.08
   0 -12  -9    6.60    6.66
   0  12  10    2.74    4.74
   0  12 -10    2.36    3.44
   0 -12  10    1.70    2.14
   0 -12 -10    1.98    3.70
   0  12  11    0.95    2.54
   0  12 -11    0.90    2.20
   0 -12  11    1.51    3.39
   0 -12 -11    1.36    2.46
   0  12  12  434.34   19.08
   0  12 -12  401.79   34.32
   0 -12  12  436.75   14.95
   0 -12 -12  446.56   17.72
   0  12  13    8.94    4.61
   0  12 -13    3.09    4.09
   0 -12  13    4.64    6.54
   0 -12 -13    6.84    6.52
   0  12  14    2.67    3.88
   0  12 -14    1.45    1.50
   0 -12 -14    4.41    5.17
   0 -12 -15    3.95    4.71
   0 -12 -16   89.32    9.14
   0  13   0    1.28    4.02
   0 -13   0    1.24    3.60
   0  13   1  297.66   18.08
   0  13  -1  296.39   21.68
   0 -13   1  275.48   16.43
   0 -13  -1  292.39   17.65
   0  13   2  221.55   17.03
   0  13  -2  216.54   14.87
   0 -13   2  202.58   19.96
   0 -13  -2  228.71   15.26
   0  13   3  146.22   15.53
   0  13  -3  147.57   15.62
   0 -13   3  133.92   14.41
   0 -13  -3  134.80   12.37
   0  13   4  250.54   17.84
   0  13  -4  253.19   28.93
   0 -13   4  245.69   16.56
   0 -13  -4  235.05   17.17
   0  13   5   45.67    7.01
   0  13  -5   45.19   12.05
   0 -13   5   40.62    6.90
   0 -13  -5   49.83   17.92
   0  13   6    2.30    2.97
   0  13  -6    2.03    5.72
   0 -13   6    3.87    2.86
   0 -13  -6    2.66    4.84
   0  13   7    1.50    3.78
   0  13  -7    1.29    1.87
   0 -13   7   18.42   23.62
   0 -13  -7   -1.18    4.60
   0  13   8  383.77   24.84
   0  13  -8  373.86   37.90
   0 -13   8  437.16   28.74
   0 -13  -8  369.79   24.82
   0  13   9   23.10   13.15
   0  13  -9   23.22   15.93
   0 -13   9   33.35    6.16
   0 -13  -9   28.16   20.26
   0  13  10   28.55   22.83
   0  13 -10   27.91    7.14
   0 -13  10   30.11   14.12
   0 -13 -10   32.33    7.91
   0  13  11   53.55   14.09
   0  13 -11   56.19    6.26
   0 -13  11   58.97   20.93
   0 -13 -11   52.24   10.56
   0  13  12    6.54    5.37
   0  13 -12    3.10    3.17
   0 -13  12    7.14    3.46
   0  13  13  112.05   15.54
   0  13 -13  102.70   11.55
   0 -13  13   92.65   10.31
   0 -13 -13   82.28   18.93
   0  13 -14    0.88    3.58
   0 -13 -14    1.33    3.09
   0 -13 -15   10.70   13.94
   0  14   0   43.20   10.01
   0 -14   0   42.98   15.11
   0  14   1   20.29   11.85
   0  14  -1   26.70   12.75
   0 -14   1   28.36   12.00
   0 -14  -1   29.37   15.06
   0  14   2   61.82    7.49
   0  14  -2   69.16   11.28
   0 -14   2   62.01    6.85
   0 -14  -2   71.73    9.37
   0  14   3   56.98   17.48
   0  14  -3   55.00   25.25
   0 -14   3   61.64    8.46
   0 -14  -3   44.65   13.70
   0  14   4    2.46    4.18
   0  14  -4    4.59    6.45
   0 -14   4    4.40    5.27
   0 -14  -4    3.60    5.53
   0  14   5  254.79   19.33
   0  14  -5  241.48   18.20
   0 -14   5  212.43   24.11
   0 -14  -5  221.04   28.57
   0  14   6   87.85   17.44
   0  14  -6   86.86   20.27
   0 -14   6   91.95    9.75
   0 -14  -6   89.38   13.36
   0  14  -7  119.83   12.30
   0 -14   7  722.37  101.37
   0 -14  -7  125.12   18.73
   0  14   8    0.68    3.62
   0  14  -8    2.05    4.72
   0 -14   8    3.31    3.79
   0 -14  -8   -0.29    4.58
   0  14   9   81.55    8.51
   0  14  -9   74.81   14.45
   0 -14   9   86.62    7.66
   0 -14  -9   73.94   19.97
   0  14  10   11.24   11.68
   0  14 -10    9.52   10.83
   0 -14  10   13.71   10.88
   0 -14 -10   14.60   12.29
   0  14  11    5.06    5.98
   0  14 -11    1.56    4.30
   0 -14  11    0.63    2.21
   0 -14 -11    2.16    3.82
   0  14  12    2.13    5.02
   0  14 -12    5.89    5.45
   0 -14  12    5.41    3.20
   0 -14 -12    7.03    8.96
   0  14  13    0.99    2.91
   0  14 -13    1.92    3.32
   0 -14  13    1.56    2.63
   0 -14 -13    0.43    3.61
   0  15   0    4.49    5.43
   0 -15   0    7.81    5.98
   0  15   1   20.38   12.01
   0  15  -1   18.91   18.60
   0 -15   1   18.45   10.19
   0 -15  -1   16.26   16.07
   0  15   2  247.57   20.36
   0  15  -2  239.53   21.85
   0 -15   2  247.40   24.07
   0 -15  -2  333.17   28.36
   0  15   3   24.00   16.09
   0  15  -3   27.18   11.01
   0 -15   3   24.73   15.52
   0 -15  -3   28.38   16.81
   0  15   4  191.04   15.49
   0  15  -4  174.73   12.50
   0 -15   4  157.44   10.34
   0 -15  -4  164.91   24.42
   0  15   5  285.60   14.46
   0  15  -5  267.16   14.18
   0 -15   5  262.38   12.97
   0 -15  -5  274.68   21.01
   0  15   6    0.67    3.41
   0  15  -6    3.73    4.24
   0 -15   6    3.87    5.35
   0 -15  -6    3.21    4.17
   0  15   7  185.98   17.94
   0  15  -7  190.27   17.89
   0 -15  -7  182.30   17.45
   0  15   8   70.42    8.38
   0  15  -8   78.39   12.61
   0 -15   8   83.05    8.48
   0 -15  -8   63.30    8.03
   0  15   9   10.70   16.15
   0  15  -9   13.70   16.83
   0 -15   9   26.45   11.68
   0 -15  -9   16.53   12.86
   0  15  10   59.51   10.13
   0  15 -10   59.57   11.19
   0 -15  10   64.36    9.59
   0 -15 -10   49.08   22.88
   0  15  11   36.13   23.12
   0  15 -11   34.98   19.36
   0 -15  11   48.34    6.19
   0 -15 -11   38.51   23.34
   0  15  12    2.25    3.91
   0  15 -12    0.73    3.76
   0 -15  12    2.65    3.47
   0 -15 -12    2.17    4.82
   0  16   0    4.42    4.02
   0 -16   0    2.18    2.55
   0  16   1  101.08   10.10
   0  16  -1  105.86   19.17
   0 -16   1  103.92   10.62
   0 -16  -1  101.28    9.30
   0  16   2   15.24   15.65
   0  16  -2   22.25   13.63
   0 -16   2   15.95    9.67
   0 -16  -2   17.15   16.40
   0  16   3   18.29   20.61
   0  16  -3   29.25   19.35
   0 -16   3   22.37   12.60
   0 -16  -3   29.39   20.16
   0  16   4    2.18    4.50
   0  16  -4    2.69    3.17
   0 -16   4    3.31    3.98
   0 -16  -4    2.01    3.25
   0  16   5    2.03    6.01
   0  16  -5    5.37    5.32
   0 -16   5    5.52    4.55
   0 -16  -5    6.38    7.78
   0  16   6   68.36    9.09
   0  16  -6   53.04    9.35
   0 -16   6   92.72   11.91
   0 -16  -6   55.49    8.47
   0  16   7    5.94    4.03
   0  16  -7    4.20    5.90
   0 -16   7    5.72    5.92
   0 -16  -7    9.21    7.20
   0  16   8    2.92    6.54
   0  16  -8    5.42    5.14
   0 -16   8    4.21    3.40
   0 -16  -8    2.06    2.54
   0  16   9   25.37   18.31
   0  16  -9   20.69   16.66
   0 -16   9   27.09   17.56
   0 -16  -9   22.90   11.47
   0  16  10    5.98    5.24
   0  16 -10    2.54    3.30
   0 -16  10    6.60    3.83
   0 -16 -10    7.66    6.73
   0  17   0    3.44    5.30
   0 -17   0    2.67    3.82
   0  17   1   44.82    9.55
   0  17  -1   36.72    7.40
   0 -17   1   45.99   16.94
   0 -17  -1   39.27    8.00
   0  17   2  149.80   16.21
   0  17  -2  153.07   20.15
   0 -17   2  132.44   19.83
   0 -17  -2  138.52   14.85
   0  17   3    1.37    3.53
   0  17  -3    1.71    3.77
   0 -17   3    3.21    3.80
   0 -17  -3    3.64    4.09
   0  17   4    8.13    6.68
   0  17  -4    7.14    5.21
   0 -17   4    4.90    4.99
   0 -17  -4    6.07   10.02
   0  17   5   29.04   25.45
   0  17  -5   30.87   15.51
   0 -17   5   41.96   19.32
   0 -17  -5   36.78   18.14
   0  17   6    9.08   13.70
   0  17  -6    9.11    7.92
   0 -17   6   10.07   13.50
   0 -17  -6    7.81    8.95
   0  17   7   16.29   18.25
   0  17  -7   30.78    7.76
   0 -17   7   44.03   24.62
   0 -17  -7   20.29   24.37
   0  17   8   11.28    8.35
   0  17  -8    6.84    8.83
   0 -17   8   13.56   13.39
   0 -17  -8   12.93   15.66
   0  18   0    8.05    8.23
   0 -18   0    4.09    6.01
   0  18   1    9.18    8.23
   0  18  -1    6.65    5.44
   0 -18   1    7.21    8.19
   0 -18  -1    3.76    3.65
   0  18   2    1.35    4.74
   0  18  -2    1.97    4.83
   0 -18   2    2.71    2.37
   0 -18  -2    3.82    4.96
   0  18   3   24.46   11.37
   0  18  -3   16.29   20.10
   0 -18   3   29.76   15.82
   0 -18  -3   14.10   21.19
   0  18   4   28.36   21.06
   0  18  -4   23.99   12.16
   0 -18   4   25.10   17.95
   0 -18  -4   30.78   18.12
   0  18   5   76.85   13.54
   0  18  -5   65.11   21.08
   0 -18   5   61.02   30.15
   0 -18  -5   90.95   15.54
   1   0 -17    3.48    4.34
   1   0 -16   11.44    7.68
   1   0 -15   49.56    6.78
   1   0 -14  114.20   11.56
   1   0 -13  198.01   14.72
  -1   0  12   42.85    3.57
   1   0 -12   47.50    8.30
  -1   0  11  499.11   17.35
   1   0 -11  436.84    5.45
   1   0 -11  532.00   23.87
  -1   0  10  108.79    8.76
   1   0 -10  108.64    8.44
   1   0 -10  139.81   12.16
  -1   0   9 3531.39  386.48
   1   0  -9 1645.08   31.48
   1   0  -9 1742.74   37.53
  -1   0   9 1697.62   38.59
  -1   0   8  215.28    9.30
   1   0  -8  210.28    8.81
   1   0  -8  211.54   10.76
  -1   0   8  199.85   10.92
  -1   0   7   61.07    4.82
   1   0  -7   63.67    3.10
   1   0  -7   75.86    5.79
  -1   0   7   61.55    5.65
  -1   0   6   77.88    4.06
   1   0  -6   85.87    3.84
  -1   0   6   84.09    5.77
  -1   0   5  271.96   11.01
  -1   0   5  282.00   13.78
  -1   0   4  836.65   12.11
  -1   0   3  393.33   11.42
  -1   0   2    9.63    1.64
   1   0  -2   13.29    1.62
   1   0   2   14.06    2.39
  -1   0  -2   12.12    1.57
   1   0   3  382.84   11.69
  -1   0  -3  369.03   10.82
  -1   0  -3  395.14   10.76
   1   0   4  817.56   11.76
  -1   0  -4  763.54   11.64
  -1   0  -4  868.51   10.93
   1   0   5  271.71   12.11
  -1   0  -5  278.12   11.81
   1   0   6   94.25    5.65
  -1   0  -6   78.58    4.42
   1   0   7   68.96    4.90
  -1   0  -7   62.95    4.62
   1   0   8  210.40   10.60
  -1   0  -8  217.11   10.04
   1   0   9 1750.78   35.81
  -1   0  -9 1775.91   37.19
   1   0  10  133.47   11.58
  -1   0 -10  134.93   11.87
   1   0  11  529.69   20.00
  -1   0 -11  527.53   20.35
   1   0  12   46.63    6.30
  -1   0 -12   50.58    5.42
   1   0  13  198.01    9.34
  -1   0 -13  202.50    8.26
   1   0  14   98.65    8.29
  -1   0 -14  101.74    8.90
  -1   0 -15   51.61    4.88
   1  -1 -17  180.80   15.41
   1   1 -17  163.31   15.94
   1  -1 -16    7.30    5.21
   1   1 -16    4.13    3.60
   1  -1 -15   21.33   13.88
   1   1 -15   26.72    6.87
   1  -1 -14  195.82   18.75
   1   1 -14  207.12   19.76
   1  -1 -13  576.15   22.67
   1   1 -13  582.95   31.08
  -1  -1  12  480.02   20.98
  -1   1  12  436.45   19.27
   1  -1 -12  477.15   24.46
   1   1 -12  474.22   24.90
  -1  -1  11 1303.10   43.72
  -1   1  11 1247.53   42.11
   1   1 -11 1093.53   36.64
   1  -1 -11 1060.65   35.62
   1  -1 -11 1336.35   51.09
   1   1 -11 1302.49   47.13
  -1  -1  11 1239.05   44.44
  -1  -1  10   30.14    3.86
  -1   1  10   30.66    3.86
   1   1 -10   24.98    4.76
   1  -1 -10   25.12    4.21
   1  -1 -10   31.56    9.36
  -1  -1  10   31.73    9.80
  -1  -1   9    2.88    1.42
  -1   1   9    2.99    1.33
   1   1  -9    2.82    1.44
   1  -1  -9    2.75    1.37
   1  -1  -9    5.18    2.84
  -1  -1   9    3.57    1.77
  -1  -1   8  139.22    7.02
  -1   1   8  130.65    6.35
   1   1  -8  135.98    6.18
   1  -1  -8  122.23    5.54
   1  -1  -8  137.55    8.19
  -1   1   8  125.04    7.33
  -1  -1   8  134.13    9.28
  -1  -1   7  751.71   20.42
  -1   1   7  699.99   19.20
   1   1  -7  727.47   19.59
   1  -1  -7  668.48   17.97
   1  -1  -7  725.00   22.15
  -1   1   7  693.32   21.92
  -1  -1   7  747.84   22.31
  -1  -1   6    5.70    2.48
   1   1  -6    5.11    2.21
  -1   1   6    5.39    1.92
   1  -1  -6    3.76    0.98
   1  -1  -6    4.31    2.32
  -1   1   6    7.52    2.85
  -1  -1   6    4.67    2.86
  -1  -1   5 1370.06   14.98
  -1   1   5 1228.09   13.61
   1  -1  -5 1310.54   18.51
  -1   1   5 1281.68   17.54
  -1  -1   5 1291.70   17.13
  -1  -1   4   24.03    2.44
  -1   1   4   34.34    3.46
   1  -1  -4   21.51    2.47
   1  -1  -4   27.10    7.65
  -1   1   4   36.09    4.18
  -1  -1   4   23.01    4.13
  -1   1   3   16.47    2.09
   1   1  -3   16.22    1.84
  -1   1   3   15.83    2.04
   1   1  -3   17.29    2.05
   1  -1  -3   13.13    2.10
  -1   1   3   16.54    2.41
  -1  -1   3   14.73    1.97
   1  -1  -2 3362.59   33.34
  -1   1   2 3411.63   33.89
  -1  -1   2 3454.25   34.22
   1   1  -2 3252.95   33.07
   1  -1  -2 3554.25   37.28
  -1   1   2 3314.91   34.77
  -1   1   2 3266.49   33.19
   1  -1  -2 3233.84   33.22
  -1  -1   2 3325.58   33.84
   1   1  -2 3416.29   34.70
  -1   1   1 5397.91  350.28
  -1  -1   0    2.80    4.43
   1  -1   1 5935.30  384.88
  -1   1  -1 6619.25  429.25
   1  -1   2 3595.90   37.51
  -1   1  -2 3403.18   35.33
   1   1   2 3351.34   34.68
  -1  -1  -2 3323.40   34.36
  -1  -1  -2 3468.90   34.68
   1   1   2 3500.22   35.01
   1  -1   3   15.45    2.44
  -1   1  -3   14.36    2.14
   1   1   3   13.41    1.93
  -1  -1  -3   14.60    1.90
   1  -1   3   16.04    1.85
  -1   1  -3   13.64    1.43
  -1  -1  -3   16.93    2.04
   1  -1   4   33.82    3.80
   1   1   4   25.07    3.21
  -1   1  -4   21.76    2.59
  -1  -1  -4   34.10    3.67
   1   1   4   24.32    3.23
   1  -1   5 1236.08   16.87
   1   1   5 1335.77   17.46
  -1  -1  -5 1368.40   16.95
   1   1   5 1329.01   16.21
   1  -1   6    5.51    3.44
   1   1   6    4.29    3.66
  -1   1  -6    3.79    1.49
  -1  -1  -6    6.99    3.45
   1  -1   7  725.71   21.14
   1   1   7  726.18   21.13
  -1  -1  -7  773.88   14.84
   1  -1   8  138.85    7.90
   1   1   8  133.79    8.94
  -1  -1  -8  138.40    7.37
  -1   1  -8  130.40    6.51
   1  -1   9    4.11    1.97
   1   1   9    4.24    2.68
  -1  -1  -9    4.81    2.07
  -1   1  -9    4.11    1.86
   1  -1  10   28.91    4.30
   1   1  10   27.46    5.59
  -1  -1 -10   31.77    6.72
  -1   1 -10   32.39    8.75
   1  -1  11 1234.53   43.53
   1   1  11 1367.50   47.98
  -1  -1 -11 1292.87   46.18
  -1   1 -11 1323.62   46.73
   1  -1  12  443.94   21.92
   1   1  12  495.58   23.38
  -1  -1 -12  472.80   26.54
  -1   1 -12  454.25   22.43
   1  -1  13  808.12   31.50
   1   1  13  592.26   24.57
  -1   1 -13  576.11   22.41
   1  -1  14  224.28   18.75
   1   1  14  201.82   16.53
  -1  -1 -14  209.11   18.83
  -1   1 -14  187.96   15.83
  -1  -1 -15   19.99    5.08
  -1   1 -15   18.68    6.83
   1  -2 -17   49.89    6.62
   1   2 -17   44.49    5.84
   1  -2 -16   18.53   11.36
   1   2 -16   15.94   11.36
   1  -2 -15    4.77    4.38
   1   2 -15   11.03    8.24
   1  -2 -14  250.05   22.60
   1   2 -14  278.03   14.67
  -1  -2  13  258.25    8.51
   1  -2 -13  267.05   14.29
   1   2 -13  257.79   12.20
  -1  -2  12  137.06    5.26
  -1   2  12  131.27   12.80
   1  -2 -12  136.21   14.32
  -1  -2  11  212.54   13.49
  -1   2  11  220.50   13.75
   1  -2 -11  216.46   15.41
  -1  -2  11  221.64   19.21
  -1  -2  10  808.03   22.01
  -1   2  10  732.23   21.53
   1  -2 -10  782.22   25.66
  -1  -2  10  780.35   23.92
  -1  -2   9  334.20   16.14
  -1   2   9  348.94    6.40
   1  -2  -9  321.65   17.78
  -1  -2   9  338.98   17.74
  -1  -2   8  321.80   13.45
  -1   2   8  340.44   13.29
   1  -2  -8  308.36   35.38
  -1  -2   8  330.16   15.54
  -1  -2   7  442.70   15.98
   1   2  -7  456.30   16.53
  -1   2   7  471.85   17.65
   1  -2  -7  398.43   14.26
   1  -2  -7  460.09   18.42
  -1  -2   7  459.20   17.87
  -1  -2   6  770.28   10.65
   1   2  -6  733.14   20.07
  -1   2   6  793.82   10.99
   1  -2  -6  731.75   19.91
   1  -2  -6  783.57   13.90
  -1  -2   6  739.86   21.36
  -1  -2   5  455.59   13.12
   1   2  -5  363.30   11.06
  -1   2   5  380.53   11.29
   1  -2  -5  416.48   11.75
   1  -2  -5  461.02   14.93
  -1   2   5  386.35   12.12
  -1  -2   5  452.04   14.50
  -1   2   4  328.00   21.89
  -1  -2   4  342.21   10.05
   1   2  -4  327.81   21.80
  -1   2   4  329.63   22.30
   1  -2  -4  346.94   12.02
  -1   2   4  330.59   22.27
  -1  -2   4  352.95   10.71
  -1   2   3 1202.29   14.29
   1   2  -3 1235.46   14.51
  -1   2   3 1261.34   14.81
   1   2  -3 1231.11   14.74
   1  -2  -3 1137.20   16.33
  -1   2   3 1245.93   15.30
  -1  -2   3 1121.85   14.40
   1   2  -2 2393.24   25.50
   1  -2  -2 2453.97   26.55
   1   2  -2 2558.41   27.03
  -1  -2   2 2367.97   25.72
   1  -2  -2 2504.15   28.06
  -1  -2   2 2356.84   24.91
   1   2  -2 2501.91   27.20
   1  -2  -1 1777.12   19.96
  -1   2   1 1655.91   18.81
   1   2  -1 1721.02   19.22
  -1  -2   1 1676.15   18.62
   1  -2  -1 1743.03   20.02
  -1   2   1 1671.73   19.22
  -1   2   1 1743.91   18.07
   1  -2  -1 1709.33   17.56
  -1  -2   1 1753.64   18.71
   1  -2   0  546.64   15.37
  -1   2   0  519.99   15.13
   1   2   0  554.63   15.43
  -1  -2   0  530.62   14.80
  -1  -2   0  538.11   14.83
   1   2   0  637.50   17.63
   1  -2   0  546.11   15.16
  -1   2   0  530.66   14.82
  -1   2   0  520.36   13.48
   1  -2   1 1731.91   20.22
  -1   2  -1 1755.46   20.18
   1   2   1 1748.55   19.92
  -1  -2  -1 1676.92   19.05
  -1  -2  -1 1693.52   18.78
   1   2   1 1715.58   18.96
   1  -2   1 1688.40   18.44
  -1   2  -1 1697.79   18.53
  -1   2  -1 1741.85   17.04
   1   2   2 2488.56   27.38
   1  -2   2 2566.54   26.57
  -1  -2  -2 2646.60   28.13
  -1   2  -2 2396.15   24.91
  -1   2  -2 2425.44   28.86
   1   2   3 1135.17   15.14
   1  -2   3 1212.51   13.85
   1   2   4  349.26   11.30
   1  -2   4  332.84   21.97
  -1   2  -4  324.54   21.41
  -1  -2  -4  334.79   22.48
   1   2   5  460.60   14.94
  -1   2  -5  426.11   11.89
  -1  -2  -5  382.30   11.72
   1   2   6  784.06   13.62
  -1  -2  -6  817.47   14.73
   1  -2   7  636.30   24.89
   1   2   7  450.14   17.65
  -1  -2  -7  509.33   19.31
   1   2   8  314.24   13.31
  -1  -2  -8  343.62   14.22
   1   2   9  344.93   17.36
  -1  -2  -9  378.51   11.89
   1  -2  10  953.89   31.05
   1   2  10  802.83   23.57
  -1  -2 -10  741.59   24.09
   1  -2  11  222.25   14.88
   1   2  11  222.63   15.33
  -1  -2 -11  220.48   16.85
  -1   2 -11  208.12   15.70
   1  -2  12  132.31   13.33
   1   2  12  146.57   12.63
  -1  -2 -12  128.95   14.03
  -1   2 -12  140.09   12.00
   1  -2  13  244.71    7.83
   1   2  13  289.37   11.34
  -1  -2 -13  257.26   15.90
  -1   2 -13  266.23   11.02
   1  -2  14  256.70   20.89
  -1  -2 -14  275.69   10.73
  -1   2 -14  232.56   19.20
  -1  -2 -15   11.94    8.33
  -1   2 -15    2.98    2.54
  -1  -2 -16   16.42   11.93
   1  -3 -18   92.53    8.00
   1  -3 -17   28.89    4.65
   1  -3 -16  142.46   17.18
   1   3 -16  168.31   12.64
   1  -3 -15   39.16   12.52
   1   3 -15   42.79    9.31
   1  -3 -14   14.90    8.56
   1  -3 -13  286.12   14.29
  -1  -3  12  285.35   17.92
  -1   3  12  251.93   17.61
   1  -3 -12  308.94   22.02
  -1  -3  12  328.25   21.98
  -1  -3  11  780.12   28.08
  -1   3  11  780.09   28.59
   1  -3 -11  822.97   33.69
  -1  -3  11  783.11   30.97
  -1  -3  10  292.28   15.77
  -1   3  10  316.33   15.65
   1  -3 -10  316.27   17.56
  -1  -3  10  294.33   15.83
  -1  -3   9   19.22    5.09
  -1   3   9   27.92    5.17
   1  -3  -9   23.82   13.72
  -1  -3   9   20.27    4.02
  -1  -3   8  173.83    8.47
  -1   3   8  160.80    7.69
   1  -3  -8  178.45   11.59
  -1  -3   8  172.82    8.97
  -1  -3   7    1.71    1.06
  -1   3   7    4.72    2.85
  -1  -3   7    2.41    1.68
  -1  -3   6 1424.32   19.32
  -1   3   6 1360.01   17.26
   1  -3  -6 1389.94   20.92
  -1  -3   6 1346.04   18.85
  -1  -3   5   35.74    4.56
  -1   3   5   50.93    5.41
  -1  -3   5   38.63    4.29
   1  -3  -5   47.61    8.72
  -1  -3   5   35.52    4.14
  -1   3   4  808.75   12.71
  -1  -3   4  809.89   11.81
   1  -3  -4  845.25   14.44
  -1  -3   4  804.82   11.55
  -1   3   3  420.89   12.96
   1   3  -3  409.19   12.32
  -1  -3   3  464.09   13.71
  -1  -3   3  454.55   12.94
   1  -3  -2  417.76   12.73
   1   3  -2  490.41   14.57
   1  -3  -2  438.94   14.18
   1  -3  -2  407.02   11.61
  -1  -3   2  414.45   11.77
   1  -3  -1 4209.74  273.51
   1   3  -1 4023.63  261.33
  -1  -3   1 3951.11  256.58
   1  -3  -1 4367.59  283.74
   1  -3  -1 4213.62  273.22
  -1  -3   1 4234.85  274.72
   1  -3   0 2723.32   30.71
   1   3   0 2562.80   29.62
  -1  -3   0 2707.34   30.25
   1  -3   0 2531.63   29.57
   1  -3   0 2562.05   24.91
   1  -3   1 4194.70  272.58
   1   3   1 4211.20  273.55
  -1  -3  -1 4026.99  261.54
   1  -3   1 4251.98  276.10
   1  -3   2  530.66   16.87
   1   3   2  432.43   13.36
   1  -3   2  496.55   14.16
  -1  -3  -2  498.96   14.62
   1  -3   2  488.96   13.01
  -1   3  -2  420.15   11.30
   1  -3   3  433.57   13.67
   1   3   3  482.30   14.55
   1  -3   3  407.47   11.80
  -1  -3  -3  414.40   12.72
   1  -3   3  408.87   12.15
  -1   3  -3  449.74   12.39
   1  -3   4  834.85   14.68
   1   3   4  852.22   13.82
   1  -3   4  924.38   12.30
  -1  -3  -4  803.08   12.54
   1  -3   5   64.16    4.80
   1   3   5   51.66    7.48
   1  -3   5   49.46    5.06
  -1  -3  -5   55.51    6.47
   1  -3   6 1330.43   21.20
   1   3   6 1445.29   20.30
   1  -3   6 1324.52   16.18
  -1  -3  -6 1346.27   19.98
   1  -3   7    6.75    5.16
  -1  -3  -7    5.78    3.20
   1  -3   8  163.11    8.98
   1   3   8  190.54    9.92
  -1  -3  -8  170.55    9.72
   1  -3   9   29.29    6.59
   1   3   9   23.69   10.40
  -1  -3  -9   31.79    8.79
   1  -3  10  313.31   17.88
   1   3  10  318.66   17.32
  -1  -3 -10  322.81   18.86
   1  -3  11  798.46   29.73
   1   3  11  796.39   29.64
  -1  -3 -11  811.34   30.19
   1  -3  12  260.76   18.10
   1   3  12  296.21   19.09
  -1  -3 -12  263.62   18.41
   1  -3  13  275.83   15.35
   1   3  13  268.66   14.25
  -1  -3 -13  286.48   14.30
  -1   3 -13  273.65   11.25
  -1  -3 -14   10.50    7.98
  -1   3 -14   17.30    7.11
  -1  -3 -15   49.09    9.78
  -1  -3 -16  165.61   13.24
   1  -4 -18    9.85   13.76
   1  -4 -17   35.16   19.12
   1  -4 -16   54.34    8.94
   1   4 -16   50.30    5.79
   1  -4 -15  126.89   12.16
   1  -4 -14    6.70    4.12
  -1  -4  13  145.70   11.02
  -1   4  13  125.56   10.17
   1  -4 -13  146.07   12.56
  -1  -4  13  141.76   12.00
  -1  -4  12  275.88   13.11
  -1   4  12  300.95   11.23
   1  -4 -12  279.19   13.25
  -1  -4  12  266.41   17.37
  -1  -4  11   12.93    4.07
  -1   4  11   13.43    5.20
   1  -4 -11   21.59   11.60
  -1  -4  11   15.03   11.30
  -1  -4  10  109.10   11.22
  -1   4  10  104.67   11.04
   1  -4 -10  110.13    7.04
  -1  -4  10  111.69    6.50
  -1  -4   9  284.94   14.61
  -1   4   9  263.71   13.36
   1  -4  -9  297.15   16.81
  -1  -4   9  286.70   15.21
  -1  -4   8  490.77   18.54
  -1   4   8  477.43   18.22
   1  -4  -8  482.12   19.70
  -1  -4   8  502.75   19.56
  -1  -4   7 1286.87   27.56
  -1   4   7 1250.33   26.36
  -1  -4   7 1331.55   28.40
   1  -4  -7 1312.04   30.35
  -1  -4   7 1231.57   27.31
  -1  -4   6  634.46   23.72
  -1   4   6  675.79   24.47
  -1  -4   6  621.52   22.73
   1  -4  -6  653.53   25.24
  -1  -4   6  621.29   23.88
  -1  -4   5  425.41   14.14
  -1   4   5  476.22   15.12
  -1  -4   5  394.38   12.49
   1  -4  -5  419.88   14.54
  -1  -4   5  429.86   13.81
  -1   4   4  378.82   12.59
   1   4  -4  363.73   11.66
  -1  -4   4  285.36   12.69
   1  -4  -4  309.06   14.50
  -1  -4   4  306.65   13.30
  -1   4   3  394.27   12.89
   1   4  -3  379.64   13.33
   1  -4  -3  453.46   14.81
  -1  -4   3  442.09   12.90
   1   4  -2 1042.20   15.29
  -1   4   2 1019.90   15.24
  -1  -4   2  968.47   13.90
   1  -4  -2 1052.66   16.15
  -1  -4   2 1038.48   13.01
   1  -4  -1  188.31    9.18
   1   4  -1  161.26    8.09
  -1  -4   1  182.45    8.74
   1  -4  -1  187.67   11.67
   1  -4   0   24.40    3.49
   1   4   0   25.96    3.85
  -1  -4   0   33.24    4.35
   1  -4   0   27.45    7.02
   1  -4   1  170.61    9.23
   1   4   1  181.86    8.99
  -1  -4  -1  163.20    9.18
   1  -4   1  176.06    8.51
   1  -4   1  140.46    5.70
   1  -4   2 1050.40   16.13
   1   4   2 1016.85   15.79
   1  -4   2 1017.76   15.17
  -1  -4  -2 1007.53   14.75
   1  -4   2 1047.38   11.19
   1  -4   3  388.25   15.06
   1   4   3  429.02   13.72
   1  -4   3  394.71   12.34
  -1  -4  -3  380.18   12.37
   1  -4   3  386.05   10.92
  -1   4  -3  424.34   11.75
   1  -4   4  391.87   15.21
   1   4   4  299.11   14.45
   1  -4   4  356.34   11.04
  -1  -4  -4  363.67   13.66
   1  -4   4  362.19   10.85
   1  -4   5  495.93   16.49
  -1  -4  -5  474.16   15.24
   1  -4   5  485.10   14.08
   1  -4   6  677.65   25.52
   1   4   6  676.31   25.38
   1  -4   6  646.47   23.15
  -1  -4  -6  685.12   25.87
   1  -4   7 1222.02   27.65
   1   4   7 1327.14   31.54
   1  -4   7 1220.78   25.18
  -1  -4  -7 1278.31   31.35
   1  -4   8  477.24   19.43
   1   4   8  498.00   19.73
  -1  -4  -8  465.36   19.82
   1  -4   9  256.28   15.20
   1   4   9  333.51   18.10
  -1  -4  -9  258.99   14.40
   1  -4  10  106.35   14.50
   1   4  10  108.45   11.64
  -1  -4 -10  106.44   15.19
   1  -4  11   17.77    8.97
   1   4  11   17.56    2.93
  -1  -4 -11   20.60   11.66
   1  -4  12  288.10   14.32
   1   4  12  279.30   15.37
  -1  -4 -12  295.54   12.55
   1  -4  13  125.07   10.52
   1   4  13  157.82   15.45
  -1  -4 -13  132.31   11.45
   1  -4  14    6.62    3.97
   1   4  14    4.85    4.25
  -1  -4 -14    4.95    3.34
  -1  -4 -15  112.22   10.31
  -1  -4 -16   47.02    5.33
   1  -5 -18   38.91   11.73
   1  -5 -17   18.26    7.90
   1  -5 -16  231.33   21.55
   1  -5 -15   71.75   10.39
   1  -5 -14  110.48   17.09
  -1   5  13    5.12    3.78
   1   5 -13    4.92    3.81
   1  -5 -13    5.80    2.93
  -1  -5  13    2.34    2.17
  -1  -5  12  706.40   25.60
  -1   5  12  685.61   25.19
   1  -5 -12  711.63   33.02
  -1  -5  12  707.55   31.12
  -1  -5  11   18.83   10.05
  -1   5  11   20.55    9.34
   1  -5 -11   20.12   13.91
  -1  -5  11   18.32    4.09
  -1  -5  10  436.56    9.98
  -1   5  10  427.62   22.87
   1  -5 -10  435.61   12.47
  -1  -5  10  465.58   22.98
  -1  -5   9  149.41   12.73
  -1   5   9  133.98   11.36
   1  -5  -9  143.79   13.65
  -1  -5   9  139.84   11.82
  -1  -5   8  576.51   10.82
  -1   5   8  631.65   10.83
  -1  -5   8  597.82   13.80
   1  -5  -8  561.89   12.82
  -1  -5   8  563.86   11.66
  -1  -5   7  581.30   22.78
  -1   5   7  604.48   23.77
  -1  -5   7  571.95   22.85
   1  -5  -7  573.07   23.02
  -1  -5   7  552.57   21.86
  -1   5   6  483.90   18.95
  -1  -5   6  461.10   18.26
   1  -5  -6  490.40   19.94
  -1  -5   6  467.93   17.67
  -1   5   5  135.57   10.12
   1   5  -5  135.83    8.21
  -1  -5   5  141.25    7.34
   1  -5  -5  147.72   13.26
  -1  -5   5  148.35    7.48
  -1   5   4  658.94   21.95
   1   5  -4  642.21   19.53
   1  -5  -4  703.26   21.65
  -1  -5   4  697.88   19.94
  -1   5   3 1260.33   20.45
   1   5  -3 1250.74   18.51
  -1  -5   3 1239.00   17.99
   1  -5  -3 1296.99   20.38
  -1  -5   3 1265.07   16.18
   1   5  -2 1213.91   19.30
  -1   5   2 1229.34   18.30
  -1  -5   2 1164.54   16.82
   1  -5  -2 1090.06   18.16
  -1  -5   2 1245.06   15.53
   1  -5  -1   36.14    5.79
   1   5  -1   35.91    4.39
  -1  -5   1   34.75    5.05
   1  -5  -1   34.58    4.77
   1  -5   0  732.49   22.70
   1   5   0  746.76   22.14
  -1  -5   0  800.64   13.87
   1  -5   0  722.52   21.33
   1  -5   1   36.82    4.88
   1   5   1   36.97    4.88
  -1  -5  -1   34.74    4.65
   1  -5   1   35.99    4.40
   1  -5   1   35.73    3.43
   1  -5   2 1246.35   21.54
   1   5   2 1223.43   19.00
   1  -5   2 1220.17   19.04
  -1  -5  -2 1257.77   18.58
   1  -5   2 1217.33   12.96
   1  -5   3 1233.40   20.17
   1   5   3 1243.75   19.33
  -1  -5  -3 1288.05   19.58
   1  -5   3 1232.77   14.14
   1  -5   4  652.43   20.77
   1   5   4  666.36   24.16
   1  -5   4  634.94   19.54
  -1  -5  -4  635.40   20.68
   1  -5   4  664.19   18.49
   1  -5   5  140.69    8.21
   1   5   5  142.43    7.96
   1  -5   5  134.02    7.20
  -1  -5  -5  140.70    8.24
   1  -5   5  126.84    6.20
   1  -5   6  481.43   19.55
   1   5   6  484.32   19.16
   1  -5   6  512.67   19.54
  -1  -5  -6  465.83   18.40
   1  -5   6  455.45   17.38
   1  -5   7  607.17   24.85
   1   5   7  580.46   24.02
   1  -5   7  576.74   21.05
  -1  -5  -7  604.83   23.97
   1  -5   8  653.17   12.98
   1   5   8  553.48   16.46
   1  -5   8  638.52    9.91
  -1  -5  -8  661.14   12.93
   1  -5   9  126.81   12.48
   1   5   9  143.45   12.86
  -1  -5  -9  134.99   11.84
   1  -5  10  427.70   25.17
   1   5  10  434.09   27.48
  -1  -5 -10  444.57   15.49
   1  -5  11   19.39   10.42
   1   5  11   19.29   11.18
  -1  -5 -11   21.70    5.62
   1  -5  12  689.68   25.21
   1   5  12  726.44   27.43
  -1  -5 -12  703.57   26.92
   1  -5  13    5.43    3.56
   1   5  13    4.57    3.21
  -1  -5 -13    4.37    3.72
   1  -5  14  125.80    8.87
   1   5  14  124.80    9.15
  -1  -5 -14  140.27    9.56
  -1  -5 -16  205.38   17.00
   1  -6 -18   95.19   17.35
   1  -6 -17   25.61   14.26
   1  -6 -16   59.93   24.81
   1  -6 -15  104.88   13.02
   1  -6 -14   78.95   10.40
  -1   6  13   38.01    4.61
   1   6 -13   41.01    3.65
   1  -6 -13   35.95    9.58
  -1  -6  13   32.07    7.40
  -1   6  12   70.82    5.16
   1   6 -12   70.27    5.63
   1  -6 -12   64.47   14.01
  -1  -6  12   63.34    5.39
  -1   6  11  203.35    8.59
   1   6 -11  206.83    7.20
   1  -6 -11  216.09   10.90
  -1  -6  11  214.88   10.33
  -1   6  10  216.13   19.39
   1  -6 -10  193.65   19.80
  -1  -6  10  200.65   17.18
  -1   6   9  759.71   28.61
  -1  -6   9  722.76   30.07
   1  -6  -9  717.25   30.94
  -1  -6   9  690.19   26.30
  -1   6   8   51.12    7.61
  -1  -6   8   65.93    6.38
   1  -6  -8   70.52   17.83
  -1  -6   8   63.26    9.26
  -1   6   7  203.98   11.46
   1   6  -7  205.90   11.55
  -1  -6   7  197.21   10.88
   1  -6  -7  218.03   13.01
  -1  -6   7  201.02   11.34
  -1   6   6 2117.47   46.18
   1   6  -6 2040.25   46.22
  -1  -6   6 1957.08   42.64
   1  -6  -6 2048.85   45.53
  -1  -6   6 2052.22   41.61
  -1   6   5   39.92    5.50
   1   6  -5   36.00    4.36
  -1  -6   5   46.78    5.13
   1  -6  -5   41.28   10.11
  -1  -6   5   40.92    4.34
  -1   6   4  531.64   22.58
   1   6  -4  547.74   21.35
  -1  -6   4  604.10   23.65
   1  -6  -4  494.19   20.06
  -1  -6   4  485.28   18.59
  -1   6   3  697.46   26.29
   1   6  -3  686.62   25.83
  -1  -6   3  683.60   25.36
   1  -6  -3  735.41   81.40
  -1  -6   3  736.50   80.94
   1   6  -2  158.91    8.77
  -1   6   2  155.22    8.44
  -1  -6   2  130.19    7.21
   1  -6  -2  132.55    8.04
  -1  -6   2  144.05    6.72
   1   6  -1  101.23    7.04
  -1   6   1   87.83    5.86
  -1  -6   1  112.90    6.68
   1  -6  -1  103.81    6.36
   1  -6   0   -0.03    2.87
   1   6   0    2.23    2.04
  -1  -6   0    1.93    4.19
   1  -6   0    2.58    2.50
   1  -6   1   92.83    8.08
   1   6   1  110.59    7.93
  -1  -6  -1   94.76    6.14
   1  -6   1   92.39    6.01
   1  -6   1   93.97    4.25
   1  -6   2  156.29    8.95
   1   6   2  140.06    8.12
   1  -6   2  156.73    8.35
  -1  -6  -2  164.56    8.84
   1  -6   2  156.62    6.70
   1  -6   3  689.81   27.59
   1   6   3  725.25   80.23
  -1  -6  -3  693.08   26.08
   1  -6   3  665.68   22.96
   1  -6   4  503.63   22.42
   1   6   4  485.00   19.27
   1  -6   4  516.27   19.46
  -1  -6  -4  539.34   21.15
   1  -6   4  540.71   19.52
   1  -6   5   37.73    4.60
   1   6   5   42.73    5.82
   1  -6   5   37.77    6.24
  -1  -6  -5   43.51   14.13
   1  -6   5   38.56    3.37
   1  -6   6 2083.04   45.46
   1   6   6 1994.96   42.66
   1  -6   6 3590.89  394.89
  -1  -6  -6 2067.88   43.83
   1  -6   6 1992.40   40.55
   1  -6   7  199.65   13.02
   1   6   7  208.04   12.15
   1  -6   7  196.82   11.81
  -1  -6  -7  200.13   11.80
   1  -6   7  196.40   11.15
   1  -6   8   50.42    8.81
   1   6   8   60.84    6.51
   1  -6   8   50.07    6.58
  -1  -6  -8   52.79    7.47
   1  -6   9  774.00   29.40
   1   6   9  695.29   26.63
   1  -6   9  761.49   30.37
  -1  -6  -9  771.25   29.51
   1  -6  10  210.26   17.91
   1   6  10  184.31   15.74
  -1  -6 -10  212.33   18.28
   1  -6  11  199.19    9.01
   1   6  11  198.94   10.99
  -1  -6 -11  207.14    9.02
   1  -6  12   68.31    5.70
   1   6  12   65.26    5.71
  -1  -6 -12   72.03   10.12
   1  -6  13   42.65    4.52
   1   6  13   42.47    5.42
  -1  -6 -13   41.97    6.96
   1  -6  14   74.08    9.10
   1   6  14   77.44   10.22
  -1  -6 -15  125.80   14.99
  -1  -6 -16   62.66    8.42
   1  -7 -18   19.88   13.56
   1  -7 -17   45.94    7.46
   1  -7 -16   96.38    8.94
   1  -7 -15   61.17   11.29
   1  -7 -14  193.65   21.38
  -1   7  13    9.85    8.14
   1   7 -13   10.52    5.07
   1  -7 -13   15.12   13.83
  -1  -7  13   13.09    6.12
  -1   7  12  257.45   13.49
   1   7 -12  257.46   13.32
   1  -7 -12  270.43   17.80
  -1  -7  12  278.26   16.33
  -1   7  11   39.96    4.56
   1   7 -11   33.86    3.60
   1  -7 -11   33.82    6.52
  -1  -7  11   27.23    6.82
   1   7 -10  233.95    9.54
  -1  -7  10  225.21    8.22
   1  -7 -10  207.78   10.27
  -1  -7  10  206.42   12.87
  -1   7   9  111.94   11.61
   1   7  -9  107.32   11.40
  -1  -7   9  107.53   11.15
   1  -7  -9  104.95   12.16
  -1  -7   9   97.43   11.65
  -1   7   8  311.26   18.97
   1   7  -8  300.23   17.15
  -1  -7   8  338.07   21.13
   1  -7  -8  331.67   19.90
  -1  -7   8  316.11   19.77
  -1   7   7  344.50   20.19
   1   7  -7  331.00   17.58
  -1  -7   7  327.05   17.30
   1  -7  -7  329.21   18.18
  -1  -7   7  328.73   16.99
  -1   7   6  323.78   17.33
   1   7  -6  330.87   17.85
  -1  -7   6  304.65   15.88
   1  -7  -6  318.23   17.40
  -1  -7   6  321.25   16.47
  -1   7   5  454.26   11.40
   1   7  -5  440.72   11.71
   1  -7  -5  444.95   11.72
  -1  -7   5  455.93    8.04
  -1   7   4  689.97   26.64
   1   7  -4  684.80   26.69
  -1  -7   4  668.10   25.29
   1  -7  -4  659.21   26.30
  -1  -7   4  646.81   23.46
  -1   7   3   97.61    6.61
   1   7  -3   95.40    6.45
  -1  -7   3   85.91    9.59
   1  -7  -3   96.36    7.07
  -1  -7   3   90.54   10.44
   1   7  -2  836.01   21.14
  -1   7   2  827.07   27.02
  -1  -7   2  883.62   21.34
   1  -7  -2  888.17   25.32
  -1  -7   2  916.12   19.85
   1   7  -1  302.35   14.63
  -1   7   1  295.45   16.67
  -1  -7   1  319.60   13.62
   1  -7  -1  337.83   14.72
   1   7   0  959.58   23.26
  -1  -7   0 1017.64   24.16
   1  -7   0  913.36   23.02
   1  -7   1  290.11   14.60
   1   7   1  350.30   15.15
  -1  -7  -1  297.55   14.32
   1  -7   1  297.65   14.15
   1  -7   1  303.08   12.32
   1  -7   2  810.66   20.97
   1   7   2  895.24   22.85
   1  -7   2  836.93   20.57
  -1  -7  -2  799.41   20.01
   1  -7   2  818.17   15.95
   1  -7   3  100.99    7.17
   1   7   3   89.50   11.21
   1  -7   3  139.14    8.90
  -1  -7  -3   97.63    9.71
   1  -7   3   92.49    4.27
   1  -7   4  675.41   31.00
   1   7   4  673.21   26.19
   1  -7   4  665.78   25.24
  -1  -7  -4  662.82   25.45
   1  -7   4  668.80   23.31
   1  -7   5  447.35   12.80
   1   7   5  448.40   11.48
   1  -7   5  403.31   11.65
  -1  -7  -5  462.68   12.56
   1  -7   5  460.45    6.80
   1  -7   6  322.07   18.41
   1   7   6  306.17   16.90
   1  -7   6  356.69    9.77
  -1  -7  -6  331.83   18.18
   1  -7   6  328.89   16.07
   1  -7   7  348.78   10.92
   1   7   7  318.04   17.43
   1  -7   7  400.66   11.13
  -1  -7  -7  348.77   11.12
   1  -7   7  333.91   17.53
   1  -7   8  306.37   18.53
   1   7   8  343.82   20.02
   1  -7   8  288.03   16.82
  -1  -7  -8  309.58   18.91
   1  -7   9  115.43   12.40
   1   7   9  118.85   13.00
   1  -7   9  112.43   11.71
  -1  -7  -9  113.78   12.90
   1  -7  10  234.02   11.59
   1   7  10  209.99   10.22
   1  -7  10  229.24   10.02
  -1  -7 -10  228.90    9.57
   1  -7  11   34.59    4.86
   1   7  11   30.53    5.74
  -1  -7 -11   37.13    7.52
   1  -7  12  254.98   18.18
   1   7  12  285.86   16.61
  -1  -7 -12  252.05   14.46
   1  -7  13   11.02    6.34
   1   7  13   11.66   10.46
  -1  -7 -13   12.03   10.78
   1  -7  14  193.08   16.29
   1   7  14  203.36   18.42
  -1  -7 -14  200.11   17.60
  -1  -7 -15   61.64    7.85
  -1  -7 -16   99.17    8.67
  -1  -7 -17   43.06    6.09
   1  -8 -18   30.12   19.55
   1  -8 -17   17.39   12.43
   1  -8 -16   91.25   10.00
   1  -8 -15  176.25   12.76
   1   8 -14    6.14    6.59
   1  -8 -14   14.42    9.11
  -1   8  13   72.94    7.33
   1   8 -13   79.58    7.04
   1  -8 -13   86.63    9.57
  -1  -8  13   86.45   10.11
  -1   8  12   33.13    4.20
   1   8 -12   31.01    5.48
   1  -8 -12   40.26   12.95
  -1  -8  12   41.22    4.44
  -1   8  11   59.14    5.83
   1   8 -11   60.97    4.96
   1  -8 -11   67.64   19.98
  -1  -8  11   66.40    5.70
  -1   8  10   24.71   12.67
   1   8 -10   24.32    8.63
  -1  -8  10   18.27    4.05
   1  -8 -10   20.48   18.30
  -1  -8  10   22.82    9.92
  -1   8   9  523.19   21.12
   1   8  -9  500.47   19.13
  -1  -8   9  488.87   19.90
   1  -8  -9  501.06   21.50
  -1  -8   9  488.27   21.62
  -1   8   8  280.28   18.82
   1   8  -8  277.07   18.40
  -1  -8   8  255.57   16.74
   1  -8  -8  249.33   17.87
  -1  -8   8  255.57   16.82
  -1   8   7  224.79   15.44
   1   8  -7  214.14   14.72
  -1  -8   7  212.94   16.96
   1  -8  -7  216.10   15.55
  -1  -8   7  223.14   14.90
  -1   8   6   40.84    4.41
   1   8  -6   44.00    5.24
  -1  -8   6   62.61    7.67
   1  -8  -6   55.64    7.86
  -1  -8   6   56.64    6.43
  -1   8   5  401.07   11.08
   1   8  -5  400.82   11.39
   1  -8  -5  397.72   11.53
  -1  -8   5  416.08    7.61
  -1   8   4  684.85   17.82
   1   8  -4  663.26   15.07
  -1  -8   4  658.73   13.07
   1  -8  -4  671.55   14.52
  -1  -8   4  670.62    8.87
  -1   8   3 1007.49   31.74
   1   8  -3 1001.60   31.90
  -1  -8   3  970.18   30.07
   1  -8  -3 1032.94   31.36
  -1  -8   3 1027.15   28.10
   1   8  -2  182.42   11.23
  -1   8   2  186.76   15.39
  -1  -8   2  186.32   10.80
   1  -8  -2  198.13   12.43
  -1  -8   2  196.70    9.93
   1   8  -1  706.34   27.62
  -1   8   1  709.37   27.91
  -1  -8   1  690.55   27.14
   1  -8  -1  712.34   31.26
  -1  -8   1  694.32   24.87
   1   8   0  168.85   10.00
  -1   8   0  157.35    9.34
  -1  -8   0  188.53   11.66
   1  -8   0  158.28    9.15
   1   8   1  707.75   27.79
  -1  -8  -1  653.71   25.73
   1  -8   1  671.59   26.24
   1  -8   1  709.44   24.23
   1  -8   2  191.44   11.86
   1   8   2  200.03   12.14
   1  -8   2  188.33   13.47
  -1  -8  -2  182.23   10.86
   1  -8   2  192.67    9.19
   1  -8   3 1005.07   33.71
   1   8   3 1060.43   32.39
   1  -8   3 1227.77   36.39
  -1  -8  -3 1015.21   30.37
   1  -8   3  997.72   25.82
   1  -8   4  672.15   15.33
   1   8   4  678.69   14.93
   1  -8   4  667.83   15.92
  -1  -8  -4  673.41   14.11
   1  -8   4  669.96    7.65
   1  -8   5  404.28   12.15
   1   8   5  415.39   11.77
   1  -8   5  366.60    9.78
  -1  -8  -5  399.36   11.33
   1  -8   5  402.64    7.13
   1  -8   6   39.61    4.90
   1   8   6   51.78    6.97
   1  -8   6   35.81    5.93
  -1  -8  -6   41.72    4.80
   1  -8   6   40.55    2.93
   1  -8   7  220.31   17.55
   1   8   7  225.86   19.47
  -1  -8  -7  222.63   15.71
   1  -8   7  201.38   13.63
   1  -8   8  270.60   19.28
   1   8   8  262.11   18.24
   1  -8   8  269.69   17.20
  -1  -8  -8  273.29   20.10
   1  -8   9  498.85   22.79
   1   8   9  490.84   19.72
   1  -8   9  491.98   19.84
  -1  -8  -9  518.33   21.53
   1  -8  10   27.68   12.13
   1   8  10   21.66   13.03
   1  -8  10   28.96   10.76
  -1  -8 -10   26.95   10.45
   1  -8  11   57.79    6.81
   1   8  11   63.07    5.99
   1  -8  11   58.96    6.15
  -1  -8 -11   63.73    6.78
   1  -8  12   33.05   15.96
   1   8  12   48.35    7.02
  -1  -8 -12   35.24   12.47
   1  -8  13   76.80    8.59
   1   8  13   85.19    8.62
  -1  -8 -13   74.57    8.28
   1  -8  14   11.62    5.97
   1   8  14   14.06   11.61
  -1  -8 -14   11.48   10.26
  -1  -8 -15  174.46   10.35
  -1  -8 -16   89.85    7.79
  -1  -8 -17   19.83   19.45
   1  -9 -18   21.96   12.31
   1  -9 -17   57.50    7.91
   1  -9 -16   22.48   10.94
   1  -9 -15   51.89   14.03
   1   9 -14   16.26    3.80
   1  -9 -14   16.00   15.44
  -1   9  13  142.07   17.43
   1   9 -13  124.54   13.68
   1  -9 -13  164.01   23.56
  -1  -9  13  155.86   11.81
  -1   9  12   22.62   15.26
   1   9 -12   25.09   11.44
   1  -9 -12   24.06   16.18
  -1  -9  12   22.45    5.16
  -1   9  11  196.88   17.88
   1   9 -11  204.23   17.78
  -1  -9  11  178.93   15.63
   1  -9 -11  186.24   17.83
  -1  -9  11  173.37   17.19
  -1   9  10  203.83   14.42
   1   9 -10  207.16   12.05
  -1  -9  10  211.33   13.14
   1  -9 -10  227.80   15.03
  -1  -9  10  224.97   12.44
  -1   9   9   52.15    5.24
   1   9  -9   59.14    6.10
  -1  -9   9   53.07    5.96
   1  -9  -9   61.08   27.43
  -1  -9   9   56.51    4.67
  -1   9   8   18.19   10.38
   1   9  -8   17.36    8.74
  -1  -9   8   21.55   12.54
   1  -9  -8   22.92   12.10
  -1  -9   8   17.43    5.34
  -1   9   7  102.27   12.15
   1   9  -7  100.42   11.21
  -1  -9   7  109.94   11.73
   1  -9  -7   99.12   11.84
  -1  -9   7  109.38   11.13
  -1   9   6  196.58   17.09
   1   9  -6  179.53   15.76
  -1  -9   6  226.41   16.39
   1  -9  -6  182.53   16.25
  -1  -9   6  177.62   15.20
  -1   9   5  326.55   19.31
   1   9  -5  284.45   17.20
  -1  -9   5  325.57   22.31
   1  -9  -5  278.83   19.51
  -1  -9   5  295.41   16.03
  -1   9   4  450.39   19.55
   1   9  -4  466.48   22.65
  -1  -9   4  445.82   18.35
   1  -9  -4  451.67   22.52
  -1  -9   4  465.71   17.08
  -1   9   3   36.73   16.31
   1   9  -3   30.82   12.05
  -1  -9   3   19.56   12.06
   1  -9  -3   23.14    6.56
  -1  -9   3   18.91    2.94
   1   9  -2   37.44    6.74
  -1   9   2   27.44    8.70
  -1  -9   2   33.56    5.53
   1  -9  -2   32.93    6.36
  -1  -9   2   33.12    4.49
   1   9  -1  990.90   31.42
  -1   9   1 1025.08   36.55
  -1  -9   1 1010.04   31.59
   1  -9  -1  994.10   33.38
  -1  -9   1 1020.62   27.96
   1   9   0    4.13    2.95
  -1   9   0    5.06    3.03
  -1  -9   0    2.81    3.58
   1  -9   0    3.55    3.18
   1   9   1 1047.74   32.56
  -1   9  -1 1021.47   32.65
  -1  -9  -1 1016.76   32.84
   1  -9   1  979.79   30.19
   1  -9   1  992.93   25.68
   1   9   2   31.95   12.04
   1  -9   2   31.95    9.69
  -1  -9  -2   39.50    6.57
   1  -9   2   34.20    4.08
   1  -9   3   30.67   16.12
   1   9   3   21.92   10.50
   1  -9   3   32.07    5.55
  -1  -9  -3   27.79   12.38
   1  -9   3   26.72    3.43
   1  -9   4  443.91   21.22
   1   9   4  462.48   19.98
   1  -9   4  448.37   20.12
  -1  -9  -4  457.12   19.50
   1  -9   4  429.93   21.61
   1  -9   5  305.24   18.77
   1   9   5  290.12   23.32
   1  -9   5  296.64   18.52
  -1  -9  -5  299.74   18.30
   1  -9   5  311.75   16.11
   1  -9   6  178.68   19.76
   1   9   6  183.15   16.15
   1  -9   6  180.97   18.66
  -1  -9  -6  177.52   17.27
   1  -9   7  101.09   12.19
   1   9   7  105.66   13.26
   1  -9   7  138.54    8.29
  -1  -9  -7   94.31   12.66
   1  -9   7   94.40    9.81
   1  -9   8   15.48    9.51
   1   9   8   21.14   11.80
   1  -9   8   11.23    8.53
  -1  -9  -8   16.64    9.75
   1  -9   9   52.99    5.95
   1   9   9   54.98    6.13
   1  -9   9   52.43    8.69
  -1  -9  -9   60.73    7.54
   1  -9  10  205.73   12.59
   1   9  10  229.99   13.79
   1  -9  10  203.06   17.44
  -1  -9 -10  194.97   15.00
   1  -9  11  206.68   11.19
   1   9  11  179.96   21.33
   1  -9  11  201.40   16.64
  -1  -9 -11  205.74   26.10
   1  -9  12   25.15   11.14
   1   9  12   25.56   11.90
   1  -9  12   25.47    3.51
  -1  -9 -12   20.71    8.39
   1  -9  13  142.83   17.26
   1   9  13  155.57   11.82
  -1  -9 -13  141.08   20.82
   1   9  14   19.38   12.19
  -1  -9 -14   17.12   13.11
  -1  -9 -15   43.72   19.07
  -1  -9 -16   22.41   11.85
  -1  -9 -17   48.63    6.11
   1 -10 -17   20.77   14.18
   1 -10 -16   19.07    7.36
   1 -10 -15   53.99   17.11
   1 -10 -14  195.38   17.65
  -1  10  13   61.54    6.14
   1  10 -13   50.13    9.14
   1 -10 -13   50.00    6.96
  -1 -10  13   51.12    4.93
  -1  10  12   21.53   13.54
   1  10 -12   20.99    8.06
  -1 -10  12   19.76   12.70
   1 -10 -12   19.17   14.18
  -1 -10  12   15.44    8.24
   1  10 -11    3.98    2.65
  -1 -10  11    5.57    4.08
   1 -10 -11    7.46    6.49
  -1 -10  11    5.64    3.66
  -1  10  10  195.81   19.13
  -1 -10  10  182.77   16.06
   1 -10 -10  173.52   20.39
  -1 -10  10  182.15   15.77
  -1  10   9  199.30   17.80
   1  10  -9  203.50   15.38
  -1 -10   9  211.18   13.02
   1 -10  -9  199.49   15.62
  -1 -10   9  199.11   14.16
  -1  10   8   53.36    5.88
   1  10  -8   55.11    5.74
  -1 -10   8   69.26    6.30
   1 -10  -8   66.55    8.42
  -1 -10   8   62.14    6.91
  -1  10   7   77.36   12.76
   1  10  -7   65.44   10.39
  -1 -10   7   65.93    9.64
   1 -10  -7   64.31   11.15
  -1 -10   7   60.52    8.39
  -1  10   6   18.71   10.52
   1  10  -6   19.63   10.63
  -1 -10   6   43.39   20.92
   1 -10  -6   21.71   11.51
  -1 -10   6   20.69    6.86
  -1  10   5  175.95   15.97
   1  10  -5  174.77   17.63
  -1 -10   5  167.20   14.82
   1 -10  -5  147.43   18.18
  -1 -10   5  149.70   12.08
  -1  10   4  231.08   16.86
   1  10  -4  265.92   20.32
  -1 -10   4  221.72   18.59
   1 -10  -4  245.57   20.16
  -1 -10   4  238.19   14.78
  -1  10   3  413.67   24.56
   1  10  -3  387.11   23.10
  -1 -10   3  369.29   22.55
   1 -10  -3  396.83   23.57
  -1 -10   3  431.38   22.46
   1  10  -2  432.77   25.50
  -1  10   2  432.59   25.78
  -1 -10   2  452.53   20.24
   1 -10  -2  483.97   21.06
  -1 -10   2  506.70   18.68
   1  10  -1   28.86   14.16
  -1  10   1   28.54   14.31
  -1 -10   1   24.56   12.94
   1 -10  -1   27.28    5.60
  -1 -10   1   23.23    2.07
   1  10   0   20.13    7.46
  -1  10   0   20.65   13.21
  -1 -10   0   18.10    7.33
   1 -10   0   20.10   11.78
   1  10   1   29.58   13.73
  -1  10  -1   24.61    5.17
  -1 -10  -1   22.54    7.74
   1 -10   1   22.45   10.65
   1 -10   1   22.93    1.94
   1  10   2  509.86   22.52
  -1  10  -2  481.08   26.83
   1 -10   2  508.21   23.33
  -1 -10  -2  493.67   21.77
   1  10   3  424.41   31.11
  -1  10  -3  421.97   24.82
   1 -10   3  458.87   19.98
  -1 -10  -3  421.95   24.31
   1  10   4  260.60   18.64
   1 -10   4  260.03   20.92
  -1 -10  -4  271.31   18.75
   1 -10   4  251.81   14.89
   1 -10   5  185.67   17.73
   1  10   5  155.60   16.22
   1 -10   5  165.15   14.40
  -1 -10  -5  182.81   16.26
   1 -10   5  176.84   13.42
   1 -10   6   18.80    9.67
   1  10   6   20.77   12.31
   1 -10   6   16.82   10.48
  -1 -10  -6   17.84   12.15
   1 -10   6   13.84    2.34
   1 -10   7   75.28   10.57
   1  10   7   66.12   11.59
   1 -10   7   81.45   10.64
  -1 -10  -7   70.40   10.98
   1 -10   8   62.65    6.80
   1  10   8   68.14    6.93
   1 -10   8   69.32    6.99
  -1 -10  -8   49.69    7.85
   1 -10   9  222.21   14.13
   1  10   9  223.90   13.90
   1 -10   9  202.60   14.53
  -1 -10  -9  200.92   26.07
   1 -10  10  184.80   17.46
   1  10  10  195.08   17.83
   1 -10  10  165.08   14.15
  -1 -10 -10  184.58   16.98
   1 -10  11    3.67    3.72
   1  10  11    7.11    6.63
   1 -10  11    5.17    3.14
  -1 -10 -11    5.71    4.11
   1 -10  12   24.73   12.36
   1  10  12   19.72    9.24
   1 -10  12   24.92    3.62
  -1 -10 -12   25.91    9.42
   1 -10  13   59.89    6.36
   1  10  13   56.12    6.45
  -1 -10 -13   54.78   12.07
   1  10  14  193.57   18.11
  -1 -10 -14  202.18   17.87
  -1 -10 -15   51.06    6.78
  -1 -10 -16   21.53   13.44
  -1 -10 -17   13.01   16.60
   1 -11 -16    5.11    8.37
   1 -11 -15    4.37    7.49
   1  11 -14    2.60    4.83
   1 -11 -14    5.97    5.13
  -1  11  13   88.74   13.77
   1  11 -13   89.12    6.94
   1 -11 -13   98.32    9.17
  -1 -11  13   81.51    6.37
  -1  11  12   92.84    9.09
   1  11 -12   82.31   10.98
  -1 -11  12   95.83    9.73
   1 -11 -12   86.42    9.95
  -1 -11  12   83.00    5.70
  -1  11  11  198.48   13.87
   1  11 -11  198.59   14.98
  -1 -11  11  204.66   15.07
   1 -11 -11  191.98   19.68
  -1 -11  11  191.24   12.18
  -1  11  10    5.93    4.22
   1  11 -10    6.96    7.16
  -1 -11  10    3.81    7.81
   1 -11 -10    7.25    4.67
  -1 -11  10    2.86    3.07
  -1  11   9   97.09    9.29
   1  11  -9   86.98   13.68
  -1 -11   9   98.54    8.47
   1 -11  -9   96.39    9.94
  -1 -11   9  105.63    7.35
  -1  11   8   34.66   17.74
   1  11  -8   39.84   14.66
  -1 -11   8   41.56   14.69
   1 -11  -8   51.82   23.30
  -1 -11   8   41.78    4.18
  -1  11   7   23.23   11.04
   1  11  -7   26.59   12.54
  -1 -11   7   35.26   17.44
   1 -11  -7   36.72   21.43
  -1 -11   7   28.62    3.46
  -1  11   6   17.11   11.06
   1  11  -6   15.18    7.30
  -1 -11   6   93.95   57.12
   1 -11  -6   16.99   10.62
  -1 -11   6   18.94    6.49
  -1  11   5  261.42   14.66
   1  11  -5  243.28   19.73
  -1 -11   5  270.85   12.59
   1 -11  -5  262.68   14.67
  -1 -11   5  251.58    9.52
  -1  11   4   10.41    6.48
   1  11  -4   17.66   12.20
  -1 -11   4   13.78    9.47
   1 -11  -4   15.04    8.56
  -1 -11   4   10.97    4.86
  -1  11   3   95.44   12.34
   1  11  -3   95.77   12.52
  -1 -11   3   89.11   11.85
   1 -11  -3  102.66   13.84
  -1 -11   3   87.76   10.00
   1  11  -2   38.68   15.12
  -1  11   2   35.42   15.89
  -1 -11   2   28.16   11.07
   1 -11  -2   37.65   19.18
  -1 -11   2   29.30    4.44
   1  11  -1  365.31   16.90
  -1  11   1  361.91   30.36
  -1 -11   1  370.40   19.71
   1 -11  -1  354.69   24.69
  -1 -11   1  380.42   17.42
   1  11   0  352.25   24.66
  -1  11   0  336.97   23.58
  -1 -11   0  368.65   20.33
   1 -11   0  332.72   27.96
   1 -11   0  325.51   19.00
   1  11   1  392.82   21.40
  -1  11  -1  381.95   21.35
  -1 -11  -1  406.64   26.56
   1 -11   1  366.71   23.45
   1 -11   1  340.31   19.80
   1  11   2   28.78   10.76
  -1  11  -2   27.53   11.67
   1 -11   2   41.30    6.68
  -1 -11  -2   34.56    6.15
   1 -11   2   30.84    1.28
   1  11   3   89.88   12.51
  -1  11  -3   92.54   12.09
   1 -11   3   96.87   12.48
  -1 -11  -3   88.44   18.31
   1 -11   3   84.13    9.12
   1  11   4   14.55    9.05
  -1  11  -4   16.06    5.07
   1 -11   4   12.69   10.03
  -1 -11  -4   15.80    9.19
   1 -11   4   12.74    2.24
   1  11   5  240.19   15.17
  -1  11  -5  258.26   13.24
   1 -11   5  244.50   10.62
  -1 -11  -5  240.45   11.47
   1  11   6   18.84   11.90
  -1  11  -6   16.85   14.01
   1 -11   6   19.30   10.35
  -1 -11  -6   21.58   10.42
   1  11   7   30.07   17.36
   1 -11   7   37.59   15.27
  -1 -11  -7   29.90   13.27
   1  11   8   53.57   23.64
   1 -11   8   44.11   13.30
  -1 -11  -8   34.15   19.49
   1  11   9  109.75   10.21
   1 -11   9   99.70    8.39
  -1 -11  -9   99.31   11.88
   1  11  10    7.64    5.68
   1 -11  10    6.98    3.86
  -1 -11 -10    3.42    4.14
   1  11  11  205.12   15.75
   1 -11  11  197.21   13.25
  -1 -11 -11  208.69   15.27
   1  11  12   97.57   10.95
  -1  11 -12   89.45    9.04
   1 -11  12   95.95    8.64
  -1 -11 -12   97.53   10.29
   1  11  13   96.76   10.11
  -1  11 -13   79.48    9.63
   1 -11  13   96.74    6.81
  -1 -11 -13   93.08    8.10
   1  11  14    5.05    6.25
  -1  11 -14    3.55    4.35
  -1 -11 -14    6.33    4.79
  -1  11 -15    4.10    5.55
  -1 -11 -15    1.88    3.22
  -1 -11 -16    7.97   10.66
   1 -12 -16   60.28    8.81
   1 -12 -15   33.67   20.09
   1 -12 -14   16.41   15.75
  -1  12  13   21.27   13.89
   1  12 -13   18.30    5.02
  -1 -12  13   19.21   16.32
   1 -12 -13   17.87   16.15
  -1  12  12   38.04    5.54
   1  12 -12   37.62    5.49
  -1 -12  12   41.78    5.19
   1 -12 -12   41.25    7.77
  -1  12  11   99.21    9.42
   1  12 -11  109.21    8.16
  -1 -12  11  115.88    9.02
   1 -12 -11  112.58   10.92
  -1  12  10    6.73    3.95
   1  12 -10    7.77    4.22
  -1 -12  10    5.04    3.53
   1 -12 -10    4.25    4.09
  -1  12   9  120.79   18.89
   1  12  -9  124.56   15.04
  -1 -12   9  132.64   15.09
   1 -12  -9  127.00   17.57
  -1  12   8  242.49   21.03
   1  12  -8  214.86   18.65
  -1 -12   8  201.09   23.51
   1 -12  -8  187.73   18.21
  -1  12   7  152.29   14.80
   1  12  -7  151.73   15.17
  -1 -12   7  173.14   16.24
   1 -12  -7  156.49   22.54
  -1  12   6   29.51   13.90
   1  12  -6   34.85   19.26
  -1 -12   6   74.72   19.58
   1 -12  -6   37.60   20.33
  -1 -12   6   33.08    3.16
  -1  12   5   58.72    7.35
   1  12  -5   55.85    6.56
  -1 -12   5   68.10    9.83
   1 -12  -5   57.87   10.49
  -1 -12   5   57.37    4.14
  -1  12   4  370.46   28.85
   1  12  -4  348.55   29.97
  -1 -12   4  379.48   26.76
   1 -12  -4  407.82   31.03
  -1 -12   4  388.27   24.95
  -1  12   3  137.33   13.93
   1  12  -3  140.77   15.92
  -1 -12   3  127.84   14.60
   1 -12  -3  134.35   12.67
  -1 -12   3  131.24    9.59
   1  12  -2  114.95   21.79
  -1  12   2  101.47   10.43
  -1 -12   2   83.03    9.61
   1 -12  -2   89.77    8.45
  -1 -12   2   90.48    4.36
   1  12  -1  265.59   23.46
  -1  12   1  257.12   22.61
  -1 -12   1  224.50   23.10
   1 -12  -1  230.79   20.41
  -1 -12   1  239.82   19.16
   1  12   0  100.05   13.99
  -1  12   0  100.19   16.21
  -1 -12   0   94.88   12.50
   1 -12   0   93.98   12.73
  -1 -12   0   94.26   10.73
   1  12   1  241.55   24.63
  -1  12  -1  242.32   21.90
  -1 -12  -1  299.99   23.10
   1 -12   1  258.75   22.49
   1  12   2   98.98   11.45
  -1  12  -2   99.89   10.55
   1 -12   2  129.09   12.39
  -1 -12  -2  107.59   11.71
   1  12   3  127.16   13.45
  -1  12  -3  136.10   23.18
   1 -12   3  150.14   13.00
  -1 -12  -3  138.35   12.93
   1  12   4  434.05   30.76
  -1  12  -4  397.35   31.31
   1 -12   4  366.24   25.92
  -1 -12  -4  349.76   25.38
   1  12   5   58.59   12.14
  -1  12  -5   55.52   13.10
   1 -12   5   50.20   20.04
  -1 -12  -5   53.51    6.61
   1  12   6   37.85   17.86
  -1  12  -6   29.82   17.98
   1 -12   6   28.97    6.37
  -1 -12  -6   35.14    8.69
   1  12   7  157.93   15.17
  -1  12  -7  157.09   18.20
   1 -12   7  170.96   16.42
  -1 -12  -7  151.96   15.30
   1  12   8  187.43   17.21
  -1  12  -8  184.99   17.03
   1 -12   8  398.91   35.20
  -1 -12  -8  212.32   18.73
   1  12   9  134.72   16.12
  -1  12  -9  123.58   16.62
   1 -12   9  129.31   14.98
  -1 -12  -9  129.05   15.92
   1  12  10    3.21    2.81
  -1  12 -10    4.46    3.79
   1 -12  10    8.82    4.93
  -1 -12 -10    7.36    8.62
   1  12  11  101.57   10.52
  -1  12 -11   99.22    8.72
   1 -12  11   97.60    8.72
  -1 -12 -11  101.87   14.48
   1  12  12   39.22   22.46
  -1  12 -12   29.12   17.34
   1 -12  12   31.16   16.95
  -1 -12 -12   28.13   11.91
   1  12  13   15.84   14.80
  -1  12 -13   23.33    5.21
  -1 -12 -13   14.15   17.74
   1  12  14   11.18   11.23
  -1  12 -14   10.64   16.09
  -1 -12 -14   11.33   14.70
  -1 -12 -15   49.06    6.62
  -1 -12 -16   61.36   10.05
   1 -13 -15    1.83    3.45
   1 -13 -14   58.69    9.82
  -1  13  13   31.89    8.36
   1  13 -13   24.26   10.06
  -1 -13  13   25.63   15.62
   1 -13 -13   33.34   14.90
  -1  13  12   16.62   14.51
   1  13 -12   13.96   16.00
  -1 -13  12   20.87   10.75
   1 -13 -12   22.13   14.55
  -1  13  11   68.51    7.45
   1  13 -11   69.48   14.17
  -1 -13  11   69.61   13.80
   1 -13 -11   60.87   18.04
  -1  13  10   23.51   12.33
   1  13 -10   18.67    5.74
  -1 -13  10   28.42   17.20
   1 -13 -10   20.75   18.36
  -1  13   9   17.31   10.93
   1  13  -9   12.40    8.86
  -1 -13   9   15.38   11.45
   1 -13  -9   12.43   13.25
  -1  13   8   17.04    5.91
   1  13  -8    9.41    9.04
  -1 -13   8   10.51    6.04
   1 -13  -8   11.20    7.06
  -1  13   7  245.05   17.76
   1  13  -7  226.74   17.28
  -1 -13   7  269.48   18.63
   1 -13  -7  211.80   20.97
  -1  13   6   16.95   12.17
   1  13  -6   14.50   11.28
  -1 -13   6   34.73   13.49
   1 -13  -6   14.21   13.04
  -1  13   5  118.45   13.03
   1  13  -5  132.08   12.19
  -1 -13   5  129.55   10.72
   1 -13  -5  124.60   11.89
  -1  13   4   62.93   27.25
   1  13  -4   55.38    9.72
  -1 -13   4   55.57    6.31
   1 -13  -4   54.37    8.02
  -1  13   3    8.21    7.00
   1  13  -3   10.29    4.84
  -1 -13   3   12.34    9.05
   1 -13  -3   11.71   10.15
   1  13  -2   46.24   12.81
  -1  13   2   47.09    9.20
  -1 -13   2   38.33   12.49
   1 -13  -2   40.49    5.63
   1  13  -1  126.87   14.03
  -1  13   1  123.74   18.70
  -1 -13   1  132.45   13.30
   1 -13  -1  133.49   11.58
   1  13   0   83.96   15.98
  -1  13   0   74.58   10.06
  -1 -13   0   78.61   13.19
   1 -13   0   91.45   20.93
   1  13   1  142.03   14.50
  -1  13  -1  132.46   12.61
  -1 -13  -1  132.59   12.04
   1 -13   1  158.54   17.56
   1  13   2   46.26   15.12
  -1  13  -2   52.97    8.86
   1 -13   2   47.87    6.67
  -1 -13  -2   47.27    8.86
   1  13   3    9.18    7.49
  -1  13  -3    8.89    5.71
   1 -13   3    8.67    5.41
  -1 -13  -3    9.54    7.14
   1  13   4   71.32   10.87
  -1  13  -4   81.63   24.63
   1 -13   4   53.85    6.08
  -1 -13  -4   64.68    9.96
   1  13   5  124.23   12.84
  -1  13  -5  125.97   13.70
   1 -13   5  125.82   14.76
  -1 -13  -5  131.75   22.06
   1  13   6   11.97   12.43
  -1  13  -6   12.26   11.20
   1 -13   6   14.10   10.80
  -1 -13  -6   12.63    6.53
   1  13   7  219.72   16.08
  -1  13  -7  230.69   16.95
   1 -13   7  255.21   28.13
  -1 -13  -7  216.95   21.64
   1  13   8   10.23    5.79
  -1  13  -8   10.05    8.99
   1 -13   8   27.41   14.13
  -1 -13  -8    9.96    7.42
   1  13   9    8.34    9.37
  -1  13  -9   13.85   11.43
   1 -13   9   15.88    7.79
  -1 -13  -9   15.99    8.29
   1  13  10   25.19   14.24
  -1  13 -10   29.02    6.35
   1 -13  10   23.93   11.22
  -1 -13 -10   22.36   11.53
   1  13  11   74.33    8.61
  -1  13 -11   71.79    7.85
   1 -13  11   71.46    7.39
  -1 -13 -11   60.55   22.93
   1  13  12   22.38   15.71
  -1  13 -12   22.18   10.97
   1 -13  12   20.44   13.98
  -1 -13 -12   20.05   18.06
   1  13  13   21.62   24.41
  -1  13 -13   18.46   20.94
  -1 -13 -13   30.17   12.00
   1  13  14   58.93    8.50
  -1  13 -14   50.59    6.50
  -1 -13 -14   70.61    9.68
  -1 -13 -15    1.73    2.90
  -1  14  13   11.32   13.13
   1  14 -13   10.05   13.45
  -1 -14  13   17.74   13.43
   1 -14 -13   16.59   19.05
  -1  14  12   18.78   15.01
   1  14 -12   16.93   10.37
  -1 -14  12   21.04   11.32
   1 -14 -12   25.30   20.89
  -1  14  11   58.72    7.06
   1  14 -11   54.77    7.26
  -1 -14  11   47.76    5.90
   1 -14 -11   44.16   17.23
  -1  14  10   86.92   14.79
   1  14 -10   82.74    8.01
  -1 -14  10   83.53    9.11
   1 -14 -10   81.64    8.88
  -1  14   9   93.05   14.40
   1  14  -9   87.33    8.01
  -1 -14   9   90.92   15.39
   1 -14  -9  106.05   10.04
  -1  14   8   25.05   12.20
   1  14  -8   28.28   10.77
  -1 -14   8   25.06   17.25
   1 -14  -8   23.74   21.14
  -1  14   7   13.08   12.90
   1  14  -7   13.81   12.91
   1 -14  -7   23.19   16.75
  -1  14   6  410.17   38.16
   1  14  -6  439.35   32.43
   1 -14  -6  456.38   17.88
  -1  14   5    6.60    6.93
   1  14  -5    7.97    7.85
  -1 -14   5   10.76    5.56
   1 -14  -5    9.09    8.24
  -1  14   4   63.36   14.18
   1  14  -4   71.90   14.61
  -1 -14   4   67.76   22.93
   1 -14  -4   68.11   11.16
  -1  14   3  153.35   15.37
   1  14  -3  141.92   15.78
  -1 -14   3  122.25   11.89
   1 -14  -3  129.93   13.83
   1  14  -2  192.48   21.62
  -1  14   2  192.54   23.71
  -1 -14   2  186.13   16.53
   1 -14  -2  191.20   20.67
   1  14  -1   64.35    8.28
  -1  14   1   75.62   12.79
  -1 -14   1   64.01   10.44
   1 -14  -1   67.95    9.01
   1  14   0   50.54    9.42
  -1  14   0   53.77   26.24
  -1 -14   0   53.19    7.07
   1 -14   0   55.49   19.94
   1  14   1   64.70   11.17
  -1  14  -1   69.58    9.95
  -1 -14  -1   66.48   10.25
   1 -14   1   71.27   19.15
   1  14   2  204.71   19.03
  -1  14  -2  175.40   25.01
   1 -14   2  185.64   23.57
  -1 -14  -2  223.15   23.69
   1  14   3  138.11   17.87
  -1  14  -3  139.71   14.83
   1 -14   3  132.54   13.04
  -1 -14  -3  155.23   16.09
   1  14   4   69.09    8.56
  -1  14  -4   70.11   10.12
   1 -14   4   72.15    7.37
  -1 -14  -4   72.85   12.10
   1  14   5    8.42    4.86
  -1  14  -5   10.63    6.11
   1 -14   5    8.08    6.45
  -1 -14  -5    6.71    6.04
   1  14   6  443.66   31.79
  -1  14  -6  448.18   20.23
   1 -14   6  427.16   29.24
  -1 -14  -6  469.14   17.75
   1  14   7   16.92   14.04
  -1  14  -7   18.30    7.21
   1 -14   7   13.99    8.27
  -1 -14  -7   18.20    9.46
   1  14   8   19.62   17.18
  -1  14  -8   24.68   20.44
   1 -14   8   65.46   17.03
  -1 -14  -8   26.83   19.00
   1  14   9  103.03    9.06
  -1  14  -9   99.08   11.18
   1 -14   9   88.30    7.91
  -1 -14  -9   95.09    8.99
   1  14  10   90.03   13.01
  -1  14 -10   73.99   16.87
   1 -14  10   83.94    9.43
  -1 -14 -10   78.78   10.79
   1  14  11   45.46   24.12
  -1  14 -11   44.24   12.97
   1 -14  11   50.53    5.56
  -1 -14 -11   54.64    8.18
   1  14  12   18.71   15.47
  -1  14 -12   23.11    6.63
   1 -14  12   20.13   11.63
  -1 -14 -12   19.22   15.48
   1  14  13    9.65   19.45
  -1  14 -13   20.73    8.21
  -1 -14 -13    9.36   13.67
  -1  15  12   12.99   19.02
   1  15 -12    8.21   12.81
  -1 -15  12   10.41   14.73
   1 -15 -12   12.83   12.67
   1  15 -11   38.35    8.17
   1 -15 -11   37.74   20.21
  -1  15  10   19.81   15.48
   1  15 -10   26.68    7.71
  -1 -15  10   30.49   17.81
   1 -15 -10   25.82   22.77
  -1  15   9   15.98   15.10
   1  15  -9   12.18   14.73
  -1 -15   9   24.92   12.23
   1 -15  -9   16.78   15.34
  -1  15   8  108.75   17.19
   1  15  -8  103.37   14.76
  -1 -15   8  107.98   32.89
   1 -15  -8  120.68   16.30
  -1  15   7   17.80   16.00
   1  15  -7   16.35    7.05
  -1 -15   7   24.74   14.19
   1 -15  -7   15.54   10.44
  -1  15   6   76.92   11.48
   1  15  -6   68.95   10.47
  -1 -15   6  399.21  183.13
   1 -15  -6   59.69   10.64
  -1  15   5   28.39   17.52
   1  15  -5   19.56   22.50
  -1 -15   5   38.43    7.84
   1 -15  -5   30.67   15.54
  -1  15   4   95.71    9.70
   1  15  -4  104.47   10.11
  -1 -15   4   95.19    9.17
   1 -15  -4   91.61    9.45
  -1  15   3   41.18   15.66
   1  15  -3   40.70    8.90
  -1 -15   3   38.52   14.73
   1 -15  -3   32.44   23.42
   1  15  -2   37.89   23.22
  -1  15   2   46.29    7.41
  -1 -15   2   45.30   17.77
   1 -15  -2   43.67   12.90
   1  15  -1   76.50    9.12
  -1  15   1   74.92   15.42
  -1 -15   1   73.98    7.54
   1 -15  -1   80.50   12.58
  -1  15   0   26.96   18.31
  -1 -15   0   29.24   17.89
   1 -15   0   25.90   24.65
   1  15   1   73.28   11.50
  -1  15  -1   64.37    9.16
  -1 -15  -1   76.25    9.84
   1 -15   1   89.39   11.39
   1  15   2   36.10   16.09
  -1  15  -2   37.14   23.27
   1 -15   2   43.30    8.67
  -1 -15  -2   28.79   25.02
   1  15   3   39.22   17.55
  -1  15  -3   40.86    9.15
   1 -15   3   41.29    7.81
  -1 -15  -3   38.31   23.23
   1  15   4   96.66    9.61
  -1  15  -4   87.28   12.41
   1 -15   4   99.58    8.65
  -1 -15  -4  122.19   11.07
   1  15   5   28.78   23.83
  -1  15  -5   31.87   22.68
   1 -15   5   30.09   15.68
  -1 -15  -5   29.64   13.91
   1  15   6   67.91    8.96
  -1  15  -6   62.07   19.07
   1 -15   6   61.56   10.21
  -1 -15  -6   67.22   13.94
   1  15   7   19.27   11.82
  -1  15  -7   13.58   10.70
   1 -15   7   20.62   13.62
  -1 -15  -7   21.90   18.94
   1  15   8  109.33   18.21
  -1  15  -8  111.95    9.70
   1 -15   8  220.52   24.40
  -1 -15  -8   99.98   13.02
   1  15   9   17.90   13.06
  -1  15  -9   14.20   13.33
   1 -15   9   22.20   14.84
  -1 -15  -9   17.76   13.39
   1  15  10   21.85   17.62
  -1  15 -10   21.82   11.65
   1 -15  10   24.95   16.15
  -1 -15 -10   19.01   20.91
   1  15  11   46.44   23.77
  -1  15 -11   38.02   11.60
   1 -15  11   35.34   14.74
  -1 -15 -11   36.38   17.77
   1  15  12   15.37   10.52
  -1  15 -12   10.46   11.41
  -1 -15 -12   14.96   16.15
  -1  16  10    6.94   10.76
   1  16 -10    7.37    6.94
  -1 -16  10   10.65    6.32
   1 -16 -10    9.47    6.68
  -1  16   9   60.52    7.83
   1  16  -9   61.66    8.28
  -1 -16   9   63.48   27.59
   1 -16  -9   77.64    9.07
  -1  16   8   15.43   17.38
   1  16  -8   11.69   14.52
  -1 -16   8   16.11   12.28
   1 -16  -8   10.16   10.12
  -1  16   7  102.63   12.78
   1  16  -7   93.76   12.33
  -1 -16   7  110.74   12.95
   1 -16  -7   95.47   12.29
  -1  16   6   13.18   13.42
   1  16  -6    9.08   13.98
  -1 -16   6   39.09   17.03
   1 -16  -6   17.26   13.05
  -1  16   5   69.93   11.14
   1  16  -5   72.14    9.01
  -1 -16   5   75.61    9.37
   1 -16  -5   69.77   11.88
  -1  16   4   64.43   28.99
   1  16  -4   73.40    9.45
  -1 -16   4   71.00   28.30
   1 -16  -4   70.24    8.48
  -1  16   3   83.93    9.16
   1  16  -3   86.39   16.97
  -1 -16   3   75.95   12.96
   1 -16  -3   86.02   11.48
   1  16  -2    8.31    6.67
  -1  16   2    3.75    3.41
  -1 -16   2    4.54    4.50
   1 -16  -2    6.35    9.21
   1  16  -1    8.89   11.06
  -1  16   1   11.38    6.20
  -1 -16   1    6.82    5.34
   1 -16  -1    6.36    6.65
   1  16   0  142.10   14.99
  -1  16   0  160.49   16.44
  -1 -16   0  139.51   25.38
   1 -16   0  147.27   18.24
   1  16   1    6.54    7.93
  -1  16  -1    4.55    5.43
  -1 -16  -1   10.17    8.04
   1 -16   1    7.61    7.38
   1  16   2    6.98    4.71
  -1  16  -2    4.90    5.85
   1 -16   2    5.80    5.46
  -1 -16  -2    5.68    4.55
   1  16   3   89.82   16.30
  -1  16  -3   90.14   16.45
   1 -16   3   78.02   15.09
  -1 -16  -3   84.58   20.23
   1  16   4   58.16    8.42
  -1  16  -4   70.89   12.79
   1 -16   4   68.71   10.77
  -1 -16  -4   92.61   12.19
   1  16   5   67.54    8.21
  -1  16  -5   63.93   10.12
   1 -16   5   72.45    7.91
  -1 -16  -5   78.69   10.07
   1  16   6   13.41   12.54
  -1  16  -6   13.11   18.29
   1 -16   6   10.60    9.04
  -1 -16  -6   12.67   15.08
   1  16   7  108.06   13.80
  -1  16  -7  100.59   15.84
   1 -16   7  139.97   23.41
  -1 -16  -7   99.12   14.48
   1  16   8   10.46   10.98
  -1  16  -8   10.82    9.83
   1 -16   8   25.41   23.65
  -1 -16  -8   10.48   11.48
   1  16   9   69.55    9.50
  -1  16  -9   67.97    8.80
  -1 -16  -9   50.31   23.50
   1  16  10   11.31    7.24
  -1  16 -10    8.64    5.94
   1 -16  10    7.56    4.26
  -1 -16 -10    5.40    4.09
  -1  17   8    6.78   14.91
   1  17  -8   10.14    8.94
  -1 -17   8   11.23   12.62
   1 -17  -8   10.36   15.13
  -1  17   7   17.48   12.85
   1  17  -7   11.86   20.58
  -1 -17   7   18.60   11.28
   1 -17  -7    8.87   13.47
  -1  17   6   92.44    9.60
   1  17  -6   94.37    9.86
  -1 -17   6  163.50   31.82
   1 -17  -6   83.29   18.70
  -1  17   5   25.70   26.01
   1  17  -5   59.26    8.06
  -1 -17   5   57.57   12.23
   1 -17  -5   37.74   14.28
  -1  17   4    6.97   13.60
   1  17  -4   13.30   12.23
  -1 -17   4   17.53   11.29
   1 -17  -4   15.24   16.91
  -1  17   3   11.58    7.13
   1  17  -3    7.88    6.90
  -1 -17   3    9.44    6.59
   1 -17  -3   12.30   10.20
   1  17  -2   29.51    7.67
  -1  17   2   32.34   14.15
  -1 -17   2   36.51   17.94
   1 -17  -2   55.52   12.64
   1  17  -1    2.79    2.59
  -1  17   1    4.72    6.46
  -1 -17   1    6.02    4.81
   1 -17  -1    3.74    3.14
   1  17   0   26.19   21.97
  -1  17   0   32.95    8.04
  -1 -17   0   31.90   12.54
   1 -17   0   29.17   16.09
   1  17   1    1.48    6.18
  -1  17  -1    8.84   11.39
  -1 -17  -1    2.87    4.83
   1 -17   1    7.24    5.72
   1  17   2   35.65   10.41
  -1  17  -2   37.63   16.39
   1 -17   2   35.95    8.32
  -1 -17  -2   37.83   14.42
   1  17   3   10.42    8.25
  -1  17  -3    9.29    8.74
   1 -17   3    8.97    7.25
  -1 -17  -3    8.55    8.50
   1  17   4   15.93   18.38
  -1  17  -4   13.61   14.62
   1 -17   4    9.09    5.77
  -1 -17  -4   13.81   13.23
   1  17   5   34.58    9.62
  -1  17  -5   42.34    8.21
   1 -17   5   34.05   20.64
  -1 -17  -5   38.30    7.44
   1  17   6   80.01    9.74
  -1  17  -6   84.06   11.08
   1 -17   6   93.35    9.08
  -1 -17  -6  104.46   11.46
   1  17   7   16.79   14.18
  -1  17  -7    8.19   11.26
   1 -17   7   20.94   24.87
  -1 -17  -7   17.94   21.30
   1  17   8    7.56    8.72
  -1  17  -8    5.39   10.32
   1 -17   8   11.32   13.33
  -1 -17  -8   11.70   14.47
  -1  18   5    1.96    3.84
   1  18  -5    3.31    3.77
  -1 -18   5   -1.13    9.31
   1 -18  -5    7.20    8.21
  -1  18   4    2.58    6.12
   1  18  -4    0.99    3.57
  -1 -18   4    6.10    6.11
   1 -18  -4    2.78    6.67
  -1  18   3   28.54   21.65
   1  18  -3   34.90   14.77
  -1 -18   3   43.56    7.38
   1 -18  -3   51.04   10.85
   1  18  -2   48.45    7.59
  -1  18   2   42.43   19.61
  -1 -18   2   48.49   23.99
   1 -18  -2   52.55   10.32
   1  18  -1   31.66   22.59
  -1  18   1   42.32    9.71
  -1 -18   1   36.84   27.26
   1 -18  -1   32.77   12.35
   1  18   0   14.51   16.42
  -1  18   0   12.99   21.11
  -1 -18   0   16.33   10.37
   1 -18   0   11.96   13.53
   1  18   1   38.27    8.96
  -1  18  -1   31.21   28.38
  -1 -18  -1   32.94   21.14
   1 -18   1   39.25   17.72
  -1  18  -2   54.22   10.94
   1 -18   2   47.48    7.42
  -1 -18  -2   45.94   19.31
   1  18   3   35.51   18.48
  -1  18  -3   30.32   19.29
   1 -18   3   42.55   25.05
  -1 -18  -3   32.20   15.72
   1  18   4    4.73    5.50
  -1  18  -4    1.95    3.20
   1 -18   4    1.15    2.45
  -1 -18  -4    3.37    3.57
   1  18   5    1.89    4.27
  -1  18  -5    3.41    4.73
   1 -18   5    3.11    2.68
  -1 -18  -5    3.05    5.35
   2   0 -18  323.20   29.40
   2   0 -17  145.88   12.89
   2   0 -16    9.33    9.82
   2   0 -15   21.17    8.20
   2   0 -14    5.78    3.89
   2   0 -13   42.09    9.78
   2   0 -12   25.30    5.25
  -2   0  12   28.42   14.78
   2   0 -11  233.63   14.65
  -2   0  11  243.36   16.18
   2   0 -10  559.41   14.67
  -2   0  10  585.94   13.43
   2   0  -9  199.96   12.17
  -2   0   9  222.87   12.75
   2   0  -8   19.99    5.76
  -2   0   8   19.74   10.92
  -2   0   7  403.16   16.11
  -2   0   6  584.26   17.75
  -2   0   5 3839.55   42.36
  -2   0   4   14.89    7.62
   2   0  -3  298.30   12.06
  -2   0   3  284.65   11.56
  -2   0   3  333.34   22.36
   2   0  -2  395.81   10.96
  -2   0   2  384.34   10.62
  -2   0   2  436.67   12.47
   2   0  -1  222.32    9.40
  -2   0   1  211.31    8.97
  -2   0   1  224.52    9.49
   2   0  -1  201.17    8.54
   2   0   0   51.91    5.18
  -2   0   0   51.16    4.98
   2   0   1  208.92    9.25
  -2   0  -1  208.29    9.31
   2   0   2  389.33   12.09
   2   0   2  387.72   10.24
   2   0   3  293.39   13.34
  -2   0  -3  284.02   11.22
   2   0   4   15.26    5.34
  -2   0  -4   12.17    1.34
   2   0   5 3877.01   43.59
  -2   0  -5 3889.50  252.18
   2   0   6  618.56   19.40
  -2   0  -6  581.77   15.85
   2   0   7  406.97   16.16
  -2   0  -7  394.66   15.06
   2   0   8   17.39    5.88
  -2   0  -8   18.19    3.31
   2   0   9  213.88   13.35
  -2   0  -9  208.57   10.69
   2   0  10  590.70   13.01
  -2   0 -10  580.67    9.66
   2   0  11  245.24   16.56
  -2   0 -11  236.82   13.22
   2   0  12   26.72    3.47
  -2   0 -12   19.86    6.63
   2   0  13   32.96    6.63
  -2   0 -13   35.88    6.09
   2   0  14    5.26    4.71
  -2   0 -14    1.26    2.20
   2   0  15   21.09   12.47
   2  -1 -18   83.40    8.21
   2   1 -18   87.22    7.80
   2  -1 -17   29.93   11.44
   2   1 -17   20.59   14.75
   2  -1 -16   85.90    9.30
   2   1 -16   81.23    7.78
   2  -1 -15   16.74   13.12
   2   1 -15   11.67   10.25
   2  -1 -14  180.98   17.69
   2   1 -14  137.39   22.19
   2  -1 -13  249.39   20.23
   2   1 -13  293.90   17.41
  -2  -1  13  260.10   12.62
   2  -1 -12   67.86   10.98
   2   1 -12   75.38   11.03
  -2  -1  12   70.50    9.54
   2  -1 -11  217.50   15.36
   2   1 -11  227.19   27.68
  -2   1  11  212.44   22.66
  -2  -1  11  206.94   16.15
   2  -1 -10  362.98   16.48
  -2   1  10  316.52   19.76
  -2  -1  10  394.83   11.00
   2  -1  -9  936.76   28.54
  -2   1   9  924.80   28.09
  -2  -1   9  953.42   33.60
   2  -1  -8  150.16    9.52
  -2   1   8  152.51    8.61
  -2  -1   8  159.56   10.35
   2   1  -7  358.39   12.15
   2  -1  -7  421.40   17.07
  -2   1   7  356.24   17.80
  -2  -1   7  411.96   16.24
  -2   1   6  385.84   10.25
   2   1  -6  415.59   11.02
   2  -1  -6  409.43   14.04
  -2   1   6  408.88   13.55
  -2  -1   6  405.16   13.10
   2   1  -5   99.86    4.39
  -2   1   5  114.16    5.18
   2   1  -5  133.39    5.65
  -2   1   5  105.07    4.47
   2  -1  -5   76.79    5.56
  -2   1   5  115.03    6.33
  -2  -1   5   83.27    6.42
   2  -1  -4    3.80    1.61
  -2  -1   4    2.79    1.00
   2  -1  -4   13.97    3.02
  -2   1   4   12.79    2.29
  -2  -1   4    3.94    3.78
   2  -1  -3  674.77   18.11
  -2   1   3  543.20   14.94
   2   1  -3  564.94   15.28
  -2  -1   3  695.98   18.58
   2  -1  -3  684.25   20.07
  -2   1   3  522.80   15.08
  -2  -1   3  660.24   18.50
   2   1  -2 1965.01   21.07
   2  -1  -2 1914.58   22.76
  -2  -1   2 2060.65   22.95
   2  -1  -1  911.01   11.47
  -2   1   1  950.82   11.87
   2   1  -1 1000.41   12.15
  -2  -1   1  934.50   11.67
   2  -1  -1  911.77   12.26
  -2   1   1  958.72   11.23
   2  -1  -1  901.12   10.73
  -2  -1   1  940.85   11.64
   2  -1   0  917.40   11.98
  -2   1   0  925.32   12.11
   2   1   0  942.22   12.34
  -2  -1   0  898.63   11.50
  -2  -1   0  938.10   11.17
   2  -1   0  914.78   11.52
  -2   1   0  902.15   11.44
   2  -1   1  927.61   12.96
   2   1   1  952.78   12.93
  -2  -1  -1  971.31   11.15
   2  -1   1  999.63   11.71
  -2   1  -1  912.38   10.79
   2  -1   2 1865.81   22.55
   2   1   2 2065.06   24.48
  -2  -1  -2 1814.74   18.99
   2  -1   2 1919.10   19.65
  -2   1  -2 2003.64   20.40
   2  -1   3  529.78   16.12
  -2  -1  -3  602.56   16.64
   2  -1   4    7.30    5.83
   2   1   4   22.65    5.61
  -2  -1  -4    4.67    1.43
   2   1   4    2.95    1.45
   2  -1   5  112.55    6.65
   2   1   5   99.91    9.00
  -2   1  -5   66.21    2.89
  -2  -1  -5  102.52    5.49
   2   1   5   71.87    4.58
  -2   1  -5   79.26    3.66
   2  -1   6  401.72   14.16
   2   1   6  416.30   13.66
  -2   1  -6  357.72    9.76
  -2  -1  -6  400.24   11.70
   2   1   6  377.46   11.31
  -2   1  -6  409.28   11.36
   2  -1   7  357.54   16.64
   2   1   7  440.45   17.33
  -2  -1  -7  363.62   13.70
  -2   1  -7  439.50   15.82
   2  -1   8  145.88    8.03
   2   1   8  156.63    8.63
  -2   1  -8  120.78    5.59
  -2  -1  -8  156.02    7.65
  -2   1  -8  142.86    7.74
   2  -1   9  865.18   26.77
   2   1   9  949.37   28.76
  -2  -1  -9  904.21   25.31
  -2   1  -9  953.90   26.67
   2  -1  10  405.16   10.81
   2   1  10  410.28   10.47
  -2  -1 -10  442.73    8.13
  -2   1 -10  363.45    9.86
   2  -1  11  231.47    8.69
   2   1  11  232.66   11.65
  -2  -1 -11  218.75   16.23
  -2   1 -11  205.42   13.12
   2  -1  12   66.79    7.12
   2   1  12   66.71   14.07
  -2  -1 -12   67.04    7.53
  -2   1 -12   69.35    6.19
   2  -1  13  276.06   11.96
   2   1  13  270.78   12.96
  -2  -1 -13  285.53   11.22
  -2   1 -13  256.47    9.96
   2  -1  14  140.34   11.21
   2   1  14  192.39   16.38
  -2  -1 -14  139.92   13.81
  -2   1 -14  171.14   14.71
   2  -1  15   17.92   12.23
   2   1  15   18.77    6.93
   2  -2 -18    7.39   11.07
   2  -2 -17    6.97    6.88
   2   2 -17    2.52    4.76
   2   2 -16   66.13    8.25
   2  -2 -14   22.53   11.44
   2   2 -14   23.39    8.16
  -2  -2  14   27.37   12.68
   2  -2 -13 1494.15   53.08
  -2  -2  13 1533.03   51.01
   2   2 -12  881.49   36.43
   2   2 -12  900.32   37.17
   2  -2 -12  954.35   44.16
  -2  -2  12  971.10   45.06
  -2   2  11  244.96   12.34
  -2   2  11  280.20   14.22
   2   2 -11  258.07   13.29
   2   2 -11  282.21   14.30
   2  -2 -11  260.14   16.48
  -2  -2  11  265.03   20.31
  -2   2  10   66.76    5.23
  -2   2  10   70.96    5.59
   2   2 -10   66.99    5.50
   2   2 -10   74.32    5.77
   2  -2 -10   83.44    8.69
  -2   2  10   70.98    8.83
  -2  -2  10   82.07    8.24
  -2   2   9   44.28    5.52
   2   2  -9   47.68    5.70
  -2   2   9   48.78    5.82
   2   2  -9   47.41    5.74
   2  -2  -9   54.18   11.88
  -2   2   9   48.35    6.86
  -2  -2   9   50.97    8.57
  -2   2   8   14.24    2.50
   2   2  -8   17.97    2.53
  -2   2   8   16.82    2.32
   2   2  -8   16.74    1.82
   2  -2  -8   32.16    9.72
  -2   2   8   19.21    9.20
  -2  -2   8   29.54    5.14
  -2   2   7  412.28   14.58
  -2   2   7  419.40   14.87
   2   2  -7  430.18   15.28
   2  -2  -7  461.09   18.73
  -2   2   7  442.85   17.36
  -2  -2   7  429.58   19.00
  -2   2   6    8.68    1.72
   2   2  -6    8.98    2.88
  -2   2   6    8.50    1.43
   2   2  -6    9.38    1.94
   2  -2  -6    7.95    4.78
  -2   2   6    9.59    5.40
  -2  -2   6    6.23    4.58
   2   2  -5  139.26    6.24
  -2   2   5  138.99    6.84
   2   2  -5  140.17    6.46
  -2   2   5  138.03    6.17
   2  -2  -5  134.37    8.14
  -2   2   5  140.75    7.24
  -2  -2   5  143.61    7.24
   2  -2  -4  126.37    6.48
   2   2  -4  170.00    7.78
  -2   2   4  173.87    7.72
   2   2  -4  179.68    8.30
   2  -2  -4  126.91    7.49
  -2   2   4  176.70   10.45
  -2  -2   4  119.04    6.22
   2  -2  -3  329.83   21.94
   2   2  -3  360.87   10.50
  -2  -2   3  360.52   11.17
   2  -2  -3  348.01   11.87
  -2   2   3  346.72   10.38
  -2  -2   3  342.69   10.71
   2  -2  -2 1966.05   22.24
   2   2  -2 1983.25   22.66
  -2  -2   2 1898.77   21.36
  -2  -2   2 1990.59   22.90
   2  -2  -2 2001.71   25.07
  -2   2   2 1940.84   21.46
  -2  -2   2 1990.58   22.60
   2  -2   0  365.96   11.33
   2   2   0  365.63   11.09
  -2  -2   0  420.59   12.39
   2  -2   0  343.30   10.73
  -2   2   0  343.09    9.54
   2  -2   2 1953.86   25.22
   2   2   2 2052.02   24.54
  -2  -2  -2 1922.73   21.27
   2  -2   2 1958.41   21.24
  -2   2  -2 1930.61   20.90
   2  -2   3  347.73   11.34
   2   2   3  329.00   23.15
  -2  -2  -3  363.50   11.66
  -2   2  -3  326.41   21.54
   2  -2   4  174.75    8.91
   2   2   4  134.90    7.81
   2  -2   4  180.37    7.55
  -2  -2  -4  180.80    8.17
   2  -2   5  137.79    7.67
   2   2   5  143.19    7.97
  -2   2  -5  133.32    5.76
  -2  -2  -5  148.37    7.13
   2  -2   6   11.79    6.87
   2   2   6    9.43    4.78
  -2   2  -6    8.11    2.89
  -2  -2  -6    8.64    2.04
   2  -2   7  428.17   17.41
   2   2   7  464.58   18.50
  -2  -2  -7  456.49   18.16
   2  -2   8   16.28    2.77
   2   2   8   28.02    3.78
  -2   2  -8   24.46    2.26
  -2  -2  -8   19.32    3.81
   2  -2   9   47.64    6.69
   2   2   9   60.02    4.86
  -2  -2  -9   55.15    7.47
   2  -2  10   72.62    7.03
   2   2  10   82.14   12.11
  -2  -2 -10   78.88    7.83
  -2   2 -10   81.26    7.07
   2  -2  11  293.57   16.87
   2   2  11  270.81   16.29
  -2  -2 -11  290.46   19.25
  -2   2 -11  252.24   14.76
   2  -2  12 1089.80   49.47
   2   2  12 1011.94   45.48
  -2  -2 -12  980.50   45.17
  -2   2 -12  960.40   41.42
   2   2  13 1627.40   55.96
  -2   2 -13 1499.06   48.71
   2  -2  14   27.21    9.40
   2   2  14   25.56   10.06
  -2  -2 -14   19.47    7.29
  -2   2 -14   20.96    6.44
   2  -2  15  209.89    8.78
   2   2  15  225.76   14.91
  -2  -2 -15  215.52   14.01
   2  -3 -18    0.28    3.13
   2  -3 -17   59.98    7.60
   2   3 -17   62.69    9.27
   2  -3 -16   78.98   12.12
   2   3 -16   81.83    7.84
   2  -3 -15  111.69   16.98
   2  -3 -14   89.65   14.31
  -2  -3  14   92.67   11.80
   2  -3 -13   86.68    8.06
  -2  -3  13   88.09    7.05
  -2   3  12  203.82   15.52
   2   3 -12  215.00   16.69
   2  -3 -12  225.39   11.09
  -2  -3  12  223.06   12.25
  -2   3  11  205.84   16.38
   2   3 -11  207.29   16.51
   2  -3 -11  232.25   17.05
  -2  -3  11  242.29   16.68
  -2   3  10   28.49    2.56
   2   3 -10   32.26    4.01
   2  -3 -10   47.77   13.97
  -2  -3  10   34.89   14.73
  -2   3   9  280.60   13.63
   2   3  -9  276.90   13.81
   2  -3  -9  333.92   18.04
  -2  -3   9  327.59   20.70
  -2   3   8 1085.37   22.44
   2   3  -8 1085.01   22.51
   2  -3  -8  996.11   32.40
  -2   3   8 1058.55   25.27
  -2  -3   8 1012.52   23.73
  -2   3   7  313.73   12.33
   2   3  -7  330.54   13.33
   2  -3  -7  287.20   16.12
  -2   3   7  315.22   13.11
  -2  -3   7  297.05   13.75
  -2   3   6  809.45   11.80
   2   3  -6  848.68   12.05
   2  -3  -6  866.31   16.98
  -2   3   6  810.08   14.14
  -2  -3   6  909.08   14.77
   2   3  -5  593.45   16.93
  -2   3   5  580.03   16.68
  -2  -3   5  631.41   18.69
   2  -3  -5  591.16   19.12
  -2   3   5  575.01   17.18
  -2  -3   5  609.81   18.16
   2   3  -4  985.51   13.49
  -2  -3   4 1065.61   15.16
   2  -3  -4 1077.57   17.31
  -2   3   4  975.94   14.00
  -2  -3   4 1054.04   14.66
   2  -3  -3  734.44   20.89
   2   3  -3  749.39   21.04
  -2  -3   3  727.32   20.56
   2  -3  -3  755.47   24.50
  -2   3   3  775.30   11.00
  -2  -3   3  741.35   20.72
   2  -3  -2 1447.40   18.59
   2   3  -2 1460.22   18.37
  -2  -3   2 1446.57   18.92
   2  -3  -2 1463.53   21.08
  -2   3   2 1467.21   17.09
  -2  -3   2 1488.36   18.02
   2  -3  -1 1640.17   21.48
   2   3  -1 1803.46   21.91
   2  -3  -1 1605.47   20.95
  -2   3   1 1788.25   18.88
   2  -3   0   74.70    5.62
   2   3   0   72.50    4.51
  -2  -3   0   72.87    4.27
   2  -3   0   78.44    7.62
  -2   3   0   79.16    3.53
   2  -3   0   74.65    3.28
   2  -3   1 1655.35   21.81
   2   3   1 1585.32   20.93
  -2  -3  -1 1777.65   21.03
   2  -3   1 1786.71   21.27
   2  -3   2 1430.69   19.87
   2   3   2 1521.18   20.98
   2  -3   2 1452.44   17.51
   2  -3   3  742.67   22.63
   2   3   3  766.85   15.39
  -2  -3  -3  735.68   20.99
   2  -3   3  753.76   20.60
   2  -3   4 1010.16   18.39
  -2   3  -4 1007.77   12.71
   2  -3   5  828.07   18.94
   2   3   6  881.59   20.35
  -2  -3  -6  874.14   13.56
   2   3   7  296.86   20.67
  -2  -3  -7  333.98   15.07
   2   3   8 1076.23   25.01
  -2  -3  -8 1118.21   24.73
   2  -3   9  362.80   13.26
   2   3   9  336.11   17.75
  -2  -3  -9  295.62   15.50
   2  -3  10   31.59    5.19
   2   3  10   37.07    7.79
  -2  -3 -10   39.15    6.97
   2  -3  11  206.60   17.48
   2   3  11  227.28   16.27
  -2  -3 -11  227.49   17.68
   2  -3  12  207.56   17.91
   2   3  12  235.65   19.31
  -2   3 -12  205.56   17.00
   2  -3  13  113.49   10.09
   2   3  13   84.61    5.98
  -2  -3 -13  122.77   11.99
  -2   3 -13   85.64    5.11
   2  -3  14   86.94    9.52
   2   3  14   93.37    9.50
  -2  -3 -14   83.44    8.90
   2  -3  15  118.12    9.36
   2   3  15  108.74   10.31
  -2  -3 -15  112.30    9.82
   2  -4 -18    4.65    6.11
   2  -4 -17   96.59    9.40
   2   4 -17   94.83   17.96
   2  -4 -16  326.72   21.80
   2  -4 -15   30.54   19.18
  -2  -4  15   29.18   19.18
   2  -4 -14  138.28   12.66
  -2  -4  14  138.35   13.01
   2   4 -13   58.57    4.70
   2  -4 -13   70.86   18.11
  -2  -4  13   66.52   21.70
  -2   4  12   12.09    2.65
   2   4 -12   11.01    4.88
   2  -4 -12   11.17   11.89
  -2  -4  12   11.79   11.45
  -2   4  11  193.86   15.62
   2   4 -11  185.62   14.65
   2  -4 -11  204.38   18.74
  -2  -4  11  203.79   22.68
  -2   4  10   28.04    2.87
   2   4 -10   30.13    6.76
   2  -4 -10   30.09    5.24
  -2  -4  10   36.04    4.07
  -2   4   9  157.16   12.98
   2   4  -9  158.64   12.59
   2  -4  -9  153.92   13.97
  -2  -4   9  158.27   13.39
  -2   4   8 1457.93   39.11
   2   4  -8 1484.38   39.41
   2  -4  -8 1431.71   41.15
  -2  -4   8 1411.90   38.97
  -2   4   7  681.54   25.18
   2   4  -7  676.82   24.41
   2  -4  -7  655.73   26.36
  -2  -4   7  611.40   23.04
  -2   4   6 1198.89   25.12
   2   4  -6 1200.13   25.37
  -2  -4   6 1128.93   24.82
   2  -4  -6 1097.88   25.95
  -2  -4   6 1117.41   24.88
   2   4  -5  516.77   16.53
  -2   4   5  518.26   15.58
  -2  -4   5  635.06   19.04
   2  -4  -5  635.25   21.43
  -2  -4   5  586.22   17.93
   2   4  -4  893.49   14.09
  -2   4   4  873.50   16.46
  -2  -4   4  881.60   14.09
   2  -4  -4  925.61   16.90
  -2   4   4  875.33   21.52
  -2  -4   4  883.01   13.24
   2  -4  -3  231.34   11.71
   2   4  -3  214.73   10.20
  -2  -4   3  235.26   10.96
   2  -4  -3  239.05   13.73
  -2   4   3  215.90    9.95
  -2  -4   3  210.26   11.37
   2  -4  -2   81.87    7.45
   2   4  -2   76.26    5.66
  -2  -4   2  124.59    8.34
   2  -4  -2   79.88    6.55
  -2   4   2   69.94    4.05
  -2  -4   2   78.75    5.87
   2  -4  -1  559.08   17.06
   2   4  -1  565.85   18.91
  -2  -4   1  558.44   16.71
   2  -4  -1  575.85   18.55
  -2   4   1  541.31   14.89
   2  -4  -1  544.86   14.67
   2  -4   0   56.98    5.73
   2   4   0   59.43    5.73
   2  -4   0   54.25    5.64
   2  -4   1  533.00   16.97
   2   4   1  523.95   16.26
  -2  -4  -1  542.78   17.12
   2  -4   1  544.24   16.55
   2  -4   2   79.40    5.52
   2   4   2   84.73    5.84
  -2  -4  -2   79.07    4.95
   2  -4   2   71.20    4.40
  -2   4  -2   76.86    3.43
   2  -4   3  237.37   11.74
   2   4   3  253.76   12.52
  -2  -4  -3  205.13    9.82
   2  -4   3  208.37   10.38
  -2   4  -3  201.46    8.41
   2  -4   4  916.45   17.28
   2   4   4  958.84   17.10
   2  -4   4  950.34   13.32
  -2  -4  -4  858.86   13.66
   2  -4   5  530.78   20.28
   2   4   5  634.18   24.22
   2  -4   5  476.93   13.73
  -2  -4  -5  505.58   15.82
   2  -4   6 1161.69   26.70
   2   4   6 1101.06   26.31
   2  -4   6 1276.41   25.96
  -2  -4  -6 1190.46   28.93
   2  -4   7  689.84   26.96
   2   4   7  665.58   25.52
   2  -4   7  651.31   23.09
  -2  -4  -7  665.36   26.09
   2  -4   8 1457.11   41.05
   2   4   8 1516.44   42.93
   2  -4   8 1498.42   39.75
  -2  -4  -8 1480.35   41.03
   2  -4   9  161.24   14.34
   2   4   9  159.05   15.33
  -2  -4  -9  165.76   13.97
   2  -4  10   25.04    6.44
   2   4  10   32.11    4.75
  -2  -4 -10   27.19    6.23
   2  -4  11  194.01   16.61
   2   4  11  220.69   18.70
  -2  -4 -11  188.05   16.19
   2  -4  12   12.75    6.16
  -2  -4 -12   16.60   10.63
   2  -4  13   64.34   12.46
   2   4  13   66.99    6.30
  -2  -4 -13   66.10    5.72
   2  -4  14  144.72   11.26
   2   4  14  136.71   11.56
  -2  -4 -14  141.27   13.35
   2  -4  15   29.28    3.59
   2   4  15   32.52   14.16
  -2  -4 -15   33.67    4.68
   2  -5 -19    3.94    2.46
   2  -5 -18   51.12    9.89
   2  -5 -17   52.38   16.04
   2  -5 -16  112.03   12.83
   2  -5 -15   53.54   18.50
  -2  -5  15   56.73    7.27
   2  -5 -14  104.62    9.88
  -2  -5  14  104.69    9.32
   2   5 -13   94.82    8.84
   2  -5 -13  102.11   14.15
  -2  -5  13  114.08   11.89
  -2   5  12  183.03    7.20
   2   5 -12  177.76    6.24
   2  -5 -12  163.47   14.16
  -2  -5  12  190.65    9.50
  -2   5  11  298.30   18.87
   2   5 -11  300.14   18.62
   2  -5 -11  284.09   29.33
  -2  -5  11  306.27   20.19
  -2   5  10  261.90   15.38
   2   5 -10  256.80   14.65
   2  -5 -10  263.96   17.29
  -2  -5  10  270.66   19.07
  -2   5   9  117.76    8.15
   2   5  -9  122.72    9.04
   2  -5  -9  119.55   11.06
  -2  -5   9  122.95    9.21
  -2   5   8  446.47   12.46
   2   5  -8  438.30   11.17
   2  -5  -8  398.44   11.55
  -2  -5   8  390.87   10.77
  -2   5   7 1091.72   30.65
   2   5  -7 1082.92   30.43
  -2  -5   7 1079.06   30.51
   2  -5  -7 1036.70   38.07
  -2  -5   7 1063.64   29.96
  -2   5   6  992.44   25.45
   2   5  -6  992.34   23.76
  -2  -5   6  990.76   23.55
   2  -5  -6  958.05   24.22
  -2  -5   6  981.73   23.44
   2   5  -5 1266.73   28.38
  -2   5   5 1282.74   27.94
  -2  -5   5 1255.88   27.81
   2  -5  -5 1314.47   30.38
  -2  -5   5 1296.11   28.55
   2   5  -4  363.92   12.31
  -2   5   4  365.05   12.52
   2  -5  -4  346.05   13.50
  -2  -5   4  333.71   22.65
   2  -5  -3  396.45   13.83
   2   5  -3  405.81   13.61
  -2  -5   3  475.40   18.11
   2  -5  -3  373.33   15.04
  -2  -5   3  416.09   13.06
   2  -5  -2 1394.90   20.26
   2   5  -2 1393.40   20.62
  -2  -5   2 1490.77   21.57
   2  -5  -2 1431.77   21.60
  -2  -5   2 1389.47   17.79
   2  -5  -1  160.40    8.91
   2   5  -1   98.79    9.41
  -2  -5   1  183.39    9.17
   2  -5  -1  164.61    9.74
   2  -5  -1  150.62    6.49
   2  -5   0  280.46   13.32
   2   5   0  266.98   12.71
  -2  -5   0  265.82   12.47
   2  -5   0  258.35   12.31
   2  -5   0  266.00   10.63
   2  -5   1   98.08   10.04
   2   5   1  152.44   10.50
  -2  -5  -1  107.69    6.22
   2  -5   1  104.63    6.23
   2  -5   2 1449.59   22.65
   2   5   2 1377.92   20.51
  -2  -5  -2 1439.30   20.69
   2  -5   2 1438.64   20.43
   2  -5   3  411.00   14.75
   2   5   3  396.68   13.83
  -2  -5  -3  388.11   13.42
   2  -5   3  386.65   12.78
  -2   5  -3  387.18   10.71
   2  -5   4  372.23   13.46
   2   5   4  335.77   23.74
   2  -5   4  490.71   16.11
  -2  -5  -4  374.23   13.10
   2  -5   5 1290.98   31.04
   2   5   5 1331.21   31.59
   2  -5   5 1225.88   26.32
  -2  -5  -5 1278.78   27.82
   2  -5   6  950.51   25.15
   2   5   6  963.87   24.52
   2  -5   6 1053.10   22.81
  -2  -5  -6  995.45   22.79
   2  -5   7 1073.81   33.53
   2   5   7 1069.72   31.44
   2  -5   7 1046.89   28.36
  -2  -5  -7 1081.69   33.62
   2  -5   8  430.54   11.87
   2   5   8  380.48   15.64
   2  -5   8  435.02    9.08
  -2  -5  -8  442.89   10.46
   2  -5   9  120.43    9.34
   2   5   9  119.79    9.57
   2  -5   9  132.76    8.66
  -2  -5  -9  128.20    9.78
   2  -5  10  268.21   16.29
   2   5  10  276.49   17.96
  -2  -5 -10  260.24   19.03
   2  -5  11  302.32   21.85
   2   5  11  272.44   19.60
  -2  -5 -11  295.39   20.53
   2  -5  12  180.13    9.98
   2   5  12  176.87    8.79
  -2  -5 -12  177.29    9.63
   2  -5  13  102.03   10.60
   2   5  13  107.18   11.68
  -2  -5 -13  101.68   10.42
   2  -5  14   90.89    7.07
   2   5  14  111.73    9.08
  -2  -5 -14   92.28    8.19
   2  -5  15   45.20    4.91
   2   5  15   51.28    6.23
  -2  -5 -15   49.66    5.59
   2  -6 -19    2.82    3.93
   2  -6 -18    3.90    6.11
   2  -6 -17   20.50   14.21
   2  -6 -16   29.37   12.71
   2  -6 -15   72.16    8.38
  -2  -6  15   79.67    8.18
   2  -6 -14  207.21   28.07
  -2  -6  14  197.53   17.28
  -2   6  13  101.57    9.79
   2   6 -13   94.80    9.38
   2  -6 -13  105.66   14.42
  -2  -6  13  106.05   13.77
  -2   6  12   63.37    4.76
   2   6 -12   61.85    4.98
   2  -6 -12   58.62    8.78
  -2  -6  12   59.49    7.41
  -2   6  11  594.46   22.73
   2   6 -11  549.46   20.43
   2  -6 -11  522.70   22.64
  -2  -6  11  522.57   22.10
  -2   6  10  515.83   24.35
   2   6 -10  532.15   24.36
   2  -6 -10  531.56   27.75
  -2  -6  10  502.56   30.88
  -2   6   9  103.07   11.46
   2   6  -9  100.84   10.78
   2  -6  -9  103.90   15.78
  -2  -6   9   96.08   10.42
  -2   6   8    7.97    5.03
   2   6  -8    7.26    3.27
  -2  -6   8    4.18    2.46
   2  -6  -8    4.83    3.35
  -2  -6   8    4.74    3.51
  -2   6   7  217.61   13.16
   2   6  -7  224.14   12.57
  -2  -6   7  209.56   12.21
   2  -6  -7  218.33   14.36
  -2  -6   7  219.72   12.13
  -2   6   6   53.72    7.53
   2   6  -6   50.79    9.35
  -2  -6   6   44.66    6.12
   2  -6  -6   43.87    7.02
  -2  -6   6   46.38    6.13
   2   6  -5   72.70    6.58
  -2   6   5   65.10    6.24
  -2  -6   5   77.53    6.74
   2  -6  -5   78.47    8.09
  -2  -6   5   76.67    6.41
   2   6  -4  104.78    6.48
  -2   6   4  100.26   10.57
  -2  -6   4   97.30    9.14
   2  -6  -4   94.52    7.60
  -2  -6   4   98.15    5.54
   2   6  -3  131.41    7.65
  -2   6   3  129.63    7.48
   2  -6  -3  153.53   16.02
  -2  -6   3  152.45    7.76
   2  -6  -2 1190.32   27.16
   2   6  -2 1309.66   32.85
  -2  -6   2 1110.55   25.37
   2  -6  -2 1180.58   27.63
  -2  -6   2 1156.29   24.82
   2  -6  -1  994.84   18.94
   2   6  -1  988.62   17.18
  -2  -6   1  932.76   15.63
   2  -6  -1 1001.73   17.42
   2  -6  -1  910.69   10.98
   2  -6   0  345.22   14.50
   2   6   0  352.57   15.36
  -2  -6   0  339.58   15.18
   2  -6   0  345.15   12.21
   2  -6   0  332.88   21.69
   2  -6   1  870.11   17.98
   2   6   1  998.78   21.59
  -2  -6  -1 1037.10   20.90
   2  -6   1  975.66   18.12
   2  -6   2 1302.67   30.18
   2   6   2 1203.26   27.56
  -2  -6  -2 1378.24   30.29
   2  -6   2 1272.78   29.65
   2  -6   3  140.50    8.61
   2   6   3  144.99    8.39
  -2  -6  -3  131.81    7.56
   2  -6   3  132.50    7.90
  -2   6  -3  139.66    5.93
   2  -6   4  108.09    8.18
   2   6   4   94.96    6.66
   2  -6   4  135.26    7.97
  -2  -6  -4  106.80    6.80
  -2   6  -4   91.02   10.31
   2  -6   5   73.65    7.22
   2   6   5   74.50    7.05
   2  -6   5   65.80    5.92
  -2  -6  -5   67.43    6.87
   2  -6   6   49.80    7.04
   2   6   6   45.14    6.53
   2  -6   6   44.85    5.99
  -2  -6  -6   50.98    7.08
   2  -6   7  229.00   15.56
   2   6   7  203.60   12.15
  -2  -6  -7  222.86   14.11
   2  -6   8    6.73    3.46
   2   6   8    4.58    2.90
   2  -6   8    5.73    3.39
  -2  -6  -8    6.81    2.55
   2  -6   9   99.64   11.76
   2   6   9   98.28   11.25
   2  -6   9  104.19   10.67
  -2  -6  -9  108.43   11.91
   2  -6  10  527.28   26.85
   2   6  10  516.14   27.91
   2  -6  10  557.05   26.31
  -2  -6 -10  539.60   25.57
   2  -6  11  552.77   22.77
   2   6  11  521.12   23.16
  -2  -6 -11  564.63   22.33
   2  -6  12   55.70    9.02
   2   6  12   53.77    5.74
  -2  -6 -12   70.60    6.34
   2  -6  13  106.67   11.57
   2   6  13  110.29   11.76
  -2  -6 -13  100.23   10.62
   2  -6  14  188.21   19.93
   2   6  14  215.01   19.08
   2  -6  15   72.60    6.15
   2   6  15   77.07    7.46
  -2  -6 -15   73.40    6.78
  -2  -6 -16   19.57   11.19
   2  -7 -19   17.04   10.48
   2  -7 -18  102.41   15.53
   2  -7 -17   29.56   18.07
   2  -7 -16   14.48   16.65
   2  -7 -15   20.72   20.10
  -2  -7  15   23.25   16.39
   2  -7 -14  184.74   23.15
  -2  -7  14  196.04   13.46
  -2   7  13  154.78   13.53
   2   7 -13  156.46   13.12
   2  -7 -13  173.66   19.40
  -2  -7  13  170.18   17.92
  -2   7  12    4.43    5.55
   2   7 -12    5.72    4.96
   2  -7 -12   12.63    7.25
  -2  -7  12    5.96    2.92
  -2   7  11   51.13    4.96
   2   7 -11   56.29    5.01
   2  -7 -11   55.92   17.48
  -2  -7  11   47.30    5.82
  -2   7  10  549.86   22.09
   2   7 -10  550.11   20.93
   2  -7 -10  588.95   25.69
  -2  -7  10  569.12   21.76
  -2   7   9  293.76   19.78
   2   7  -9  292.66   20.31
  -2  -7   9  274.01   18.94
   2  -7  -9  276.61   19.72
  -2  -7   9  272.91   18.00
  -2   7   8   57.01    7.12
   2   7  -8   55.13    6.68
  -2  -7   8   52.86    6.76
   2  -7  -8   51.48    8.34
  -2  -7   8   52.11    7.04
  -2   7   7  288.98   17.20
   2   7  -7  278.39   16.03
  -2  -7   7  241.43   14.23
   2  -7  -7  246.78   16.12
  -2  -7   7  254.82   19.16
  -2   7   6  599.79   12.75
   2   7  -6  588.39   14.28
  -2  -7   6  552.03   13.08
   2  -7  -6  596.49   14.22
  -2  -7   6  586.69   13.70
   2   7  -5  363.15   10.98
  -2   7   5  373.40   18.09
  -2  -7   5  357.15    9.27
   2  -7  -5  350.77   11.06
  -2  -7   5  345.87   17.48
   2   7  -4  454.27   20.67
  -2   7   4  446.09   20.14
   2  -7  -4  461.41   19.54
  -2  -7   4  465.65   18.37
   2   7  -3  793.29   20.36
  -2   7   3  771.63   85.97
  -2  -7   3  840.09   21.83
   2  -7  -3  833.82   21.84
  -2  -7   3  825.26   18.58
   2  -7  -2 1109.11   27.06
   2   7  -2 1073.47   25.61
  -2  -7   2 1015.67   25.52
   2  -7  -2 1092.54   26.21
  -2  -7   2 1064.12   24.59
   2  -7  -1  494.61   20.08
   2   7  -1  498.06   20.01
  -2  -7   1  458.05   18.14
   2  -7  -1  478.11   19.62
   2  -7  -1  422.62   14.83
   2  -7   0   26.19    5.92
   2   7   0   25.14    3.89
  -2  -7   0   25.78   10.21
   2  -7   0   24.89    4.86
   2  -7   0   23.05    1.73
   2  -7   1  442.76   18.98
   2   7   1  487.97   21.45
  -2  -7  -1  523.63   20.73
   2  -7   1  506.21   23.71
   2  -7   2 1063.13   27.04
   2   7   2 1081.94   27.49
  -2  -7  -2 1091.68   26.37
   2  -7   2 1079.55   25.12
   2  -7   3  787.59   22.11
   2   7   3  787.00   25.00
  -2  -7  -3  777.09   19.88
   2  -7   3  791.47   20.41
   2  -7   4  435.60   18.57
   2   7   4  464.30   19.36
   2  -7   4  548.65   23.99
  -2  -7  -4  427.37   17.43
  -2   7  -4  400.67   13.95
   2  -7   5  364.09   16.24
   2   7   5  350.36   10.06
   2  -7   5  366.22   12.52
  -2  -7  -5  371.19   10.57
   2  -7   6  574.12   16.32
   2   7   6  575.78   13.79
   2  -7   6  563.82   10.11
  -2  -7  -6  576.48   13.52
   2  -7   7  283.86   17.49
   2   7   7  276.28   16.99
   2  -7   7  347.60   21.06
  -2  -7  -7  276.31   16.79
   2  -7   8   62.41   10.18
   2   7   8   51.85    8.99
   2  -7   8   61.19   10.48
  -2  -7  -8   63.19   12.38
   2  -7   9  285.63   23.62
   2   7   9  276.81   19.58
   2  -7   9  277.79   18.33
  -2  -7  -9  313.35   21.16
   2  -7  10  558.63   22.37
   2   7  10  568.34   23.82
   2  -7  10  553.61   19.80
  -2  -7 -10  566.94   21.96
   2  -7  11   56.76    6.66
   2   7  11   52.04    6.29
  -2  -7 -11   47.41    6.97
   2  -7  12    5.15    2.35
   2   7  12    7.90    4.94
  -2  -7 -12    5.20    5.09
   2  -7  13  151.64   14.35
   2   7  13  174.12   16.64
  -2  -7 -13  167.44   15.19
   2  -7  14  175.84   13.28
   2   7  14  171.45   16.71
  -2  -7 -14  171.14   13.32
   2  -7  15   23.02   12.85
   2   7  15   25.85    4.91
  -2  -7 -15   20.91    8.10
  -2  -7 -16   18.08    8.79
   2  -8 -18   11.52   18.42
   2  -8 -17   48.68   17.50
   2  -8 -16   49.59   23.05
   2  -8 -15   25.14   13.32
   2  -8 -14   47.95   13.35
  -2  -8  14   48.12    5.92
  -2   8  13    5.06    3.74
   2   8 -13    5.64    5.69
   2  -8 -13    8.49    9.99
  -2  -8  13    9.72    6.99
  -2   8  12   21.02    7.35
   2   8 -12   19.88    6.91
   2  -8 -12   23.58   15.52
  -2  -8  12   24.46   14.90
  -2   8  11   54.21    5.30
   2   8 -11   54.49    4.85
   2  -8 -11   61.31   13.90
  -2  -8  11   63.68    5.44
  -2   8  10  127.74   10.52
   2   8 -10  123.22   10.27
  -2  -8  10  104.89    9.70
   2  -8 -10  103.50   11.91
  -2   8   9   99.76   12.22
   2   8  -9   95.54   11.94
  -2  -8   9   80.70   11.89
   2  -8  -9   79.29   12.59
  -2  -8   9   74.39   10.91
  -2   8   8  481.25   24.36
   2   8  -8  484.12   25.23
  -2  -8   8  503.69   24.71
   2  -8  -8  511.64   25.88
  -2  -8   8  508.70   26.73
  -2   8   7  171.31   12.55
   2   8  -7  171.99   13.04
  -2  -8   7  146.85   10.94
   2  -8  -7  140.97   11.97
  -2  -8   7  155.44   11.56
  -2   8   6  841.62   34.13
   2   8  -6  844.03   32.07
  -2  -8   6  766.26   29.92
   2  -8  -6  813.19   38.06
  -2  -8   6  827.05   29.97
   2   8  -5  600.52   14.24
  -2   8   5  623.59   13.87
  -2  -8   5  635.61   17.62
   2  -8  -5  583.18   15.25
  -2  -8   5  582.50   12.82
   2   8  -4  883.66   28.33
  -2   8   4  863.71   29.96
   2  -8  -4  883.62   27.78
  -2  -8   4  857.96   24.84
   2   8  -3  588.73   18.55
  -2   8   3  580.61   22.75
  -2  -8   3  588.47   14.45
   2  -8  -3  608.18   21.20
  -2  -8   3  614.71   10.35
   2   8  -2  192.67   11.67
  -2   8   2  184.44   11.23
  -2  -8   2  193.89   11.41
   2  -8  -2  200.21   12.12
  -2  -8   2  201.92   11.06
   2  -8  -1   52.42   11.43
   2   8  -1   45.24    8.16
  -2  -8   1   45.98    6.82
   2  -8  -1   50.12    7.62
   2  -8  -1   41.57    4.89
   2  -8   0    0.29    3.86
   2   8   0    3.65    2.36
  -2  -8   0    1.35    2.21
   2  -8   0    3.58    1.98
   2  -8   0    1.35    0.66
   2  -8   1   35.64    6.69
   2   8   1   51.86    7.53
  -2  -8  -1   44.75    6.60
   2  -8   1   44.50    9.86
   2  -8   2  186.91   13.21
   2   8   2  210.40   12.80
  -2  -8  -2  210.95   12.64
   2  -8   2  187.68   11.01
   2  -8   3  596.49   15.44
   2   8   3  634.35   14.31
  -2  -8  -3  609.45   13.17
   2  -8   3  614.04   13.00
   2  -8   4  874.45   28.30
   2   8   4  844.16   27.29
  -2  -8  -4  838.19   32.58
   2  -8   5  616.97   16.48
   2   8   5  588.51   14.40
   2  -8   5  606.53   14.02
  -2  -8  -5  563.83   19.33
   2  -8   6  833.09   33.12
   2   8   6  785.87   33.45
   2  -8   6  784.35   30.82
  -2  -8  -6  849.56   33.02
   2  -8   7  160.07   12.75
   2   8   7  160.77   12.56
   2  -8   7  163.30   13.17
  -2  -8  -7  161.69   14.41
   2  -8   8  461.71   24.10
   2   8   8  515.59   25.70
   2  -8   8  581.03   27.04
  -2  -8  -8  450.45   30.55
   2  -8   9   92.59   12.65
   2   8   9   75.79   13.22
   2  -8   9   90.85   12.05
  -2  -8  -9  104.70   13.23
   2  -8  10  118.14   11.06
   2   8  10   99.28    9.79
   2  -8  10  118.59    9.78
  -2  -8 -10  118.16   10.68
   2  -8  11   51.63    5.72
   2   8  11   68.82   10.31
   2  -8  11   57.03    4.31
  -2  -8 -11   52.05    6.55
   2  -8  12   26.71   12.18
   2   8  12   25.08   14.53
  -2  -8 -12   22.11    5.88
   2   8  13    5.98    9.33
  -2  -8 -13    4.74    5.56
   2  -8  14   50.69    6.00
   2   8  14   43.12   10.36
  -2  -8 -14   48.27    7.05
   2  -8  15   21.97   16.35
   2   8  15   31.82    5.10
  -2  -8 -15   19.52    9.23
  -2  -8 -16   50.69    5.53
   2  -9 -18    2.08    3.20
   2  -9 -17   12.55   14.07
   2  -9 -16  110.59   18.03
   2  -9 -15  160.01   20.25
  -2  -9  15  151.80   17.65
   2  -9 -14   10.98   10.51
  -2  -9  14   16.04   10.12
  -2   9  13   17.15   11.76
   2   9 -13   15.27    6.52
   2  -9 -13   31.43    8.65
  -2  -9  13   25.28   14.69
  -2   9  12   19.49    8.61
   2   9 -12   22.04    5.99
   2  -9 -12   37.53   14.66
  -2  -9  12   32.66    8.05
  -2   9  11    0.63    2.34
   2   9 -11    1.74    1.95
  -2  -9  11    2.31    3.80
   2  -9 -11    1.98    4.47
  -2  -9  11    0.84    2.87
  -2   9  10    7.05    4.50
   2   9 -10    5.10    4.19
  -2  -9  10    4.67    2.65
   2  -9 -10    2.01    3.50
  -2  -9  10    4.34    2.28
  -2   9   9  268.10   24.10
   2   9  -9  278.43   10.12
  -2  -9   9  248.17   20.82
   2  -9  -9  259.73   23.49
  -2  -9   9  245.74   22.57
  -2   9   8  346.04   14.39
   2   9  -8  334.23   14.52
  -2  -9   8  344.79   14.89
   2  -9  -8  367.23   22.58
  -2  -9   8  360.37   12.92
  -2   9   7  162.92   14.43
   2   9  -7  162.61   14.37
  -2  -9   7  137.04    9.27
   2  -9  -7  168.87   17.47
  -2   9   6   62.81    7.03
   2   9  -6   60.73    6.56
  -2  -9   6   51.30    8.06
   2  -9  -6   51.37   14.40
  -2  -9   6   51.59    5.00
   2   9  -5  300.46   18.23
  -2   9   5  298.31   19.25
  -2  -9   5  373.84   22.41
   2  -9  -5  290.08   24.08
  -2  -9   5  281.39   16.42
   2   9  -4 1098.03   40.80
  -2   9   4 1069.49   42.95
  -2  -9   4 1406.88   52.11
   2  -9  -4 1135.43   43.13
  -2  -9   4 1130.19   40.90
   2   9  -3  193.57   14.44
  -2   9   3  187.52   13.70
  -2  -9   3  187.55   16.12
   2  -9  -3  207.34   16.52
  -2  -9   3  200.02   13.46
   2   9  -2   61.51    7.71
  -2   9   2   58.66    8.54
  -2  -9   2   58.74    8.23
   2  -9  -2   61.20    9.24
  -2  -9   2   56.10    7.37
   2   9  -1    6.19    3.69
  -2   9   1    0.80    3.20
  -2  -9   1    4.42    3.31
   2  -9  -1    6.21    5.86
  -2  -9   1    6.10    3.88
   2  -9   0  242.46   15.44
   2   9   0  238.96   14.37
  -2  -9   0  224.77   13.32
   2  -9   0  238.53   14.28
   2  -9   0  223.81   10.19
   2  -9   0  234.25   10.67
   2  -9   1    7.92    7.64
   2   9   1    3.90    6.06
  -2  -9  -1    7.48    3.86
   2  -9   1    6.71    3.88
   2  -9   2   57.38   10.67
   2   9   2   53.75    7.96
  -2  -9  -2   66.74    9.05
   2  -9   2   62.82    8.11
   2  -9   3  189.46   14.49
   2   9   3  205.21   14.93
  -2  -9  -3  184.95   13.29
   2  -9   3  196.17   17.06
   2  -9   4 1082.77   41.66
   2   9   4 1095.72   49.32
   2  -9   4 1290.48   47.22
  -2  -9  -4 1076.05   40.99
   2  -9   5  283.07   17.76
   2   9   5  278.31   17.71
   2  -9   5  286.16   16.75
  -2  -9  -5  295.57   17.85
   2  -9   6   59.33    7.55
   2   9   6   53.10    9.94
   2  -9   6   58.85    6.46
  -2  -9  -6   50.89    6.40
   2  -9   7  164.14   15.29
   2   9   7  162.78   16.66
   2  -9   7  153.47   12.92
  -2  -9  -7  159.66   15.91
   2  -9   8  334.04   22.15
   2   9   8  365.56   16.02
  -2  -9  -8  325.75   14.24
   2  -9   9  262.16   23.04
   2   9   9  256.85   22.20
   2  -9   9  261.49   23.23
  -2  -9  -9  265.44   26.62
   2  -9  10    8.42    4.00
   2   9  10    2.31    2.96
   2  -9  10    5.51    4.44
  -2  -9 -10    3.10    2.11
   2  -9  11    2.02    2.87
   2   9  11    1.65    3.17
   2  -9  11    1.11    2.34
  -2  -9 -11    0.59    3.39
   2  -9  12   22.78   10.97
   2   9  12   26.21    6.54
   2  -9  12   21.01    3.40
  -2  -9 -12   24.26   12.43
   2  -9  13   22.95   15.87
   2   9  13   29.36   14.05
  -2  -9 -13   18.47    7.98
   2  -9  14   16.41   11.22
   2   9  14    9.41   12.95
  -2  -9 -14   10.82   12.07
   2  -9  15  142.48   14.79
   2   9  15  159.70   16.56
  -2  -9 -15  139.86   14.61
  -2  -9 -16  106.51   12.90
   2 -10 -17    6.66    8.74
   2 -10 -16   71.21   10.66
   2 -10 -15   54.32   14.34
  -2 -10  15   51.40   10.26
   2 -10 -14   40.13   18.70
  -2 -10  14   38.67    4.81
  -2  10  13  217.31   10.14
   2  10 -13  214.82   10.51
   2 -10 -13  215.37   13.31
  -2 -10  13  213.81    9.14
  -2  10  12  141.33   15.83
   2  10 -12  147.83   16.30
   2 -10 -12  156.39   13.78
  -2 -10  12  161.86   11.07
  -2  10  11  117.96   11.24
   2  10 -11  115.41   13.28
  -2 -10  11  135.78   12.42
   2 -10 -11  140.80   14.86
  -2 -10  11  132.50   15.54
  -2  10  10   78.62    9.37
   2  10 -10   79.01    9.86
  -2 -10  10   80.22    9.80
   2 -10 -10   81.43   21.60
  -2 -10  10   75.12    8.24
  -2  10   9    3.99    3.91
   2  10  -9    3.38    3.74
  -2 -10   9    2.51    2.58
   2 -10  -9    2.74    2.86
  -2 -10   9    1.34    2.21
  -2  10   8   12.95   10.27
   2  10  -8   15.39    9.55
  -2 -10   8   22.98   14.33
   2 -10  -8   24.80   14.03
  -2 -10   8   26.05    3.76
  -2  10   7   53.50    8.62
   2  10  -7   54.88   13.56
  -2 -10   7   39.21   16.88
   2 -10  -7   41.35    8.66
  -2 -10   7   43.75    6.95
  -2  10   6    2.02    4.01
   2  10  -6    0.10    2.84
  -2 -10   6    1.06    3.01
   2 -10  -6    1.84    2.34
  -2 -10   6    1.66    2.23
   2  10  -5   22.69   12.04
  -2  10   5   22.11   10.43
  -2 -10   5   47.23   24.61
   2 -10  -5   21.05   11.31
  -2 -10   5   19.01    6.99
   2  10  -4  157.82   15.51
  -2  10   4  144.08   13.41
  -2 -10   4  209.12   20.99
   2 -10  -4  159.62   15.18
  -2 -10   4  191.62   15.24
   2  10  -3  172.37   15.48
  -2  10   3  150.05   13.91
  -2 -10   3  155.22   17.08
   2 -10  -3  160.42   15.04
  -2 -10   3  165.97   14.06
   2  10  -2   18.67    8.37
  -2  10   2   26.37   12.78
  -2 -10   2   16.00    6.88
   2 -10  -2   18.80    9.19
  -2 -10   2   16.74    3.27
   2  10  -1  609.92   25.44
  -2  10   1  580.02   24.76
  -2 -10   1  533.46   22.16
   2 -10  -1  513.31   22.01
  -2 -10   1  555.12   22.06
   2  10   0  871.12   41.91
  -2  10   0  831.25   35.04
  -2 -10   0  854.51   33.54
   2 -10   0  840.02   33.83
   2 -10   0  839.47   27.61
   2 -10   1  452.02   28.50
   2  10   1  553.26   25.13
  -2 -10  -1  606.42   24.98
   2 -10   1  579.39   24.48
   2 -10   2   21.23    9.57
   2  10   2   23.59    8.91
  -2 -10  -2   33.35   11.78
   2 -10   2   19.61   10.59
   2 -10   3  168.10   15.37
   2  10   3  161.60   15.79
  -2 -10  -3  166.79   16.72
   2 -10   3  168.81   14.97
   2 -10   4  156.91   18.43
   2  10   4  192.13   21.89
   2 -10   4  167.58   15.01
  -2 -10  -4  168.43   15.31
   2 -10   5   26.03   11.85
   2  10   5   25.49   12.48
   2 -10   5   26.00    4.23
  -2 -10  -5   26.44   11.27
   2 -10   6    1.35    2.58
   2  10   6    1.65    4.32
   2 -10   6    1.59    3.97
  -2 -10  -6    0.96    4.31
   2 -10   7   52.50    8.87
   2  10   7   41.69    7.46
   2 -10   7   43.98    7.98
  -2 -10  -7   53.83    9.74
   2 -10   8   12.59    5.22
   2  10   8   27.24   15.59
   2 -10   8   27.09   19.14
  -2 -10  -8   17.19   12.87
   2 -10   9    4.03    3.89
   2  10   9    2.81    3.88
   2 -10   9    4.46    2.77
  -2 -10  -9    4.30    3.15
   2 -10  10   79.69   10.72
   2  10  10   84.15   10.75
   2 -10  10   78.03    8.96
  -2 -10 -10   82.72   10.30
   2 -10  11  117.10   12.23
   2  10  11  141.36   14.02
   2 -10  11  120.40   10.69
  -2 -10 -11  118.88   12.73
   2 -10  12  149.33   10.86
   2  10  12  144.74   16.78
   2 -10  12  131.74   16.76
  -2 -10 -12  141.77   16.63
   2 -10  13  221.40   13.38
   2  10  13  220.50   11.00
  -2 -10 -13  220.49   16.55
   2 -10  14   41.11    5.80
   2  10  14   46.48    7.33
  -2 -10 -14   49.35   10.11
   2 -10  15   43.20   10.95
   2  10  15   48.98   11.30
  -2 -10 -15   53.54    7.51
  -2 -10 -16   53.91   13.19
   2 -11 -16   28.71   11.85
   2 -11 -15  108.80   13.50
   2 -11 -14   33.58   24.64
  -2 -11  14   35.62    5.88
  -2  11  13   31.99    4.94
   2  11 -13   29.70   14.63
   2 -11 -13   38.88   14.04
  -2 -11  13   32.69    9.51
  -2  11  12  118.04    8.16
   2  11 -12  126.56    8.47
  -2 -11  12  116.64    7.91
   2 -11 -12  117.97   10.03
  -2  11  11   57.04    7.23
   2  11 -11   55.76    5.76
  -2 -11  11   68.96    6.66
   2 -11 -11   69.07   10.33
  -2 -11  11   56.51    5.43
  -2  11  10   76.11    8.17
   2  11 -10   79.75    9.86
  -2 -11  10   78.35    9.98
   2 -11 -10   71.31   11.82
  -2 -11  10   72.97    7.06
  -2  11   9  350.87   36.64
   2  11  -9  378.63   23.40
  -2 -11   9  374.54   24.35
   2 -11  -9  368.90   26.73
  -2 -11   9  372.65   25.59
  -2  11   8   34.47   14.96
   2  11  -8   26.97   12.52
  -2 -11   8   50.08    5.34
   2 -11  -8   49.75   16.85
  -2 -11   8   48.12    4.23
  -2  11   7  112.75   12.63
   2  11  -7  109.78   13.10
  -2 -11   7  104.35   10.78
   2 -11  -7  110.68   13.04
  -2 -11   7  109.06   10.75
  -2  11   6   13.58    7.58
   2  11  -6   15.92    8.00
  -2 -11   6   14.98    7.00
   2 -11  -6   16.08    9.76
  -2 -11   6   14.33    4.11
   2  11  -5   42.86   11.10
  -2  11   5   35.66    9.44
   2 -11  -5   55.91   11.62
  -2 -11   5   50.83    8.12
   2  11  -4   55.37    9.62
  -2  11   4   56.10    9.05
  -2 -11   4   42.31    8.65
   2 -11  -4   38.68    8.17
  -2 -11   4   40.39    6.09
   2  11  -3  357.98   16.31
  -2  11   3  338.99   18.66
  -2 -11   3  361.33   15.48
   2 -11  -3  373.59   16.92
  -2 -11   3  377.20   14.86
   2  11  -2  141.29    9.07
  -2  11   2  132.44   12.03
  -2 -11   2  115.41   14.98
   2 -11  -2  131.81   11.94
  -2 -11   2  128.62    6.00
   2  11  -1  242.69   17.89
  -2  11   1  237.02   17.95
  -2 -11   1  206.02   19.75
   2 -11  -1  219.47   20.50
  -2 -11   1  218.46   18.70
   2  11   0  276.34   22.20
  -2  11   0  263.12   18.93
  -2 -11   0  255.04   18.19
   2 -11   0  267.41   18.84
   2  11   1  229.80   17.40
  -2  11  -1  230.10   22.05
  -2 -11  -1  227.51   20.19
   2 -11   1  226.33   16.65
   2  11   2  132.27    8.94
  -2 -11  -2  158.08   10.05
   2 -11   2  135.63    8.42
   2 -11   3  367.58   17.77
   2  11   3  379.33   17.78
   2 -11   3  408.98   19.06
  -2 -11  -3  386.53   17.29
   2 -11   4   53.38    9.13
   2  11   4   39.80    7.37
   2 -11   4   56.77    9.09
  -2 -11  -4   62.59   21.08
   2 -11   5   43.85    8.86
   2  11   5   50.00   11.07
   2 -11   5   43.87    7.23
  -2 -11  -5   42.61    8.92
   2 -11   6   22.26    9.70
   2  11   6   10.68    4.93
   2 -11   6   13.72    8.60
  -2 -11  -6   17.26    9.80
   2 -11   7  108.08   12.44
   2  11   7  102.12   13.26
   2 -11   7  101.50   10.23
  -2 -11  -7  109.04   12.27
   2 -11   8   34.22    5.54
   2  11   8   51.16    6.91
   2 -11   8   46.48    9.53
  -2 -11  -8   34.58   11.32
   2 -11   9  371.57   25.10
   2  11   9  406.18   25.63
   2 -11   9  427.17   25.29
  -2 -11  -9  399.94   27.41
   2 -11  10   77.50   10.32
   2  11  10   80.95    9.54
   2 -11  10   69.46    6.99
  -2 -11 -10   80.74    9.36
   2 -11  11   64.40    7.78
   2  11  11   70.92   17.62
   2 -11  11   58.98    5.72
  -2 -11 -11   64.21    7.34
   2 -11  12  119.34   11.68
   2  11  12  126.18   10.80
   2 -11  12  115.26    7.26
  -2 -11 -12  128.45   10.77
   2 -11  13   35.20   17.43
   2  11  13   27.03   19.84
  -2 -11 -13   29.38   10.92
   2 -11  14   43.08    6.31
   2  11  14   37.79    8.48
  -2 -11 -14   41.98   12.42
  -2 -11 -15  110.50   12.26
  -2 -11 -16   25.02   10.06
   2 -12 -15   10.49   14.42
   2 -12 -14   36.91   18.48
  -2  12  13    1.60    3.35
   2  12 -13    1.29    2.72
   2 -12 -13    2.74    3.32
   2  12 -12    1.02    3.10
  -2 -12  12    3.64    4.13
   2 -12 -12    2.62    4.97
  -2  12  11   42.81   11.28
   2  12 -11   44.01    9.16
  -2 -12  11   44.16    5.66
   2 -12 -11   40.15    8.06
  -2  12  10  176.18   14.62
   2  12 -10  160.61   13.74
  -2 -12  10  164.84   14.37
   2 -12 -10  162.48   16.64
  -2 -12  10  166.70   13.12
  -2  12   9   32.91   19.21
   2  12  -9   36.54    6.73
  -2 -12   9   23.15   15.84
   2 -12  -9   29.42   13.05
  -2 -12   9   25.40    2.96
  -2  12   8   53.75   18.28
   2  12  -8   51.63    8.19
  -2 -12   8   57.20   15.91
   2 -12  -8   49.33   18.02
  -2 -12   8   48.74    4.73
  -2  12   7  124.92   10.94
   2  12  -7  127.47   11.25
  -2 -12   7  134.44   10.88
   2 -12  -7  131.09   11.79
  -2 -12   7  127.56    8.78
  -2  12   6  249.55   15.30
   2  12  -6  261.34   16.32
  -2 -12   6  263.84   15.56
   2 -12  -6  237.25   20.00
  -2 -12   6  226.16   12.43
   2  12  -5  152.74   13.37
  -2  12   5  146.18   12.20
   2 -12  -5  159.64   17.05
  -2 -12   5  159.92   13.59
   2  12  -4   45.81    8.50
  -2  12   4   53.13    6.61
  -2 -12   4   43.27    6.52
   2 -12  -4   38.02    7.26
  -2 -12   4   36.60    3.95
   2  12  -3  107.37   14.52
  -2  12   3  113.04   11.54
  -2 -12   3   94.00   10.11
   2 -12  -3   88.78   14.75
  -2 -12   3   84.41    5.31
   2  12  -2  181.07   17.10
  -2  12   2  182.70   19.44
  -2 -12   2  181.57   16.53
   2 -12  -2  188.50   19.94
  -2 -12   2  189.19   17.29
   2  12  -1   31.65    5.13
  -2  12   1   40.27    7.31
  -2 -12   1   34.59   17.38
   2 -12  -1   33.33    6.46
  -2 -12   1   39.80    3.50
  -2  12   0   -0.35    4.12
   2  12   1   39.98   17.19
  -2  12  -1   41.48    7.40
  -2 -12  -1   38.12    6.01
   2 -12   1   41.86   16.98
   2  12   2  183.20   20.97
  -2  12  -2  209.01   20.44
  -2 -12  -2  198.54   18.46
   2 -12   2  184.90   16.73
   2  12   3   90.80    9.74
  -2  12  -3  109.49   11.87
   2 -12   3  153.78   14.97
  -2 -12  -3  138.56   35.13
   2  12   4   40.97   18.80
  -2  12  -4   38.08   13.38
   2 -12   4   54.39    6.96
  -2 -12  -4   47.29   17.05
   2 -12   5  138.06   12.56
   2  12   5  168.18   16.17
   2 -12   5  130.23   16.92
  -2 -12  -5  144.43   14.99
   2 -12   6  261.57   18.93
   2  12   6  236.40   16.06
   2 -12   6  234.05   16.12
  -2 -12  -6  256.18   20.92
   2 -12   7  131.35   13.30
   2  12   7  120.01   15.32
   2 -12   7  117.68    9.11
  -2 -12  -7  123.80   11.16
   2 -12   8   49.83    9.31
   2  12   8   46.92   10.27
   2 -12   8   66.24   12.80
  -2 -12  -8   48.55    8.71
   2 -12   9   41.75   20.29
   2  12   9   35.94   14.28
   2 -12   9   51.75   17.45
  -2 -12  -9   31.97   10.08
   2 -12  10  168.00   15.80
   2  12  10  233.40   19.32
   2 -12  10  160.31   15.60
  -2 -12 -10  171.39   15.35
   2 -12  11   31.81   10.19
   2  12  11   38.59   19.96
   2 -12  11   37.00   16.14
  -2 -12 -11   37.56   15.59
   2 -12  12    2.67    6.80
   2  12  12    2.49    4.74
   2 -12  12    2.52    4.19
  -2 -12 -12    0.63    2.46
   2 -12  13    2.07    1.58
   2  12  13    0.88    1.97
  -2 -12 -13   -0.96    3.69
   2  12  14   30.93   15.75
  -2 -12 -14   36.69   17.78
  -2  12 -15   10.73   10.29
  -2 -12 -15    8.56    8.55
   2 -13 -14   17.47   19.97
   2  13 -13   24.57   11.68
  -2 -13  13   39.26    8.46
   2 -13 -13   40.08   14.10
  -2  13  12    5.62   11.52
   2  13 -12    8.56    9.87
  -2 -13  12   11.80   10.92
   2 -13 -12   10.23   13.03
  -2  13  11   81.53   15.74
   2  13 -11   77.04   14.81
  -2 -13  11   98.10    9.34
   2 -13 -11   89.18   15.42
  -2  13  10  106.17    9.52
   2  13 -10   75.78   10.51
  -2 -13  10   73.65   11.60
   2 -13 -10   75.58    9.84
  -2  13   9  100.37    8.82
   2  13  -9   98.34    8.87
  -2 -13   9  101.93    9.03
   2 -13  -9  102.10   15.28
  -2  13   8   33.37   17.37
   2  13  -8   27.32   19.12
  -2 -13   8   30.28   22.70
   2 -13  -8   30.21   14.55
  -2  13   7  128.23   20.50
   2  13  -7  125.10   20.38
  -2 -13   7  125.31   15.26
   2 -13  -7  124.42   15.90
  -2  13   6  228.79   20.01
   2  13  -6  235.39   20.91
  -2 -13   6  314.28   25.84
   2 -13  -6  265.51   23.66
   2  13  -5  198.74   20.12
  -2  13   5  209.50   19.88
  -2 -13   5  427.22   45.16
   2 -13  -5  175.98   17.14
   2  13  -4    1.90    2.51
  -2  13   4    3.41    2.90
  -2 -13   4    3.44    4.14
   2 -13  -4    0.36    4.96
  -2 -13   4    2.00    2.19
   2  13  -3  273.46   19.58
  -2  13   3  253.38   25.46
  -2 -13   3  245.75   17.05
   2 -13  -3  261.99   20.86
  -2 -13   3  245.50   14.84
   2  13  -2  105.52   12.35
  -2  13   2  105.74   12.27
  -2 -13   2   95.56   16.59
   2 -13  -2   97.76   13.44
  -2 -13   2   98.99   10.18
   2  13  -1  108.93   15.39
  -2  13   1  120.97   23.63
  -2 -13   1  109.38   12.11
   2 -13  -1  119.40   13.29
  -2 -13   1  107.20   10.01
   2  13   0    7.74    5.71
  -2  13   0    6.72    4.49
  -2 -13   0    7.81    6.05
   2 -13   0    6.93    5.24
  -2 -13   0    5.81    4.45
   2  13   1  107.13   15.17
  -2  13  -1  120.45   13.99
  -2 -13  -1  101.16   12.03
   2 -13   1  132.40   12.79
   2  13   2  101.09   13.85
  -2  13  -2   96.17   17.14
  -2 -13  -2  103.40   13.52
   2 -13   2  109.39   12.21
   2  13   3  250.27   22.06
  -2  13  -3  290.99   21.18
   2 -13   3  276.39   21.70
  -2 -13  -3  282.19   21.85
   2  13   4    3.24    3.40
  -2  13  -4    2.74    3.59
   2 -13   4    2.58    3.44
  -2 -13  -4    3.39    4.41
   2  13   5  170.45   18.70
  -2  13  -5  159.58   16.62
   2 -13   5  196.61   22.01
  -2 -13  -5  228.13   21.12
   2  13   6  273.24   23.13
  -2  13  -6  252.15   21.97
   2 -13   6  226.71   20.71
  -2 -13  -6  242.89   21.04
   2  13   7  120.59   14.89
  -2  13  -7  121.08   15.39
   2 -13   7  114.59   13.86
  -2 -13  -7  121.44   18.80
   2  13   8   29.07   23.74
  -2  13  -8   32.16   18.15
   2 -13   8   47.25   19.25
  -2 -13  -8   23.59   19.82
   2  13   9   97.35   26.17
  -2  13  -9   88.49   18.38
   2 -13   9  116.37   18.62
  -2 -13  -9   94.82   11.61
   2  13  10   82.88    8.47
  -2  13 -10   70.81    8.34
   2 -13  10   88.96    8.12
  -2 -13 -10   78.26    7.88
   2  13  11   90.88   21.29
  -2  13 -11   90.03    8.38
   2 -13  11   83.43    7.12
  -2 -13 -11   75.27    7.80
   2  13  12    9.01    4.94
  -2  13 -12    7.26    8.41
  -2 -13 -12    8.42    8.24
   2  13  13   35.53    6.70
  -2  13 -13   26.86   22.27
  -2 -13 -13   30.08   18.72
   2  13  14   13.45   17.64
  -2  13 -14   22.92    5.61
  -2 -13 -14   20.48   12.43
   2  14 -13   24.09   10.44
  -2 -14  13   19.51   15.80
   2 -14 -13   19.60   25.52
  -2  14  12   73.26    7.68
   2  14 -12   73.09    7.41
  -2 -14  12   83.00    7.95
   2 -14 -12   77.48   13.16
  -2  14  11   57.88    8.94
   2  14 -11   48.11   16.96
  -2 -14  11   43.02   21.24
   2 -14 -11   63.38   10.28
  -2  14  10   36.02   14.56
   2  14 -10   32.96    5.33
  -2 -14  10   31.98   19.68
   2 -14 -10   39.83   10.86
  -2  14   9   22.27   18.41
   2  14  -9   22.97    9.38
  -2 -14   9   28.88   11.55
   2 -14  -9   31.71   27.85
  -2  14   8    9.13    8.11
   2  14  -8   10.59    8.40
  -2 -14   8    9.04    6.63
   2 -14  -8    9.31    5.71
  -2  14   7    6.17    4.52
   2  14  -7    7.25    8.45
  -2 -14   7    5.99    4.97
   2 -14  -7    6.44    6.82
  -2  14   6   30.81   16.54
   2  14  -6   28.01    9.91
  -2 -14   6   37.65   18.87
   2 -14  -6   26.45   15.67
   2  14  -5   50.21   18.38
  -2  14   5   54.69   10.54
  -2 -14   5  109.14   32.24
   2 -14  -5   44.44   23.37
   2  14  -4   40.76   18.32
  -2  14   4   34.78   16.25
  -2 -14   4   38.14   19.32
   2 -14  -4   32.33   18.77
   2  14  -3   55.99   21.82
  -2  14   3   70.40    9.39
  -2 -14   3   53.12    9.93
   2 -14  -3   59.74    8.97
   2  14  -2   37.38   22.06
  -2  14   2   43.69   19.60
  -2 -14   2   38.10    7.67
   2 -14  -2   37.53   22.11
   2  14  -1   91.01   12.53
  -2  14   1  103.13   12.08
  -2 -14   1   74.28   11.00
   2 -14  -1   84.07   13.69
   2  14   0  315.32   26.08
  -2  14   0  274.76   38.35
  -2 -14   0  275.83   22.77
   2 -14   0  302.84   25.00
   2  14   1   86.37   10.48
  -2  14  -1   91.90   11.80
  -2 -14  -1   91.94   10.45
   2 -14   1  108.83   11.97
   2  14   2   36.39   19.64
  -2  14  -2   36.55   12.47
  -2 -14  -2   35.64   11.90
   2 -14   2   43.40   23.48
   2  14   3   56.97    7.77
  -2  14  -3   54.77   11.62
  -2 -14  -3   61.95   12.11
   2 -14   3   64.11    7.25
   2  14   4   31.57   14.17
  -2  14  -4   32.08   21.95
   2 -14   4   34.42   18.53
  -2 -14  -4   36.65   18.12
   2  14   5   46.20   25.78
  -2  14  -5   51.04    8.58
   2 -14   5   50.57    7.05
  -2 -14  -5   56.18   21.80
   2  14   6   29.27   12.46
  -2  14  -6   32.65   21.41
   2 -14   6   31.14   10.16
  -2 -14  -6   33.05   20.62
   2  14   7    3.47    3.76
  -2  14  -7    5.48    5.39
   2 -14   7    5.03    3.74
  -2 -14  -7    5.90    5.15
   2  14   8    9.06    8.53
  -2  14  -8    6.14    4.75
   2 -14   8   15.55    8.88
  -2 -14  -8    8.16    6.28
   2  14   9   21.80   19.20
  -2  14  -9   22.97   19.23
   2 -14   9   32.23   12.11
  -2 -14  -9   19.06   14.41
   2  14  10   32.68   17.07
  -2  14 -10   41.24    8.88
   2 -14  10   39.00   19.07
  -2 -14 -10   39.15   18.98
   2  14  11   54.40   11.03
  -2  14 -11   53.88    8.75
   2 -14  11   47.15    7.15
  -2 -14 -11   41.16   18.67
   2  14  12   87.76   16.01
  -2  14 -12   71.63    8.31
  -2 -14 -12   72.03   14.33
   2  14  13   16.49   19.61
  -2  14 -13   21.54   10.62
  -2 -14 -13   29.42   16.06
  -2  15  12   20.86   13.96
   2  15 -12   21.56   11.49
  -2 -15  12   22.69   15.41
   2 -15 -12   32.20    9.67
  -2  15  11   62.96   11.66
   2  15 -11   63.36    8.56
  -2 -15  11   77.65    9.60
   2 -15 -11   87.57   11.87
  -2  15  10   18.48   13.37
   2  15 -10   10.61   13.65
  -2 -15  10   15.00    8.13
   2 -15 -10   13.61   16.72
  -2  15   9    5.31    5.30
   2  15  -9    3.53    2.68
  -2 -15   9    4.01    5.55
   2 -15  -9    8.49    7.82
  -2  15   8   24.98   12.28
   2  15  -8   25.35    9.41
  -2 -15   8   24.02   16.47
   2 -15  -8   31.02   11.24
  -2  15   7   41.02   18.42
   2  15  -7   31.23   24.73
  -2 -15   7   41.25   22.25
   2 -15  -7   45.52   27.02
  -2  15   6   74.74    9.89
   2  15  -6   74.13    8.31
  -2 -15   6   82.85   10.48
   2 -15  -6   66.14   19.01
   2  15  -5   97.88   18.84
  -2  15   5  108.83   13.05
   2 -15  -5   97.20   10.83
   2  15  -4   47.34    7.27
  -2  15   4   45.71   21.62
  -2 -15   4   70.28   18.65
   2 -15  -4   63.56    8.21
   2  15  -3   46.13    8.26
  -2  15   3   45.50   13.14
  -2 -15   3   46.33    6.34
   2 -15  -3   44.37   16.79
   2  15  -2   26.19   18.56
  -2  15   2   22.23   18.09
  -2 -15   2   19.48    6.67
   2 -15  -2   18.11   12.48
   2  15  -1   73.83   10.52
  -2  15   1   76.11   12.75
  -2 -15   1   58.49    6.99
   2 -15  -1   65.88   11.62
   2  15   0  141.12   14.47
  -2  15   0  137.07   15.79
  -2 -15   0  129.07   37.82
   2 -15   0  146.11   12.99
   2  15   1   62.49    9.57
  -2  15  -1   64.06    8.86
  -2 -15  -1   69.32   28.52
   2 -15   1   83.87    9.92
   2  15   2   15.27   14.30
  -2  15  -2   19.04   13.88
  -2 -15  -2   23.62    9.92
   2 -15   2   27.26    6.20
   2  15   3   51.50    7.41
  -2  15  -3   41.92   13.94
  -2 -15  -3   37.68   18.86
   2 -15   3   48.99    7.40
   2  15   4   57.31    7.41
  -2  15  -4   61.11   11.29
   2 -15   4   53.46   25.45
   2  15   5  108.85    9.94
  -2  15  -5  127.21   11.42
   2 -15   5  109.17    8.25
  -2 -15  -5  124.91   11.30
   2  15   6   80.27    9.31
  -2  15  -6   75.12    9.04
   2 -15   6   70.51    6.87
  -2 -15  -6   88.29   22.32
   2  15   7   43.12    8.37
  -2  15  -7   34.05   22.18
   2 -15   7   44.19    6.43
  -2 -15  -7   53.10   10.29
   2  15   8   21.60   13.97
  -2  15  -8   27.75   22.46
   2 -15   8   45.42   23.13
  -2 -15  -8   33.04   19.56
   2  15   9    4.74    4.13
  -2  15  -9    4.59    5.04
   2 -15   9    2.88    3.95
  -2 -15  -9    6.72    8.08
   2  15  10   12.29   10.23
  -2  15 -10   13.74   15.52
   2 -15  10   17.39    7.38
  -2 -15 -10   12.23   12.69
   2  15  11   79.31   10.90
  -2  15 -11   77.59   10.79
   2 -15  11   50.89   10.21
  -2 -15 -11   65.48    9.90
   2  15  12   25.27   24.96
  -2  15 -12   28.02   14.04
  -2 -15 -12   19.81   22.99
  -2  16  10    5.39    2.97
   2  16 -10    4.02    4.63
  -2 -16  10    2.88    2.89
   2 -16 -10    0.90    3.95
  -2  16   9   41.38   12.49
   2  16  -9   38.78   17.29
  -2 -16   9   36.18    5.97
   2 -16  -9   34.63   28.42
  -2  16   8  126.75   11.17
  -2 -16   8  123.22   10.11
   2 -16  -8  121.66   10.76
  -2  16   7   16.62   17.92
   2  16  -7   24.67    7.97
  -2 -16   7   26.36   14.60
   2 -16  -7   28.72   24.34
  -2  16   6    1.34    2.95
   2  16  -6    1.87    4.28
  -2 -16   6    1.60    5.05
   2 -16  -6    1.52    4.31
   2  16  -5   16.70   12.47
  -2  16   5   19.75   15.15
  -2 -16   5   66.20   44.58
   2 -16  -5   24.28   23.59
   2  16  -4  127.73   20.53
  -2  16   4  112.82   20.05
  -2 -16   4  164.30   23.78
   2 -16  -4  110.02   20.27
   2  16  -3   22.43   10.28
  -2  16   3   18.24   17.79
  -2 -16   3   22.14   12.29
   2 -16  -3   21.20   18.25
   2  16  -2    2.23    5.07
  -2  16   2    4.60    3.82
  -2 -16   2    3.04    3.08
   2 -16  -2    3.84    4.15
   2  16  -1   13.90   15.12
  -2  16   1   17.21   10.05
  -2 -16   1   20.27    8.50
   2 -16  -1   11.92   10.77
   2  16   0   24.15   16.60
  -2  16   0   24.50   22.08
  -2 -16   0   23.26   13.06
   2 -16   0   18.14   24.13
   2  16   1   21.41   16.99
  -2  16  -1   17.50   11.78
  -2 -16  -1   16.86    8.18
   2 -16   1   13.14   12.17
   2  16   2    2.96    4.52
  -2  16  -2    3.04    4.05
  -2 -16  -2    3.80    4.13
   2 -16   2    2.63    5.98
   2  16   3   24.48   15.37
  -2  16  -3   18.33   19.10
   2 -16   3   14.31   17.62
  -2 -16  -3   22.37   15.11
   2  16   4  133.03   15.14
  -2  16  -4  139.49   15.91
   2 -16   4  105.20   15.33
  -2 -16  -4  117.06   10.35
   2  16   5   26.65    7.44
  -2  16  -5   27.41    7.51
   2 -16   5   18.95   14.08
  -2 -16  -5   14.13   18.67
   2  16   6    0.56    2.91
  -2  16  -6    1.93    2.74
   2 -16   6    1.05    3.01
  -2 -16  -6    2.65    3.95
   2  16   7   26.69   19.96
  -2  16  -7   26.15   14.22
   2 -16   7   26.55   17.61
  -2 -16  -7   23.04   24.37
   2  16   8  114.99   13.76
  -2  16  -8  116.16   15.15
   2 -16   8  277.32   40.36
  -2 -16  -8  153.96   13.25
   2  16   9   35.31   16.47
  -2  16  -9   35.49   16.62
   2 -16   9   48.47   16.64
  -2 -16  -9   42.72   18.93
   2  16  10    3.53    4.34
  -2  16 -10    0.28    4.62
   2 -16  10    2.83    2.53
  -2 -16 -10    1.44    4.04
  -2  17   8   27.04   26.29
   2  17  -8   33.84   13.99
  -2 -17   8   34.96   16.33
   2 -17  -8   41.44   10.70
  -2  17   7   13.22   18.10
   2  17  -7   12.34    9.64
  -2 -17   7   19.53   11.89
   2 -17  -7   11.01   14.25
  -2  17   6   23.15   24.80
   2  17  -6   35.72    8.06
  -2 -17   6   33.90   14.77
   2 -17  -6   35.58    8.73
   2  17  -5   53.11    8.04
  -2  17   5   47.09   11.80
  -2 -17   5   77.50   35.54
   2 -17  -5   34.20   27.47
   2  17  -4   38.63   27.81
  -2  17   4   52.59   11.12
  -2 -17   4   47.58   19.89
   2 -17  -4   28.54   26.10
   2  17  -3   16.66    7.10
  -2  17   3   17.96   19.47
  -2 -17   3   27.44   13.34
   2 -17  -3   22.64   21.07
   2  17  -2   27.69   22.03
  -2  17   2   30.69   11.58
  -2 -17   2   32.56   15.89
   2 -17  -2   24.62   16.78
   2  17  -1   32.72   18.98
  -2  17   1   32.53   12.30
  -2 -17   1   30.10   17.55
   2 -17  -1   25.73   19.10
   2  17   0   64.83   12.82
  -2  17   0   74.79    9.36
  -2 -17   0   62.69    7.55
   2 -17   0   75.57   17.35
   2  17   1   22.13   24.80
  -2  17  -1   18.31   25.71
  -2 -17  -1   26.72   13.40
   2 -17   1   22.24   18.07
   2  17   2   23.23   20.25
  -2  17  -2   29.77   10.66
  -2 -17  -2   32.93   20.23
   2 -17   2   29.10   18.75
   2  17   3   20.25   21.69
  -2  17  -3   25.05   18.32
   2 -17   3   16.31   10.67
  -2 -17  -3   14.13   13.00
   2  17   4   29.57    6.20
  -2  17  -4   29.15    5.94
   2 -17   4   41.23   17.08
  -2 -17  -4   41.58   16.88
   2  17   5   36.20   15.92
  -2  17  -5   36.94   18.44
   2 -17   5   36.49    9.09
  -2 -17  -5   40.02    9.03
   2  17   6   31.50    9.64
  -2  17  -6   26.37   13.56
   2 -17   6   29.78   17.99
  -2 -17  -6   32.50    9.05
   2  17   7   18.54   14.61
  -2  17  -7   13.10   22.90
   2 -17   7   17.78    9.86
  -2 -17  -7   16.24   15.66
   2  17   8   47.53    9.43
  -2  17  -8   29.33   17.73
   2 -17   8  232.91  104.46
  -2 -17  -8   35.32   15.76
   2  18  -5    9.66    8.43
  -2  18   5    5.53    9.78
  -2 -18   5   20.09   11.53
   2 -18  -5    7.35    8.23
   2  18  -4   -0.30    4.01
  -2  18   4   -0.01    4.93
  -2 -18   4   10.82   13.14
   2 -18  -4    1.25    3.03
   2  18  -3   11.32   14.60
  -2  18   3   14.37   12.08
  -2 -18   3   18.51    9.67
   2 -18  -3   13.38   17.17
   2  18  -2    8.38   15.28
  -2  18   2   10.27    6.33
  -2 -18   2    9.28    9.31
   2 -18  -2   10.99   13.26
   2  18  -1   73.10   19.31
  -2  18   1   79.83   12.58
  -2 -18   1   68.82   28.60
   2 -18  -1   91.31   12.55
   2  18   0   10.69   17.45
  -2  18   0   21.12   24.00
   2 -18   0   17.93   18.59
   2  18   1   93.37   12.57
  -2  18  -1   82.83   11.87
  -2 -18  -1   80.30   10.50
   2 -18   1   72.05    9.60
   2  18   2    9.46    8.68
  -2  18  -2    8.49    9.09
  -2 -18  -2   13.45   12.50
   2 -18   2   11.21    8.96
   2  18   3    9.34   14.53
  -2  18  -3   10.81   16.12
   2 -18   3   13.91    8.95
  -2 -18  -3   15.93   15.91
   2  18   4    1.24    3.26
  -2  18  -4    1.69    4.91
   2 -18   4    5.34    3.94
  -2 -18  -4    2.80    2.59
  -2  18  -5    8.32    9.66
   2 -18   5    8.06    5.13
  -2 -18  -5   11.91   15.05
   3   0 -19   38.06   19.04
   3   0 -18   46.31    7.37
   3   0 -17  113.35   10.20
   3   0 -16    4.97    5.73
   3   0 -15    7.30    8.66
   3   0 -14  481.56   24.53
  -3   0  14  472.65   23.39
   3   0 -13    0.12    4.11
  -3   0  13    1.76    3.72
   3   0 -12    1.19    2.04
  -3   0  12   -0.53    4.17
   3   0 -11   87.69   10.90
  -3   0  11   96.87   11.45
   3   0 -10  687.07   15.53
  -3   0  10  685.99   23.62
   3   0  -9   17.24    8.97
  -3   0   9   16.43    3.35
  -3   0   8   31.76    3.94
  -3   0   7  285.64   13.46
  -3   0   6  262.07   12.33
   3   0  -5 2522.51   25.54
  -3   0   5 2603.24   26.02
  -3   0   5 2628.78   31.82
   3   0  -4  478.42   13.23
  -3   0   4  468.94   12.90
  -3   0   4  484.35   14.77
   3   0  -3    7.29    1.93
  -3   0   3    7.13    1.81
  -3   0   3    6.41    4.27
   3   0  -2   25.00    3.37
  -3   0   2   23.97    2.94
  -3   0   2   26.46    3.40
   3   0  -1  108.56    7.16
  -3   0   1  103.29    5.85
   3   0   0    0.54    2.52
   3   0   1  110.56    7.03
   3   0   2   27.65    4.77
   3   0   2   25.86    2.62
   3   0   3    7.98    4.69
   3   0   3   10.72    2.18
   3   0   4  478.33   15.49
   3   0   5 2602.78   32.64
   3   0   6  261.06   13.02
  -3   0  -6  252.78   10.01
   3   0   7  435.47   18.26
  -3   0  -7  412.52   14.16
   3   0   8   34.87    4.68
  -3   0  -8   28.56    2.49
   3   0   9   18.21    9.10
  -3   0  -9   14.95    3.68
   3   0  10  726.09   23.09
  -3   0 -10  707.72   19.29
   3   0  11   95.65   10.75
  -3   0 -11   93.21    9.92
  -3   0 -12    0.55    1.31
   3   0  13    0.74    2.81
  -3   0 -13    0.59    1.21
   3   0  14  465.97   24.70
   3   0  15    6.92    8.32
   3  -1 -19    0.41    2.01
   3  -1 -18  168.64   25.71
   3   1 -18  197.23   19.01
   3  -1 -17   17.17    9.10
   3   1 -17   18.23   16.56
   3  -1 -16  172.18   15.03
   3   1 -16  174.94   14.75
   3  -1 -15   48.88    8.07
   3   1 -15   49.32    9.87
  -3  -1  15   46.68    6.03
   3  -1 -14   28.05   17.11
   3   1 -14   28.40   16.87
  -3  -1  14   24.50   11.15
   3  -1 -13  231.13   25.67
   3   1 -13  207.68   11.52
  -3   1  13  149.23    9.25
  -3  -1  13  234.36   14.61
   3  -1 -12  441.20   26.86
   3   1 -12  514.12   28.69
  -3   1  12  432.54   26.25
  -3  -1  12  458.97   26.71
   3  -1 -11  248.49   16.11
  -3   1  11  218.07   16.14
  -3  -1  11  220.21   18.24
   3  -1 -10  369.37   12.06
  -3   1  10  374.05   11.66
  -3  -1  10  382.57   12.72
   3  -1  -9    9.93    5.45
  -3   1   9   13.76    7.86
  -3  -1   9    7.36    5.16
   3  -1  -8  208.23   11.43
  -3   1   8  257.67   14.98
  -3  -1   8  206.10   10.50
   3  -1  -7   91.75    6.76
  -3   1   7  113.04    7.46
  -3  -1   7   99.20    7.05
   3   1  -6  922.98   10.19
  -3   1   6  902.41    9.97
   3   1  -6  910.42   10.15
  -3   1   6  935.76   10.06
   3  -1  -6  883.63   16.72
  -3   1   6  955.22   17.43
  -3  -1   6  878.28   18.03
   3  -1  -5  400.61   11.36
  -3   1   5  378.71   10.86
   3   1  -5  360.31   10.14
  -3  -1   5  391.93   10.79
   3  -1  -5  392.10   13.76
  -3   1   5  376.80   12.26
  -3  -1   5  411.67   13.26
   3  -1  -4  781.92   10.87
  -3   1   4  740.12   20.23
   3   1  -4  711.79   19.31
  -3  -1   4  790.74    9.94
   3  -1  -4  811.30   14.80
  -3   1   4  769.56   12.18
  -3  -1   4  750.58   22.61
   3  -1  -3  504.91   14.24
  -3   1   3  532.95   14.98
   3   1  -3  519.48   14.90
  -3  -1   3  478.70   13.47
  -3   1   3  547.89   16.00
  -3  -1   3  495.84   15.90
   3  -1  -2  702.07   19.49
  -3   1   2  714.33   19.94
   3   1  -2  698.24   19.38
  -3  -1   2  677.08   18.75
   3  -1  -2  734.99   23.36
  -3   1   2  734.19   20.32
  -3  -1   2  717.56   20.42
   3  -1  -1 1501.23   18.71
   3   1  -1 1621.46   20.38
   3  -1  -1 1510.71   20.78
   3  -1   0 9999.99  648.44
   3  -1   1 1598.84   20.71
   3   1   1 1478.81   19.82
  -3  -1  -1 1620.57   18.30
   3  -1   1 1594.06   18.76
   3  -1   2  718.87   21.30
   3   1   2  716.94   21.20
  -3  -1  -2  714.76   19.24
   3  -1   3  547.58   17.21
   3   1   3  507.36   15.87
  -3  -1  -3  545.90   14.95
   3   1   3  599.98   16.47
   3  -1   3  550.27   14.77
   3  -1   4  733.89   23.73
   3   1   4  781.36   14.13
  -3  -1  -4  754.07   20.16
   3   1   4  770.32    9.54
   3  -1   5  378.30   13.00
   3   1   5  388.09   13.21
  -3  -1  -5  367.99   10.51
   3   1   5  394.78   11.17
   3  -1   6  962.22   16.72
   3   1   6  890.27   16.44
  -3  -1  -6  961.75   11.74
   3  -1   7  119.19    9.79
   3   1   7   98.04    7.92
  -3  -1  -7  115.30    5.47
   3   1   7   91.73    4.57
   3  -1   8  262.41   15.62
   3   1   8  211.31   11.77
  -3   1  -8  214.09    8.39
  -3  -1  -8  265.17   11.52
  -3   1  -8  218.56    8.59
   3  -1   9   13.54    8.51
   3   1   9   10.40    5.57
  -3   1  -9    5.68    1.37
  -3  -1  -9   12.37    2.76
  -3   1  -9    7.74    2.01
   3  -1  10  339.01   21.05
   3   1  10  367.13   10.61
   3  -1  11  208.39   15.11
   3   1  11  270.79   16.67
  -3   1 -11  327.67   17.13
  -3  -1 -11  190.96   12.01
  -3   1 -11  212.40   13.35
  -3  -1 -12  450.10   21.07
  -3   1 -12  415.27   18.16
   3  -1  13  192.14   12.63
   3   1  13  246.69   11.09
  -3  -1 -13  182.11    8.12
   3  -1  14   28.46    4.38
   3   1  14   24.51    7.24
   3  -1  15   50.70    6.02
   3   1  15   45.48    6.79
   3  -2 -19   23.71   13.95
   3  -2 -18    4.03    3.19
   3   2 -18    1.92    4.01
   3  -2 -17  174.72   13.09
   3   2 -17  171.79   10.64
   3  -2 -16   90.07   12.60
   3   2 -16  101.45   13.96
   3  -2 -15   82.55   11.88
   3   2 -15   79.49   11.56
  -3  -2  15   81.26   17.21
   3  -2 -14   11.28   10.27
   3   2 -14   11.20    9.25
  -3  -2  14   12.29    8.16
   3  -2 -13   75.24    9.69
  -3  -2  13   83.71    7.40
   3  -2 -12  197.34   22.08
  -3   2  12  183.58   17.15
  -3  -2  12  206.12   20.47
   3  -2 -11  308.57   21.57
  -3   2  11  301.86   19.95
  -3  -2  11  311.64   21.02
   3  -2 -10  135.05   10.97
  -3   2  10  154.06   11.66
  -3  -2  10  128.75   10.70
   3   2  -9  171.87    8.00
   3   2  -9  173.19    8.05
   3  -2  -9  152.67   14.77
  -3   2   9  173.38   10.68
  -3  -2   9  143.70   16.14
   3   2  -8  969.37   18.99
  -3   2   8  979.69   19.18
   3   2  -8 1063.26   20.71
  -3   2   8 1012.11   19.66
   3  -2  -8 1076.31   26.47
  -3   2   8 1039.41   25.84
  -3  -2   8 1041.07   24.49
   3   2  -7  283.38   11.65
   3   2  -7  299.69   12.33
  -3   2   7  283.21   11.63
   3  -2  -7  333.64   15.21
  -3   2   7  298.20   14.19
  -3  -2   7  310.25   35.24
   3   2  -6  923.00   18.47
  -3   2   6  855.83   17.31
   3   2  -6  953.64   19.29
  -3   2   6  921.01   18.67
   3  -2  -6  942.37   23.89
  -3   2   6  900.04   20.52
  -3  -2   6  931.40   21.21
   3  -2  -5  802.14   10.77
  -3   2   5  758.98   21.01
   3   2  -5  798.36   10.81
  -3  -2   5  803.81   11.03
   3  -2  -5  856.81   16.61
  -3   2   5  768.57   12.89
  -3  -2   5  832.06   15.83
   3  -2  -4  874.73   12.31
   3   2  -4  932.24   12.39
   3  -2  -4  887.94   16.46
  -3   2   4  877.50   13.44
  -3  -2   4  879.38   13.73
   3  -2  -3  196.68    8.98
   3   2  -3  234.46   10.92
   3  -2  -3  205.12   11.15
  -3   2   3  216.42    9.96
  -3  -2   3  204.97   11.06
   3  -2  -2 1359.72   19.87
   3   2  -2 1366.74   17.28
   3  -2  -2 1325.84   19.23
  -3   2   2 1303.85   15.78
  -3  -2   2 1292.69   16.70
   3  -2  -1 2016.98   24.49
   3   2  -1 1833.35   22.79
  -3  -2   1 2024.53   23.76
   3  -2  -1 1960.78   24.29
  -3  -2   1 2022.56   23.64
   3  -2   0    8.48    4.91
   3   2   0   10.96    6.44
  -3  -2   0    7.51    5.09
   3  -2   0    7.65    4.79
  -3   2   0    6.36    2.49
   3  -2   1 1747.39   22.75
  -3  -2  -1 1771.43   20.40
   3  -2   1 1786.68   21.18
   3  -2   2 1435.82   20.52
   3   2   2 1427.13   20.14
   3  -2   2 1403.35   17.00
  -3   2  -2 1357.59   16.42
   3  -2   3  205.66   10.53
   3   2   3  214.31   10.95
  -3  -2  -3  216.57    9.40
   3  -2   3  218.83    9.36
  -3   2  -3  196.82    8.51
   3  -2   4  869.61   15.02
   3   2   4  892.65   16.39
  -3  -2  -4  890.15   11.54
  -3   2  -4  863.37   10.50
   3  -2   5  772.21   15.04
   3   2   5  831.27   14.89
   3  -2   5  766.74    8.32
  -3  -2  -5  868.84   12.05
   3  -2   6  916.33   22.50
   3   2   6  951.46   22.46
  -3  -2  -6  932.54   19.14
   3  -2   7  306.72   34.74
   3   2   7  323.26   14.14
  -3  -2  -7  306.06   34.02
  -3   2  -7  298.63   11.76
   3  -2   8 1099.95   26.93
   3   2   8 1046.67   25.32
  -3  -2  -8 1068.91   22.32
  -3   2  -8 1006.14   19.10
  -3   2  -8 1098.91   20.97
   3  -2   9  161.03   16.10
   3   2   9  157.68   13.77
  -3  -2  -9  168.28    5.41
  -3   2  -9  151.25   11.40
   3  -2  10  140.17   14.36
   3   2  10  135.80   11.08
  -3   2 -10  134.97    8.19
  -3  -2 -10  139.03   10.60
  -3   2 -10  122.45    7.68
   3  -2  11  292.66   19.25
   3   2  11  308.76   22.16
  -3   2 -11  270.71   15.75
  -3  -2 -11  312.60   19.01
  -3   2 -11  295.98   17.55
   3  -2  12  173.67   16.08
  -3  -2 -12  180.09   15.34
  -3   2 -12  179.91   13.98
   3  -2  13   54.22    5.98
   3   2  13   83.77    9.75
  -3  -2 -13   53.79    6.34
   3  -2  14   13.71    9.03
   3   2  14   12.16    7.63
  -3  -2 -14   10.77    5.04
   3   2  15   83.58   13.25
   3  -3 -19   16.31   17.81
   3  -3 -18    2.56    4.90
   3   3 -18    1.99    3.99
   3  -3 -17  123.36    9.93
   3   3 -17  123.58    9.85
   3  -3 -16   43.35   12.69
   3   3 -16   50.85   14.62
  -3  -3  16   43.62   19.71
   3  -3 -15  339.05   29.84
  -3  -3  15  382.60   34.93
   3  -3 -14  189.98   15.58
  -3  -3  14  185.85   17.03
   3  -3 -13   35.63   12.57
  -3  -3  13   39.07   15.95
   3  -3 -12 1092.60   39.02
  -3  -3  12 1099.04   46.47
  -3   3  11   20.27    2.56
   3   3 -11   21.90    3.78
   3   3 -11   23.11    1.78
   3  -3 -11   33.38    6.92
  -3   3  11   25.68   10.07
  -3  -3  11   27.21    4.54
  -3   3  10  477.75   16.97
   3   3 -10  383.35   19.46
  -3   3  10  381.25   19.50
   3   3 -10  403.57   20.69
   3  -3 -10  408.01   24.60
  -3   3  10  399.00   22.53
  -3  -3  10  408.42   22.86
  -3   3   9  557.39    7.48
   3   3  -9  568.93    7.94
   3  -3  -9  601.09   15.01
  -3   3   9  570.82   13.07
  -3  -3   9  583.08   13.37
   3   3  -8  317.35   15.13
  -3   3   8  300.06   14.24
   3  -3  -8  303.04   17.00
  -3   3   8  321.70   17.88
  -3  -3   8  300.53   15.67
   3   3  -7 1034.75   21.27
  -3   3   7 1022.74   21.15
   3  -3  -7  997.55   25.27
  -3   3   7 1072.44   24.58
  -3  -3   7 1007.07   26.61
   3   3  -6  159.72    8.38
  -3   3   6  166.58    8.02
   3  -3  -6  164.44    9.83
  -3   3   6  161.43    8.56
  -3  -3   6  170.85    9.66
   3  -3  -5 1221.11   16.31
   3   3  -5 1212.65   16.78
   3  -3  -5 1259.97   21.34
  -3   3   5 1223.92   17.78
  -3  -3   5 1233.80   17.70
   3  -3  -4  257.54   11.47
   3   3  -4  280.99   12.38
  -3  -3   4  283.88   13.00
   3  -3  -4  264.87   13.49
  -3   3   4  264.56   11.92
  -3  -3   4  261.66   11.94
  -3  -3   3 1474.76   20.42
   3  -3  -3 1478.53   25.29
  -3   3   3 1487.24   18.30
  -3  -3   3 1515.37   20.08
   3  -3  -2  662.54   19.42
   3   3  -2  699.82   20.12
  -3  -3   2  674.38   19.69
   3  -3  -2  690.41   21.14
  -3   3   2  703.78   19.47
  -3  -3   2  652.79   18.74
   3  -3  -1 2829.93   33.19
   3   3  -1 2888.41   34.77
  -3  -3   1 2763.47   31.41
   3  -3  -1 2754.85   32.99
  -3   3   1 2752.75   28.78
   3  -3  -1 2646.36   27.77
   3  -3   0 8921.71  578.91
   3  -3   1 4282.48  279.20
   3   3   1 3007.36   36.34
  -3  -3  -1 4070.03  264.81
   3  -3   1 2781.46   31.37
   3   3   2  689.29   23.86
  -3  -3  -2  654.17   18.73
   3  -3   2  704.62   20.74
   3  -3   3 1572.35   23.09
   3   3   3 1554.78   24.01
   3  -3   3 1504.43   17.89
   3  -3   4  280.08   14.81
   3   3   4  263.69   12.93
  -3  -3  -4  299.95   13.40
   3  -3   4  282.02   11.96
  -3   3  -4  246.80   10.74
   3  -3   5 1200.52   19.61
   3   3   5 1322.67   22.50
  -3  -3  -5 1269.61   17.09
  -3   3  -5 1222.67   15.38
   3  -3   6  162.76    9.40
   3   3   6  176.76   10.15
   3  -3   6  153.25    6.92
  -3  -3  -6  169.18    8.64
   3  -3   7 1000.13   24.59
   3   3   7  993.29   27.09
  -3  -3  -7 1050.76   23.07
  -3   3  -7  948.44   18.86
   3  -3   8  311.68   17.30
   3   3   8  306.26   20.84
  -3  -3  -8  324.56   17.03
  -3   3  -8  283.90   13.39
   3  -3   9  578.94   13.68
   3   3   9  611.27   15.57
  -3   3  -9  537.94    6.08
  -3  -3  -9  609.00   10.62
   3  -3  10  429.81   24.52
   3   3  10  403.96   22.99
  -3   3 -10  362.26   18.27
  -3  -3 -10  415.55   22.34
   3  -3  11   31.90    4.45
   3   3  11   30.58   12.59
  -3  -3 -11   23.40    3.32
  -3   3 -11   25.37    2.39
   3   3  12 1115.59   39.27
  -3  -3 -12 1117.27   38.69
   3  -3  13   49.74    5.36
   3   3  13   40.61    4.80
  -3  -3 -13   46.02    4.00
   3  -3  14  182.21   13.79
   3   3  14  201.51   14.44
  -3  -3 -14  179.97   12.05
   3  -3  15  372.93   32.25
   3   3  15  405.39   36.56
   3  -4 -19   14.17   11.75
   3  -4 -18   74.29   14.15
   3   4 -18   82.11   10.84
   3  -4 -17  118.55   11.66
   3   4 -17  120.16   20.63
   3  -4 -16   80.81    9.02
  -3  -4  16   80.80    9.62
   3  -4 -15   48.04   11.03
  -3  -4  15   51.11    8.18
   3  -4 -14   49.84   17.82
  -3  -4  14   45.63   20.88
   3  -4 -13  189.37   18.03
  -3  -4  13  213.47   19.68
   3   4 -12   88.23   10.39
   3  -4 -12   90.83   12.63
  -3  -4  12   97.89   12.35
  -3   4  11  581.49   25.19
   3   4 -11  618.29   26.85
   3  -4 -11  606.98   30.09
  -3  -4  11  602.10   37.60
  -3   4  10  227.01   14.56
   3   4 -10  234.60   13.08
   3  -4 -10  240.50   16.89
  -3  -4  10  230.07   10.44
  -3   4   9   53.55    6.72
   3   4  -9   59.39    7.37
   3  -4  -9   65.47    9.49
  -3   4   9   60.51    6.94
  -3  -4   9   62.56    6.50
   3   4  -8   78.37    7.13
  -3   4   8   78.18    6.73
   3  -4  -8   64.38    8.48
  -3   4   8   79.91    7.60
  -3  -4   8   60.57    6.17
   3   4  -7  925.74   20.43
  -3   4   7  931.50   20.43
   3  -4  -7  924.12   24.53
  -3   4   7  921.30   21.70
  -3  -4   7  934.87   23.32
   3   4  -6 1566.59   32.25
  -3   4   6 1491.33   31.31
   3  -4  -6 1557.84   35.42
  -3   4   6 1495.03   31.80
  -3  -4   6 1579.85   33.58
   3  -4  -5  665.80   24.53
   3   4  -5  689.83   25.27
  -3  -4   5  663.30   25.46
   3  -4  -5  655.13   27.82
  -3   4   5  700.72   25.67
  -3  -4   5  645.47   23.77
   3  -4  -4  318.63   14.46
   3   4  -4  276.03   12.87
  -3  -4   4  316.35   14.47
   3  -4  -4  309.80   19.64
  -3   4   4  282.48   12.71
  -3  -4   4  315.94   14.21
   3  -4  -3  729.70   21.51
   3   4  -3  691.74   20.31
  -3  -4   3  710.81   21.06
   3  -4  -3  730.67   22.80
  -3   4   3  707.11   20.05
  -3  -4   3  727.19   21.60
   3  -4  -2  545.57   16.99
   3   4  -2  652.21   19.45
  -3  -4   2  522.93   15.95
   3  -4  -2  550.74   17.73
  -3   4   2  649.36   18.17
  -3  -4   2  536.27   16.08
   3  -4  -1 1394.32   21.01
   3   4  -1 1413.49   19.97
   3  -4  -1 1392.46   20.72
  -3   4   1 1446.99   16.83
   3  -4   0  179.56    9.91
   3   4   0  182.29    9.50
  -3  -4   0  257.74   12.58
   3  -4   0  190.16   10.10
  -3   4   0  185.76    8.02
   3  -4   1 1471.40   23.58
   3   4   1 1410.65   21.53
  -3  -4  -1 1371.64   18.92
   3  -4   1 1496.55   20.19
  -3   4  -1 1369.85   14.35
   3  -4   2  650.34   20.18
   3   4   2  547.22   17.56
  -3  -4  -2  626.03   18.39
   3  -4   2  670.82   19.59
   3  -4   3  713.67   22.88
   3   4   3  764.90   14.84
  -3  -4  -3  681.02   19.83
   3  -4   3  700.47   21.18
   3  -4   4  280.86   13.74
   3   4   4  308.49   14.74
  -3  -4  -4  348.66   11.85
   3  -4   4  292.15   12.73
   3  -4   5  683.91   26.34
   3   4   5  659.44   25.36
   3  -4   5  708.77   25.12
  -3  -4  -5  704.88   26.02
   3  -4   6 1487.94   34.11
   3   4   6 1560.06   34.78
   3  -4   6 1469.14   28.91
  -3  -4  -6 1546.24   31.95
   3  -4   7  972.63   24.96
   3   4   7  950.73   24.70
   3  -4   7  874.03   18.10
  -3  -4  -7  921.18   21.45
   3  -4   8   69.63    8.12
   3   4   8   66.39    7.23
   3  -4   8   76.75    6.11
  -3  -4  -8   75.32    7.46
   3  -4   9   55.80    8.24
   3   4   9   64.55    6.86
  -3  -4  -9   58.05    8.35
   3  -4  10  230.63    9.66
   3   4  10  256.70   16.66
  -3  -4 -10  238.13   19.71
   3  -4  11  592.52   31.14
   3   4  11  627.83   31.81
  -3  -4 -11  632.14   28.84
   3  -4  12   93.87   11.91
   3   4  12   98.79   17.03
  -3  -4 -12  109.77   13.18
   3  -4  13  187.01   16.52
   3   4  13  193.62   17.70
  -3  -4 -13  194.80   17.94
   3  -4  14   54.62    5.50
   3   4  14   46.31    5.89
  -3  -4 -14   61.55    8.52
   3  -4  15   48.29    5.80
   3   4  15   52.96    7.34
   3  -5 -19   61.11    7.50
   3  -5 -18    5.21   10.31
   3   5 -18    9.95   10.72
   3  -5 -17    9.59   15.18
   3  -5 -16   38.62    8.83
  -3  -5  16   41.13    6.88
   3  -5 -15  264.15   18.51
  -3  -5  15  248.51   16.53
   3  -5 -14   24.17   19.30
  -3  -5  14   31.52   17.05
   3  -5 -13  139.05   16.83
  -3  -5  13  142.67   13.53
  -3   5  12   43.25    3.58
   3   5 -12   42.90    5.87
   3  -5 -12   40.03   16.03
  -3  -5  12   38.08   18.91
  -3   5  11   34.82    5.09
   3   5 -11   34.16    6.13
   3  -5 -11   32.71   11.07
  -3  -5  11   30.72    8.95
  -3   5  10   36.20    3.83
   3   5 -10   44.28    5.57
   3  -5 -10   51.13    9.01
  -3  -5  10   42.22   12.31
  -3   5   9  361.71   21.47
   3   5  -9  384.58   20.64
   3  -5  -9  345.65   20.89
  -3  -5   9  344.82   19.48
   3   5  -8   54.64    7.21
  -3   5   8   51.03    6.73
   3  -5  -8   35.37    7.02
  -3  -5   8   37.28    5.48
   3   5  -7  613.62   11.70
  -3   5   7  591.55   10.42
  -3  -5   7  629.29   13.78
   3  -5  -7  588.24   14.76
  -3  -5   7  605.57   11.80
   3   5  -6  628.73   24.81
  -3   5   6  644.69   24.14
  -3  -5   6  605.08   23.13
   3  -5  -6  590.92   23.97
  -3   5   6  632.21   23.88
  -3  -5   6  582.62   23.47
   3   5  -5   75.69    6.64
  -3  -5   5   87.44    7.63
   3  -5  -5   79.97   10.74
  -3   5   5   53.87    6.79
  -3  -5   5   68.94    5.93
   3  -5  -4    4.17    1.87
   3   5  -4   12.49    2.28
   3  -5  -4    5.89    4.32
  -3   5   4   10.76    2.68
  -3  -5   4    3.95    2.52
   3  -5  -3  817.59   19.72
   3   5  -3  867.23   15.09
  -3  -5   3  810.58   19.28
   3  -5  -3  797.01   16.73
  -3   5   3  877.59   18.54
  -3  -5   3  819.35   14.78
   3  -5  -2  626.65   19.82
   3   5  -2  627.58   19.34
  -3  -5   2  690.90   21.71
   3  -5  -2  638.07   20.32
  -3   5   2  627.14   17.45
  -3  -5   2  643.72   20.15
   3  -5  -1  330.71   23.16
   3   5  -1  408.98   14.43
   3  -5  -1  335.76   23.62
  -3   5   1  375.35   10.95
   3  -5   0  774.79   15.93
   3   5   0  750.48   23.64
  -3  -5   0  734.80   22.07
   3  -5   0  759.85   50.80
  -3   5   0  766.50    8.93
   3  -5   1  390.15   14.62
   3   5   1  347.65   12.96
  -3  -5  -1  378.77   14.14
   3  -5   1  388.40   15.87
   3  -5   2  627.49   21.00
   3   5   2  649.33   21.37
  -3  -5  -2  618.48   18.65
   3  -5   2  605.40   18.35
  -3   5  -2  603.85   15.73
   3  -5   3  883.60   23.58
   3   5   3  834.90   20.60
  -3  -5  -3  911.45   23.04
   3  -5   3  925.55   21.04
  -3   5  -3  764.04   83.75
   3  -5   4   11.12    8.80
   3   5   4    5.56    5.73
  -3  -5  -4   14.29    7.44
   3  -5   4   13.62    5.96
  -3   5  -4    2.78    1.45
   3  -5   5   66.09    6.68
   3   5   5   95.11    7.34
   3  -5   5   59.94    5.27
  -3  -5  -5   54.37    6.19
   3  -5   6  637.07   25.80
   3   5   6  608.27   24.43
   3  -5   6  597.23   21.93
  -3  -5  -6  627.71   25.44
   3  -5   7  615.85   19.62
   3   5   7  590.65   13.01
  -3  -5  -7  605.08   12.22
   3  -5   8   53.17    9.29
   3   5   8   43.73    6.72
   3  -5   8   51.22    6.42
  -3  -5  -8   53.47    7.33
   3  -5   9  376.75   22.85
   3   5   9  372.56   22.24
   3  -5   9  359.78   18.90
  -3  -5  -9  378.33   21.84
   3  -5  10   43.55    6.23
   3   5  10   59.97   12.01
  -3  -5 -10   43.69    7.50
   3  -5  11   33.12    6.00
   3   5  11   32.40    9.39
  -3  -5 -11   34.05    8.23
   3  -5  12   44.30    7.05
   3   5  12   35.19    4.95
  -3  -5 -12   45.92   13.73
   3  -5  13  166.16   13.32
   3   5  13  142.19   16.36
  -3  -5 -13  162.18   12.22
   3  -5  14   18.58   11.87
   3   5  14   21.46    8.27
  -3  -5 -14   20.82    5.41
   3  -5  15  264.29   19.14
   3   5  15  255.18   17.56
   3  -6 -19   34.37    9.95
   3  -6 -18   26.05   12.54
   3  -6 -17   90.24   11.18
  -3  -6  17   97.91    9.07
   3  -6 -16   62.13   18.79
  -3  -6  16   74.35    7.81
   3  -6 -15  128.47   14.25
  -3  -6  15  137.94   13.76
   3  -6 -14   74.52   11.34
  -3  -6  14   69.92   13.88
   3  -6 -13    6.97    6.82
  -3  -6  13    6.23    4.35
  -3   6  12  428.38   27.87
   3   6 -12  415.96   27.68
   3  -6 -12  470.19   33.19
  -3  -6  12  476.92   32.31
  -3   6  11  156.27    6.65
   3   6 -11  154.95    8.91
   3  -6 -11  155.19   11.93
  -3  -6  11  146.82   10.40
  -3   6  10   82.79   10.54
   3   6 -10   84.94    9.00
   3  -6 -10   85.64   15.11
  -3  -6  10   94.60   10.48
  -3   6   9   94.42    9.93
   3  -6  -9  104.00   13.73
  -3  -6   9  100.20   10.73
   3   6  -8  195.29   13.03
  -3   6   8  194.62   13.28
  -3  -6   8  197.98   13.58
   3  -6  -8  184.68   14.22
  -3  -6   8  183.69   12.44
   3   6  -7  907.52   26.89
  -3   6   7  903.63   27.78
  -3  -6   7  832.73   27.87
   3  -6  -7  823.04   32.09
  -3  -6   7  822.18   29.18
   3   6  -6  142.84   11.97
  -3   6   6  146.61   12.24
  -3  -6   6  139.91   11.79
   3  -6  -6  133.82   12.21
  -3  -6   6  142.72   11.81
   3   6  -5 1420.05   33.75
  -3   6   5 1392.03   30.47
  -3  -6   5 1378.03   31.80
   3  -6  -5 1450.60   34.93
  -3  -6   5 1415.50   30.85
   3  -6  -4  442.62   18.15
   3   6  -4  408.55   16.72
  -3  -6   4  477.65   18.94
   3  -6  -4  319.90   15.53
  -3  -6   4  441.66   19.17
   3  -6  -3 1370.02   30.75
   3   6  -3 1308.60   31.56
  -3  -6   3 1426.51   31.12
   3  -6  -3 1464.61   34.66
  -3  -6   3 1439.91   30.57
   3  -6  -2   84.56    8.14
   3   6  -2   88.71   11.30
   3  -6  -2   74.61    7.43
  -3  -6   2   72.42    6.09
   3  -6  -1  285.41   14.07
   3   6  -1  267.51   13.04
  -3  -6   1  293.39   14.55
   3  -6  -1  285.25   14.08
   3  -6  -1  268.54   10.92
   3  -6   0 2069.08   45.04
   3   6   0 2025.22   42.87
  -3  -6   0 1941.76   40.38
   3  -6   0 1998.36   42.41
   3  -6   1  273.66   16.18
   3   6   1  286.84   14.14
  -3  -6  -1  250.85   13.11
   3  -6   1  252.34   12.15
   3  -6   2   91.34   12.11
  -3  -6  -2   81.58    7.36
   3  -6   2   90.86   11.18
   3  -6   3 1376.50   33.66
   3   6   3 1381.10   32.19
  -3  -6  -3 1405.97   31.66
   3  -6   3 1322.05   28.92
  -3   6  -3 1325.94   24.73
   3  -6   4  433.44   18.96
   3   6   4  508.08   20.76
  -3  -6  -4  450.21   18.26
   3  -6   4  397.10   15.75
   3  -6   5 1400.97   36.21
   3   6   5 1433.79   34.07
  -3  -6  -5 1434.81   31.92
   3  -6   6  153.36   13.34
   3   6   6  131.77   11.67
   3  -6   6  142.87   11.54
  -3  -6  -6  148.90   12.34
   3  -6   7  884.07   28.71
   3   6   7  857.30   28.64
   3  -6   7  913.69   26.80
  -3  -6  -7  862.59   30.26
   3  -6   8  202.72   14.71
   3   6   8  198.60   14.84
   3  -6   8  194.92   12.48
  -3  -6  -8  212.39   14.62
   3  -6   9   96.35   11.71
   3   6   9   93.86   10.69
   3  -6   9   87.67    8.75
  -3  -6  -9   93.68   10.10
   3  -6  10   78.58    9.68
   3   6  10  102.33   12.02
   3  -6  10   85.33    8.61
  -3  -6 -10   80.08   11.01
   3  -6  11  154.90    9.06
   3   6  11  154.32   14.28
  -3  -6 -11  156.52   10.49
   3  -6  12  433.81   31.02
   3   6  12  474.68   34.01
  -3  -6 -12  447.09   30.00
   3  -6  13    9.28    6.09
   3   6  13    5.78    3.45
  -3  -6 -13   10.17    7.05
   3  -6  14   70.23    7.99
   3   6  14   63.50   12.92
  -3  -6 -14   79.48    7.74
   3  -6  15  120.99   10.60
   3   6  15  131.90   12.48
  -3  -6 -15  110.55   14.28
   3  -7 -19    6.71   16.79
   3  -7 -18   22.62   11.15
   3  -7 -17    3.07    7.19
  -3  -7  17    1.85    3.31
   3  -7 -16   28.43    6.31
  -3  -7  16   30.43    5.67
   3  -7 -15   96.15   10.69
  -3  -7  15   96.69    9.45
   3  -7 -14   93.84   16.01
  -3  -7  14   91.21   12.57
   3  -7 -13  186.89   20.24
  -3  -7  13  173.49   18.93
  -3   7  12   17.92   10.02
   3   7 -12   18.09    6.30
   3  -7 -12   17.10   15.38
  -3  -7  12   18.13    9.46
  -3   7  11  188.93   15.84
   3   7 -11  184.94   17.06
   3  -7 -11  193.32   21.13
  -3  -7  11  182.59   15.85
  -3   7  10  100.29   12.43
   3   7 -10   99.58   12.29
   3  -7 -10   85.53   11.93
  -3  -7  10   83.09   10.45
  -3   7   9  500.99   23.39
   3   7  -9  519.91   24.26
  -3  -7   9  539.15   30.06
   3  -7  -9  529.18   27.82
  -3  -7   9  514.25   26.88
   3   7  -8   73.97    9.63
  -3   7   8   78.45    8.74
  -3  -7   8   63.88    6.75
   3  -7  -8   62.70    7.84
  -3  -7   8   69.87    6.96
   3   7  -7   93.76   10.31
  -3   7   7   95.84   10.61
  -3  -7   7  115.58    9.07
   3  -7  -7  110.88   10.00
  -3  -7   7  109.00   11.48
   3   7  -6  154.45   14.38
  -3   7   6  169.35    7.38
  -3  -7   6  145.56   12.37
   3  -7  -6  158.39   14.68
  -3  -7   6  150.23   12.32
   3   7  -5  348.92   11.24
  -3   7   5  347.41    9.82
  -3  -7   5  307.02   18.11
   3  -7  -5  335.21   24.60
  -3  -7   5  331.69   17.00
   3   7  -4  383.05   10.16
  -3  -7   4  381.78    9.71
   3  -7  -4  393.98   12.06
  -3  -7   4  384.20    9.45
   3  -7  -3  990.56   26.69
   3   7  -3  937.76   23.55
   3  -7  -3  954.91   24.88
  -3  -7   3  984.30   23.16
   3  -7  -2  270.43   13.75
   3   7  -2  272.00   13.55
  -3  -7   2  338.10   16.66
   3  -7  -2  268.04   14.01
  -3  -7   2  257.14   12.36
   3  -7  -1  161.08   14.97
   3   7  -1  152.75    8.88
   3  -7  -1  162.29   11.48
   3  -7  -1  149.00    6.49
   3  -7   0   20.22    4.81
   3   7   0   22.24   11.87
  -3  -7   0   18.46    2.80
   3  -7   0   25.53   10.97
   3  -7   1  156.43    9.48
   3   7   1  156.07    9.51
  -3  -7  -1  151.27    8.48
   3  -7   1  154.16    8.85
   3  -7   2  272.14   14.20
   3   7   2  267.77   15.15
  -3  -7  -2  266.14   13.06
   3  -7   2  280.72   13.79
   3  -7   3  948.87   26.36
   3   7   3  955.86   24.44
  -3  -7  -3  976.21   29.93
   3  -7   3  934.18   24.11
   3  -7   4  379.08   19.92
   3   7   4  385.43   11.10
  -3  -7  -4  405.96   13.21
   3  -7   4  389.60    9.31
  -3   7  -4  387.17    3.55
   3  -7   5  363.35   12.04
   3   7   5  318.57   17.77
  -3  -7  -5  364.12   10.36
   3  -7   6  179.22   12.80
   3   7   6  157.85   13.81
   3  -7   6  165.14   13.38
  -3  -7  -6  166.02   14.15
   3  -7   7   99.58   12.00
   3   7   7  108.43   14.47
   3  -7   7   91.69   10.09
  -3  -7  -7   91.62   10.15
   3  -7   8   78.48    9.56
   3   7   8   66.75   11.61
   3  -7   8  148.84   13.52
  -3  -7  -8   75.07    9.90
   3  -7   9  514.78   26.01
   3   7   9  539.40   27.19
   3  -7   9  490.85   23.69
  -3  -7  -9  533.64   25.43
   3  -7  10   93.69   13.41
   3   7  10   82.91   11.42
   3  -7  10   94.79   11.71
  -3  -7 -10  108.33   13.47
   3  -7  11  174.22   19.65
   3   7  11  182.14   17.48
   3  -7  11  200.03   16.06
  -3  -7 -11  190.91   18.70
   3  -7  12   22.55   13.53
   3   7  12   19.87   14.34
  -3  -7 -12   19.45   11.90
   3  -7  13  166.07   15.72
   3   7  13  176.05   16.14
  -3  -7 -13  162.42   14.28
   3  -7  14   80.88    7.46
   3   7  14   91.94   12.01
  -3  -7 -14   85.18    6.10
  -3  -7 -15   65.18    6.61
   3  -8 -18   35.91   25.18
   3  -8 -17   64.43   14.58
  -3  -8  17   69.22   13.69
   3  -8 -16   26.50    7.41
  -3  -8  16   27.75   16.56
   3  -8 -15   55.32    7.84
  -3  -8  15   55.93    6.78
   3  -8 -14   77.57    8.54
  -3  -8  14   73.96    7.45
   3  -8 -13   90.29   12.89
  -3  -8  13   85.72    7.36
  -3   8  12   31.95    3.68
   3   8 -12   32.66    4.48
   3  -8 -12   31.06   18.86
  -3  -8  12   29.75   12.73
  -3   8  11   21.27   10.22
   3   8 -11   27.05    7.95
   3  -8 -11   21.01   12.53
  -3  -8  11   15.04    9.01
  -3   8  10  283.14   20.47
   3   8 -10  286.21   21.17
   3  -8 -10  260.31   23.64
  -3  -8  10  234.94   19.61
  -3   8   9  180.68    7.77
   3   8  -9  173.69    8.00
  -3  -8   9  194.82    8.74
   3  -8  -9  198.08   11.64
  -3  -8   9  189.37    8.44
   3   8  -8   53.43   14.86
  -3   8   8   47.61    7.87
  -3  -8   8   52.36    5.96
   3  -8  -8   53.14   15.78
  -3  -8   8   56.40    6.65
   3   8  -7  222.42   10.58
  -3   8   7  225.26    8.71
  -3  -8   7  220.40   18.31
   3  -8  -7  220.09   21.28
  -3  -8   7  222.73    7.52
   3   8  -6  354.20   20.20
  -3   8   6  348.89   21.19
  -3  -8   6  378.47   21.75
   3  -8  -6  358.85   22.17
  -3  -8   6  387.45   21.10
   3   8  -5  328.95   21.33
  -3   8   5  350.11   21.16
  -3  -8   5  322.51   18.56
   3  -8  -5  364.37   22.09
  -3  -8   5  338.78   18.52
   3   8  -4  510.20   12.61
  -3   8   4  477.07   18.11
  -3  -8   4  498.23   18.89
   3  -8  -4  508.98   18.20
  -3  -8   4  493.82   10.51
   3  -8  -3  499.92   15.89
   3   8  -3  468.18   17.06
   3  -8  -3  497.85   13.81
  -3  -8   3  503.86   12.26
   3  -8  -2  528.43   13.12
   3   8  -2  474.66   16.01
  -3  -8   2  519.23   12.65
   3  -8  -2  514.59   13.14
  -3  -8   2  516.30    9.64
   3  -8  -1   91.09    8.72
   3   8  -1  105.59    9.83
  -3  -8   1   95.41    8.83
   3  -8  -1   95.26    9.22
   3  -8   0  236.53   14.61
   3   8   0  232.67   13.74
  -3  -8   0  208.12   12.06
   3  -8   0  233.44   13.72
   3  -8   1  100.85   10.34
   3   8   1  100.87   10.24
  -3  -8  -1  104.10    9.34
   3  -8   1  102.83    9.40
   3  -8   2  497.96   15.18
   3   8   2  516.44   13.85
  -3  -8  -2  481.71   11.28
   3  -8   2  480.80   12.58
   3  -8   3  492.86   14.00
   3   8   3  499.82   13.73
  -3  -8  -3  522.71   12.45
   3  -8   3  488.59   13.09
   3  -8   4  497.71   17.78
   3   8   4  478.47   16.91
  -3  -8  -4  566.51   24.88
   3  -8   4  516.43   16.10
   3  -8   5  340.91   21.65
   3   8   5  350.98   20.79
   3  -8   5  405.10   24.10
  -3  -8  -5  346.13   19.84
  -3   8  -5  309.60   15.57
   3  -8   6  336.09   26.25
   3   8   6  391.16   23.47
   3  -8   6  334.49   18.56
  -3  -8  -6  340.76   21.94
   3  -8   7  225.19   11.99
   3   8   7  219.67   19.09
   3  -8   7  210.33   16.82
  -3  -8  -7  220.11   18.62
   3  -8   8   42.56    5.99
   3   8   8   48.66    7.74
   3  -8   8   64.11   10.53
  -3  -8  -8   49.90    6.46
   3  -8   9  169.11    9.53
   3   8   9  197.43   10.60
   3  -8   9  169.24    7.38
  -3  -8  -9  167.70    8.94
   3  -8  10  300.53   23.29
   3   8  10  248.49   21.41
   3  -8  10  270.97   21.44
  -3  -8 -10  289.11   21.31
   3  -8  11   22.95   10.25
   3   8  11   17.20   10.25
   3  -8  11   22.90    3.68
  -3  -8 -11   26.97    7.92
   3  -8  12   34.92   17.06
   3   8  12   29.24    8.63
   3  -8  13   82.01    7.88
   3   8  13   88.12   11.57
  -3  -8 -13   83.73    7.95
   3  -8  14   61.96   23.94
   3   8  14   71.59   12.91
  -3  -8 -14   60.23   10.53
   3  -8  15   57.90   20.57
   3   8  15   60.76    7.83
  -3  -8 -15   57.56    6.71
   3  -9 -18   10.73    9.46
   3  -9 -17   24.23   10.88
  -3  -9  17   25.84    4.89
   3  -9 -16   55.75    9.43
  -3  -9  16   55.01    8.47
   3  -9 -15   44.49   19.13
  -3  -9  15   51.97    6.35
   3  -9 -14   63.53   24.87
  -3  -9  14   69.55   12.19
   3  -9 -13   30.54   27.73
  -3  -9  13   35.81    4.74
  -3   9  12  118.64   10.70
   3   9 -12  114.20   10.10
   3  -9 -12  128.23   28.08
  -3  -9  12  123.00   11.99
  -3   9  11  116.08   15.45
   3   9 -11  120.57    9.70
   3  -9 -11  127.56   19.46
  -3  -9  11  120.38    9.73
  -3   9  10   27.45   13.51
   3   9 -10   25.11    7.82
  -3  -9  10   32.92    5.09
   3  -9 -10   33.23   10.23
  -3  -9  10   29.82    4.10
  -3   9   9  242.68   23.03
   3   9  -9  241.89   21.50
  -3  -9   9  264.22   22.10
   3  -9  -9  253.28   32.24
  -3  -9   9  264.53   23.82
   3   9  -8  100.86   13.96
  -3  -9   8   76.88   10.13
   3  -9  -8   85.37   25.99
  -3  -9   8   84.96   14.16
   3   9  -7   58.46   13.60
  -3   9   7   55.76    9.64
  -3  -9   7   61.92    9.53
   3  -9  -7   61.21   16.33
  -3  -9   7   64.38    8.83
   3   9  -6  174.98   15.25
  -3   9   6  174.67   19.26
  -3  -9   6  181.20   15.79
   3  -9  -6  183.83   17.34
  -3  -9   6  173.07   15.37
   3   9  -5  191.76   19.17
  -3   9   5  205.04   17.57
  -3  -9   5  181.50   17.41
   3  -9  -5  198.84   18.33
  -3  -9   5  190.41   16.00
   3   9  -4  200.34   14.97
  -3   9   4  219.02   15.43
  -3  -9   4  279.05   17.61
   3  -9  -4  237.23   20.29
  -3  -9   4  229.20    8.99
   3   9  -3  326.99   20.12
  -3   9   3  312.35   22.40
   3  -9  -3  292.69   18.37
  -3  -9   3  304.99   18.55
   3  -9  -2  523.95   22.71
   3   9  -2  496.94   21.31
  -3  -9   2  514.21   21.06
   3  -9  -2  496.81   27.37
  -3  -9   2  515.31   19.63
   3  -9  -1   71.13    9.71
   3   9  -1   69.84    8.98
  -3  -9   1   63.73    9.78
   3  -9  -1   60.35   11.06
  -3  -9   1   72.85    8.26
   3  -9   0  591.76   24.67
   3   9   0  575.98   22.27
  -3  -9   0  546.39   13.10
   3  -9   0  576.83   16.70
   3  -9   1   83.99   12.22
   3   9   1   63.24    8.75
  -3  -9  -1   75.83    9.05
   3  -9   1   76.95    9.60
   3  -9   2  505.01   24.11
   3   9   2  527.50   22.90
  -3  -9  -2  468.04   19.60
   3  -9   2  484.52   20.46
   3  -9   3  320.25   20.08
   3   9   3  286.06   19.23
  -3  -9  -3  343.03   20.02
   3  -9   3  308.98   18.86
   3  -9   4  200.41   20.75
   3   9   4  203.64   16.64
  -3  -9  -4  294.31   18.90
   3  -9   4  217.51   20.13
   3  -9   5  194.40   17.72
   3   9   5  189.88   17.03
   3  -9   5  226.38   15.82
  -3  -9  -5  211.16   23.93
   3  -9   6  176.94   16.46
   3   9   6  170.91   19.47
   3  -9   6  171.48   14.39
  -3  -9  -6  188.81   16.62
   3  -9   7   60.30   10.70
   3   9   7   67.87   10.40
   3  -9   7   59.17    8.59
  -3  -9  -7   60.96    9.21
   3  -9   8  107.71   13.99
   3   9   8   90.32   11.94
   3  -9   8  103.59   12.67
  -3  -9  -8   91.30   12.38
   3  -9   9  229.02   20.52
   3   9   9  284.02   21.38
   3  -9   9  275.55   10.58
  -3  -9  -9  230.33   20.17
   3  -9  10   24.72   15.64
   3   9  10   35.99   22.17
   3  -9  10   22.85   10.05
  -3  -9 -10   21.18   10.79
   3  -9  11  119.76   10.44
   3   9  11  119.27   10.40
   3  -9  11  118.76    8.97
  -3  -9 -11  134.56   10.97
   3  -9  12  127.07   12.39
   3   9  12  124.49   13.03
  -3  -9 -12  117.85   11.41
   3  -9  13   28.59   15.08
   3   9  13   29.97   13.85
  -3  -9 -13   33.82    9.76
   3  -9  14   61.92    8.18
   3   9  14   53.60   14.87
  -3  -9 -14   68.93    6.67
   3  -9  15   55.24    7.39
   3   9  15   47.51    6.33
  -3  -9 -15   51.13   13.58
   3 -10 -17   35.55   18.36
   3 -10 -16   78.16   20.51
  -3 -10  16   83.86    7.27
   3 -10 -15   35.40    8.03
  -3 -10  15   30.92    4.81
   3 -10 -14   15.29   15.47
  -3 -10  14   19.27   11.28
   3  10 -13   32.89    3.99
   3 -10 -13   28.98   22.17
  -3 -10  13   28.87   12.28
  -3  10  12   16.44    6.19
   3  10 -12   18.95    8.13
   3 -10 -12   14.72    9.73
  -3 -10  12   17.97   10.37
  -3  10  11   78.84    9.12
   3  10 -11   85.03    8.09
  -3 -10  11   98.33   15.40
   3 -10 -11   95.03   12.99
  -3 -10  11   99.62    7.68
  -3  10  10   67.25   13.05
  -3 -10  10   76.15    9.36
   3 -10 -10   75.04   10.87
  -3 -10  10   61.74    9.48
  -3  10   9   41.16    8.76
   3  10  -9   44.11    6.10
  -3 -10   9   38.72   17.17
   3 -10  -9   32.88   14.01
  -3 -10   9   35.72    3.91
   3  10  -8  670.15   36.45
  -3  10   8  676.78   33.56
  -3 -10   8  633.08   29.78
   3 -10  -8  690.76   38.42
  -3 -10   8  669.50   32.94
   3  10  -7   83.55    6.71
  -3  10   7   87.92    9.70
  -3 -10   7   84.01    6.58
   3 -10  -7   99.00   29.76
  -3 -10   7   82.48    6.01
   3  10  -6    2.55    2.97
  -3  10   6    0.84    2.17
  -3 -10   6    3.69    2.84
   3 -10  -6    7.58    5.50
  -3 -10   6    4.31    1.95
   3  10  -5  148.92    8.47
  -3  10   5  145.14   16.30
  -3 -10   5  184.78    9.23
   3 -10  -5  185.33   14.82
   3  10  -4  826.51   39.15
  -3  10   4  815.73   39.75
   3 -10  -4  836.98   40.21
   3  10  -3   42.16   14.13
  -3  10   3   41.31    9.27
  -3 -10   3   49.58    9.11
   3 -10  -3   45.09   19.50
  -3 -10   3   44.40    5.61
   3  10  -2  143.61   17.60
  -3  10   2  135.45   14.77
  -3 -10   2  137.38    7.74
   3 -10  -2  132.95   15.33
  -3 -10   2  144.08   12.54
   3 -10  -1  119.92   13.52
   3  10  -1  127.18   14.26
  -3 -10   1  100.89   11.98
   3 -10  -1  114.31   12.98
   3 -10  -1   94.10    8.53
  -3 -10   1  114.50   11.93
   3 -10   0   21.02   10.17
   3  10   0   22.50   14.87
  -3 -10   0   16.38    9.77
   3 -10   0   19.61   10.93
   3 -10   1  133.95   15.18
   3  10   1  113.67   13.41
  -3 -10  -1  120.71   13.18
   3 -10   1  126.79   17.92
   3 -10   2  135.99   19.05
   3  10   2  139.20   13.97
  -3 -10  -2  142.37   13.10
   3 -10   2  139.20   15.05
   3 -10   3   43.44   11.52
   3  10   3   45.22    6.39
  -3 -10  -3   40.20    9.79
   3 -10   3   41.40    7.10
   3 -10   4  788.20   48.19
   3  10   4  836.14   44.77
  -3 -10  -4  952.40   43.86
   3 -10   4  850.85   43.07
   3 -10   5  143.37   11.52
   3  10   5  176.27   11.99
   3 -10   5  150.12    9.13
  -3 -10  -5  155.72    9.29
   3 -10   6    3.09    4.11
   3  10   6    6.39    4.59
   3 -10   6    3.25    3.23
  -3 -10  -6    1.58    4.16
   3 -10   7   72.26    7.33
   3  10   7   83.48    8.03
   3 -10   7   76.32    5.47
  -3 -10  -7   89.34    7.78
   3 -10   8  690.94   36.74
   3  10   8  679.60   36.81
   3 -10   8  706.83   31.07
  -3 -10  -8  673.45   34.40
   3 -10   9   41.98   21.30
   3  10   9   40.00   20.17
   3 -10   9   58.70    6.41
  -3 -10  -9   38.66    6.83
   3 -10  10   67.32   10.85
   3  10  10   64.52   13.85
   3 -10  10   62.58    7.54
  -3 -10 -10   68.26   12.63
   3 -10  11   86.23    9.77
   3  10  11   90.66   10.03
   3 -10  11   72.59    6.17
  -3 -10 -11   76.02    8.66
   3 -10  12   23.31   14.22
   3  10  12   12.32   11.70
  -3 -10 -12   22.35   14.51
   3 -10  13   29.85   15.66
   3  10  13   32.54   13.84
  -3 -10 -13   30.88   13.13
   3 -10  14   21.29   14.04
   3  10  14   19.02   17.96
  -3 -10 -14   17.12   13.31
   3 -10  15   26.96   16.13
   3  10  15   31.80    8.25
  -3 -10 -15   23.88   12.50
   3 -11 -16   30.39   12.55
  -3 -11  15    1.79    2.93
   3 -11 -14   34.37   23.70
  -3 -11  14   31.46   13.18
   3 -11 -13   33.68   14.24
  -3 -11  13   31.85   14.72
   3  11 -12  140.91    8.43
   3 -11 -12  150.25   11.92
  -3 -11  12  137.55   10.22
  -3  11  11    5.54    8.32
   3  11 -11    3.63    4.69
  -3 -11  11    5.22    7.08
   3 -11 -11    7.61    6.27
  -3 -11  11    5.41    2.61
  -3  11  10   43.26   21.82
   3  11 -10   41.98    8.03
  -3 -11  10   51.36    8.27
   3 -11 -10   53.56   19.57
  -3 -11  10   47.17    4.73
  -3  11   9   19.64    9.19
   3  11  -9   15.25    7.04
  -3 -11   9   25.84   11.98
   3 -11  -9   27.00   22.68
  -3 -11   9   22.67    9.41
   3  11  -8  131.91   10.82
  -3  11   8  134.79   12.09
  -3 -11   8  124.58   10.21
  -3 -11   8  125.56    9.56
   3  11  -7  163.47   13.06
  -3  11   7  159.12   24.26
  -3 -11   7  161.39   15.32
   3 -11  -7  175.65   24.35
  -3 -11   7  171.07   12.08
   3  11  -6  174.56   16.33
  -3  11   6  177.75   16.39
  -3 -11   6  150.19   15.28
   3 -11  -6  164.66   17.66
  -3 -11   6  162.13   14.31
   3  11  -5  122.87   11.52
  -3  11   5  125.16   11.82
  -3 -11   5  127.67   12.32
   3 -11  -5   77.87   10.60
  -3 -11   5  111.18    9.31
   3  11  -4   23.64   16.23
  -3  11   4   24.62    9.26
  -3 -11   4   56.46   17.77
   3 -11  -4   25.47   13.92
  -3 -11   4   24.18    5.66
   3  11  -3   52.64   15.22
  -3  11   3   54.97    9.76
  -3 -11   3   43.72   19.07
   3 -11  -3   45.22   18.08
  -3 -11   3   38.53    6.55
   3  11  -2  144.55    9.45
  -3  11   2  135.44   15.84
  -3 -11   2  125.88   16.97
   3 -11  -2  134.61    9.89
  -3 -11   2  129.54    8.32
   3  11  -1   24.83   16.11
  -3  11   1   24.55   10.07
  -3 -11   1   32.47   14.20
   3 -11  -1   27.84    7.98
  -3 -11   1   33.15    5.12
   3 -11   0  386.41   26.33
   3  11   0  387.74   17.32
  -3 -11   0  346.91   15.26
   3 -11   0  370.13   16.11
   3 -11   1   37.94   16.68
   3  11   1   33.46   14.93
  -3 -11  -1   22.36   14.83
   3 -11   1   26.67   12.35
   3 -11   2  155.11   16.69
   3  11   2  141.94    9.81
  -3 -11  -2  140.31    8.44
   3 -11   2  151.82    8.66
   3 -11   3   52.50   13.74
   3  11   3   48.75   18.30
  -3 -11  -3   45.70   10.69
   3 -11   3   49.60    9.79
   3 -11   4   18.77   17.21
   3  11   4   22.32   13.90
  -3 -11  -4   20.91   15.16
   3 -11   4   24.91   10.19
   3 -11   5  137.92   22.07
   3  11   5  111.77   11.55
   3 -11   5  127.54   16.49
  -3 -11  -5  167.70   17.66
   3 -11   6  162.87   15.74
   3  11   6  178.21   17.08
   3 -11   6  159.89   15.19
  -3 -11  -6  190.90   17.71
   3 -11   7  172.44   15.90
   3  11   7  180.22   15.63
   3 -11   7  179.06   13.55
  -3 -11  -7  175.94   14.45
   3 -11   8  136.20   13.12
   3  11   8  123.59   11.08
   3 -11   8  134.30   10.20
  -3 -11  -8  131.72   18.62
   3 -11   9   22.56   13.00
   3  11   9   28.73   17.47
   3 -11   9   45.42   25.90
  -3 -11  -9   21.08    5.15
   3 -11  10   46.19    6.98
   3  11  10   48.11    8.78
   3 -11  10   38.20    4.09
  -3 -11 -10   38.89   12.88
   3 -11  11    6.21    4.06
   3  11  11    9.07    7.50
   3 -11  11    6.78    3.94
  -3 -11 -11    8.02   10.11
   3 -11  12  134.14   13.21
   3  11  12  135.76    9.94
  -3 -11 -12  131.17    9.20
   3 -11  13   45.98    8.37
   3  11  13   35.74   14.68
  -3 -11 -13   39.51    8.95
   3 -11  14   47.46   23.52
   3  11  14   41.24    6.79
  -3 -11 -14   42.81   12.22
   3 -11  15    1.43    3.68
   3  11  15    1.27    3.11
  -3 -11 -15    3.86    3.75
   3 -12 -15    3.23    4.78
   3 -12 -14  107.30   10.92
   3 -12 -13   38.19   17.31
  -3  12  12    8.82   11.33
   3  12 -12   11.09   10.34
  -3 -12  12   16.80    9.90
   3 -12 -12   20.76   14.90
  -3 -12  12   14.08    7.54
  -3  12  11   42.95   11.51
   3  12 -11   46.64    5.80
  -3 -12  11   44.28   21.20
   3 -12 -11   48.65   15.48
  -3 -12  11   46.34    5.34
  -3  12  10  271.79   22.39
   3  12 -10  275.72   20.28
  -3 -12  10  289.03   28.95
   3 -12 -10  284.95   22.38
  -3 -12  10  273.13   22.26
  -3  12   9   27.05   13.63
   3  12  -9   19.85   17.95
  -3 -12   9   24.24   19.52
   3 -12  -9   28.04   14.40
  -3 -12   9   19.28   11.40
   3  12  -8    3.46    5.08
  -3  12   8    6.17    4.49
  -3 -12   8    1.46    3.58
   3 -12  -8   -0.09    5.09
  -3 -12   8    2.78    2.71
   3  12  -7  357.64   23.04
  -3  12   7  373.06   23.91
  -3 -12   7  334.15   29.69
   3 -12  -7  337.28   23.08
  -3 -12   7  344.49   22.91
   3  12  -6   28.52   13.99
  -3  12   6   25.02   17.52
  -3 -12   6   19.85   13.13
   3 -12  -6   25.23   19.84
  -3 -12   6   18.28    9.40
   3  12  -5  248.50   18.28
  -3  12   5  272.69   16.16
  -3 -12   5  307.79   17.54
   3 -12  -5  270.62   26.25
  -3 -12   5  266.64   13.62
   3  12  -4   12.09    9.14
  -3  12   4   13.90   12.30
  -3 -12   4   93.26   77.48
   3 -12  -4   15.82    8.08
  -3 -12   4   14.24    7.76
   3  12  -3    9.30    7.33
  -3  12   3   12.99   10.51
  -3 -12   3   16.67   14.65
   3 -12  -3   24.29   17.04
  -3 -12   3    9.80    9.35
   3  12  -2  778.94   24.72
  -3  12   2  785.49   25.75
  -3 -12   2  718.45   49.29
   3 -12  -2  723.20   58.73
  -3 -12   2  752.51   16.61
   3  12  -1  187.01   19.74
  -3  12   1  188.48   18.09
  -3 -12   1  162.76   15.57
   3 -12  -1  184.29   18.02
  -3 -12   1  159.48   17.73
   3  12   0    3.41    4.65
  -3  12   0    7.83    5.62
  -3 -12   0    2.64    4.09
   3 -12   0    7.18    5.43
   3  12   1  168.85   18.93
  -3 -12  -1  171.92   16.42
   3 -12   1  196.60   18.01
   3 -12   2  760.26   49.37
   3  12   2  729.38   49.09
  -3 -12  -2  729.21   50.16
   3 -12   2  744.48   51.35
   3 -12   3   24.16   16.27
   3  12   3   12.22    8.65
  -3 -12  -3   13.03   12.05
   3 -12   3   18.83    7.34
   3 -12   4   13.50   10.79
   3  12   4   15.71    9.35
  -3 -12  -4   10.70    9.91
   3 -12   4   13.91    9.71
   3 -12   5  271.04   18.37
   3  12   5  267.57   16.49
   3 -12   5  273.63   15.51
  -3 -12  -5  277.36   24.68
   3 -12   6   25.90   15.36
   3  12   6   20.36   15.55
   3 -12   6   25.34   13.90
  -3 -12  -6   32.16   18.38
   3 -12   7  355.43   24.31
   3  12   7  344.06   31.15
   3 -12   7  339.45   20.73
  -3 -12  -7  408.85   25.89
   3 -12   8    4.42    6.51
   3  12   8    2.88    4.24
   3 -12   8    4.75    3.88
  -3 -12  -8    3.09    5.25
   3 -12   9   28.18   20.21
   3  12   9   21.85   13.75
   3 -12   9  161.71   64.23
  -3 -12  -9   23.22    8.08
   3 -12  10  276.39   23.14
   3  12  10  318.63   24.44
  -3 -12 -10  288.43   23.17
   3 -12  11   48.77   24.24
   3  12  11   52.50    7.36
   3 -12  11   44.05    8.51
  -3 -12 -11   41.82   16.67
   3 -12  12   12.16    9.60
   3  12  12   14.30   19.05
  -3 -12 -12   14.28   16.06
   3 -12  13   49.06   22.39
   3  12  13   46.18    6.87
  -3 -12 -13   40.23   18.16
   3 -12  14   89.85   14.26
   3  12  14   94.20   18.31
  -3 -12 -14  108.08    9.02
   3 -12  15    2.11    5.16
   3  12  15    1.05    4.10
  -3 -12 -15    0.87    3.10
   3 -13 -14   18.67   14.74
   3 -13 -13   57.39   23.86
  -3  13  12   24.14   19.32
   3  13 -12   24.25   13.85
  -3 -13  12   26.00   22.02
   3 -13 -12   27.83   23.10
  -3  13  11   94.91    8.02
   3  13 -11   94.03    8.18
  -3 -13  11   91.28    8.12
   3 -13 -11   94.96   13.24
  -3  13  10   51.99   16.86
   3  13 -10   53.41    6.51
  -3 -13  10   68.02   11.93
   3 -13 -10   62.32   10.45
   3  13  -9   16.33   15.17
  -3 -13   9   17.72   14.22
   3 -13  -9   22.11   14.76
   3  13  -8   75.22   15.93
  -3  13   8   72.29   10.53
   3 -13  -8   69.74    9.19
   3  13  -7   10.16    4.45
  -3  13   7   12.59    9.94
  -3 -13   7    8.32    5.60
   3 -13  -7   12.39    6.20
  -3 -13   7    9.15    4.66
   3  13  -6    3.88    3.72
  -3  13   6    4.35    4.86
  -3 -13   6    1.72    3.01
   3 -13  -6    4.35    3.77
  -3 -13   6    2.96    2.77
   3  13  -5    7.44    4.91
  -3  13   5    7.14    6.96
  -3 -13   5    7.02    4.90
   3 -13  -5   12.01   11.53
  -3 -13   5    5.54    3.69
   3  13  -4  227.04   20.29
  -3  13   4  237.96   20.70
   3 -13  -4  263.27   23.98
  -3 -13   4  249.16   14.71
   3  13  -3   56.21    9.16
  -3  13   3   56.66    6.74
  -3 -13   3   52.94    6.73
   3 -13  -3   59.03    9.11
  -3 -13   3   49.69    4.06
   3  13  -2  148.74   21.39
  -3  13   2  151.82   16.23
  -3 -13   2  126.51   15.37
   3 -13  -2  133.41   11.49
  -3 -13   2  147.22   12.46
  -3  13   1  175.00   16.99
  -3 -13   1  172.71   16.01
   3 -13  -1  172.62   19.04
  -3 -13   1  178.28   16.19
   3  13   0   12.81    7.37
  -3  13   0    8.08    4.87
  -3 -13   0    9.91    7.17
   3 -13   0    8.39    8.78
  -3 -13   0    8.73    5.69
   3  13   1  188.09   18.35
  -3  13  -1  194.42   19.90
  -3 -13  -1  162.66   18.64
   3 -13   1  155.33   17.46
   3  13   2  146.93   16.04
  -3  13  -2  142.16   15.26
  -3 -13  -2  132.81   12.61
   3 -13   2  156.37   14.94
   3  13   3   47.60    6.57
  -3 -13  -3   59.19   12.89
   3 -13   3   75.71   13.08
   3 -13   4  241.18   19.37
   3  13   4  267.92   25.64
  -3 -13  -4  240.54   17.07
   3 -13   4  257.93   17.86
   3 -13   5    8.11   10.31
   3  13   5    6.78    3.46
   3 -13   5    7.29    5.01
  -3 -13  -5   10.57    6.17
   3 -13   6    6.90    5.29
   3  13   6    1.49    3.72
   3 -13   6    6.13    4.42
  -3 -13  -6    8.11    6.58
   3 -13   7   16.57    8.94
   3  13   7   11.32    7.02
   3 -13   7    8.82    5.84
  -3 -13  -7   13.79   13.66
   3 -13   8   65.91   13.75
   3  13   8   73.88   14.46
   3 -13   8   77.54    6.75
  -3 -13  -8   91.34   10.43
   3 -13   9   28.77   20.02
   3  13   9   24.45   14.71
   3 -13   9  146.58   58.64
  -3 -13  -9   21.78   15.86
   3 -13  10   67.83    7.99
   3  13  10   67.16   11.20
   3 -13  10   57.94    6.54
  -3 -13 -10   60.62   11.68
   3 -13  11   93.51   17.34
   3  13  11   95.59    9.77
  -3 -13 -11   92.19   12.65
   3 -13  12   30.74   21.69
   3  13  12   26.27   11.58
  -3 -13 -12   28.84   10.57
   3 -13  13   63.32   14.73
   3  13  13   49.57   18.47
  -3 -13 -13   62.81   11.74
   3 -13  14   15.06   18.38
   3  13  14   19.86   16.61
  -3 -13 -14   11.42   14.10
   3 -14 -13   16.05   11.63
  -3  14  12   45.29    6.43
   3  14 -12   45.13    6.09
  -3 -14  12   52.32    7.13
   3 -14 -12   40.17   19.98
  -3  14  11   37.60   15.14
   3  14 -11   38.52    5.85
  -3 -14  11   51.37   21.92
   3 -14 -11   48.47   10.62
  -3  14  10   10.23    5.44
   3  14 -10   10.42    8.56
  -3 -14  10    9.55   12.60
   3 -14 -10    9.08    7.27
  -3  14   9   36.30    7.28
   3  14  -9   41.02    8.38
  -3 -14   9   31.15   16.47
   3 -14  -9   32.10   20.14
   3  14  -8   96.02   14.10
  -3  14   8  131.07   14.68
  -3 -14   8  105.92   10.71
   3 -14  -8  105.91   10.61
   3  14  -7   63.80    9.60
  -3  14   7   61.79    7.76
  -3 -14   7   61.41    9.96
   3 -14  -7   58.54    9.75
   3  14  -6   13.94    7.14
  -3  14   6   16.32   13.23
  -3 -14   6   16.15    8.17
   3 -14  -6   17.32   11.55
   3  14  -5  235.32   19.25
  -3  14   5  236.09   19.32
  -3 -14   5  288.77   22.61
   3 -14  -5  246.28   20.32
   3  14  -4   64.67    9.87
  -3  14   4   71.59    8.30
  -3 -14   4  353.65   54.63
   3 -14  -4   55.99    7.85
   3  14  -3   15.59   16.28
  -3  14   3   18.83   17.03
  -3 -14   3   19.18   11.97
   3 -14  -3   19.02    8.00
   3  14  -2    8.68    4.81
  -3  14   2    9.19    5.98
  -3 -14   2   10.32    5.91
   3 -14  -2   10.79    5.86
   3  14  -1  138.83   14.29
  -3  14   1  128.50   16.24
  -3 -14   1  127.23   12.59
   3 -14  -1  134.22   13.45
  -3 -14   1  130.61   10.89
   3  14   0   48.35    7.27
  -3  14   0   54.45   26.89
  -3 -14   0   51.09   10.36
   3 -14   0   42.36   13.74
  -3 -14   0   51.14    4.66
   3  14   1  130.95   13.82
  -3  14  -1  133.47   19.78
  -3 -14  -1  113.55   16.59
   3 -14   1  127.47   13.13
   3  14   2    5.42    5.82
  -3  14  -2    8.61    6.62
  -3 -14  -2    8.04    5.37
   3 -14   2    8.59   10.62
   3  14   3   11.74   12.28
  -3  14  -3   22.40   16.50
  -3 -14  -3   17.44   15.30
   3 -14   3   27.46   20.02
   3  14   4   64.24    8.17
  -3  14  -4   53.75    8.06
  -3 -14  -4   67.52   11.48
   3 -14   4   77.12    7.96
   3  14   5  219.36   18.19
  -3  14  -5  231.42   31.75
   3 -14   5  228.65   19.58
  -3 -14  -5  230.37   18.36
   3  14   6   11.16   11.15
  -3  14  -6   18.67   14.61
   3 -14   6   16.70   13.86
  -3 -14  -6   11.32   10.28
   3  14   7   57.96   25.90
  -3 -14  -7   68.52    8.78
   3  14   8  105.17   10.73
   3 -14   8  109.07   13.74
  -3 -14  -8  161.36   17.07
   3  14   9   29.90    9.06
   3 -14   9  193.04  107.22
  -3 -14  -9   47.17   14.09
   3  14  10   12.60    8.87
   3 -14  10   10.67    7.42
  -3 -14 -10    7.46    8.00
   3  14  11   60.33   10.34
  -3 -14 -11   52.47    8.97
   3  14  12   37.54   23.59
  -3  14 -12   36.42   18.66
  -3 -14 -12   37.55   25.99
   3  14  13   15.29   17.85
  -3  14 -13   12.39   19.71
  -3 -14 -13   24.91    9.70
  -3  15  11    4.87    3.60
   3  15 -11    6.10    4.07
  -3 -15  11    5.93    3.62
   3 -15 -11    3.88    4.37
  -3  15  10   24.43    6.58
   3  15 -10   12.38   17.59
  -3 -15  10   22.70   14.87
   3 -15 -10   21.67   22.39
  -3  15   9   39.39    8.16
   3  15  -9   30.12    9.55
  -3 -15   9   44.46   13.77
   3 -15  -9   44.02   14.53
   3  15  -8    3.87    6.25
  -3  15   8    6.95    5.76
  -3 -15   8    8.96    5.63
   3 -15  -8   14.15   11.11
   3  15  -7   46.31   17.05
  -3  15   7   59.39   11.21
  -3 -15   7   49.65   18.08
   3 -15  -7   43.30   20.97
   3  15  -6    4.16    3.45
  -3  15   6    4.41    5.60
  -3 -15   6    9.23    7.27
   3 -15  -6    3.63    7.40
   3  15  -5   54.83   23.79
  -3  15   5   55.47    8.20
  -3 -15   5   66.10   25.90
   3 -15  -5   57.06    9.12
   3  15  -4   37.18    7.72
  -3  15   4   48.13   29.34
  -3 -15   4   81.46   43.97
   3 -15  -4   31.47   22.96
   3  15  -3   30.52   27.30
  -3  15   3   37.32   14.03
  -3 -15   3   43.17   21.19
   3 -15  -3   27.99   21.08
   3  15  -2   36.53   24.62
  -3  15   2   28.38   13.29
  -3 -15   2   21.88   11.61
   3 -15  -2   26.88   19.61
   3  15  -1   11.45    5.41
  -3  15   1   11.83   10.02
  -3 -15   1   10.91    6.44
   3 -15  -1   10.06   10.12
   3  15   0   57.79    8.20
  -3  15   0   62.15   13.49
  -3 -15   0   59.36    7.02
   3 -15   0   62.84    7.80
   3  15   1   15.70   11.86
  -3  15  -1   11.01   15.99
  -3 -15  -1   12.12    5.76
   3 -15   1   11.71   10.50
   3  15   2   27.69   20.61
  -3  15  -2   31.81    9.38
  -3 -15  -2   35.71   16.44
   3 -15   2   44.18    8.14
   3  15   3   29.27    6.46
  -3  15  -3   35.34   11.30
   3 -15   3   39.65    6.88
   3  15   4   32.58    8.41
  -3  15  -4   30.64   14.60
  -3 -15  -4   39.84   15.76
   3 -15   4   34.76   11.84
   3  15   5   48.36   27.53
  -3  15  -5   56.28   10.15
   3 -15   5   42.94    6.92
  -3 -15  -5   48.21    7.30
   3  15   6    5.49    6.19
  -3  15  -6    6.72    6.48
   3 -15   6    1.99    3.11
  -3 -15  -6    7.11    5.85
   3  15   7   48.52   18.02
  -3  15  -7   42.94    7.94
   3 -15   7   62.32    7.23
  -3 -15  -7   67.18    8.02
   3  15   8   13.06    4.48
  -3  15  -8   11.85    7.28
   3 -15   8    7.56    4.64
  -3 -15  -8    5.62    8.30
   3  15   9   50.96    9.31
  -3  15  -9   48.15    8.73
   3 -15   9  113.74   38.35
  -3 -15  -9   48.40   10.53
   3  15  10   15.48   26.35
  -3  15 -10   18.59   12.31
   3 -15  10   23.99   12.62
  -3 -15 -10   26.63   19.13
   3  15  11    4.62    4.75
  -3  15 -11    4.68   10.19
  -3 -15 -11    4.55    5.29
  -3  16  10    7.18   10.06
   3  16 -10    9.40   14.18
  -3 -16  10    7.00    8.20
   3 -16 -10   10.21   12.20
  -3  16   9    1.97    6.32
   3  16  -9    2.00    5.81
  -3 -16   9    1.61    3.43
   3 -16  -9    2.78    6.78
   3  16  -8    3.11    4.18
  -3  16   8    2.05    3.71
  -3 -16   8    2.80    2.78
   3 -16  -8    5.99    8.12
   3  16  -7   26.09   14.48
  -3  16   7   30.70   22.81
  -3 -16   7   29.00   18.29
   3 -16  -7   24.17   21.14
   3  16  -6   62.11   11.91
  -3  16   6   61.25   13.06
  -3 -16   6   73.84   10.71
   3 -16  -6   56.27   11.92
   3  16  -5   36.61    8.51
  -3  16   5   38.44    8.97
  -3 -16   5   46.83   19.74
   3 -16  -5   45.04   23.28
   3  16  -4   17.99   14.28
  -3  16   4   14.11    9.35
  -3 -16   4   34.50   22.32
   3 -16  -4   11.66   11.20
   3  16  -3   12.17    8.72
  -3  16   3   15.81   12.94
  -3 -16   3   11.74   14.90
   3 -16  -3    8.76    7.47
   3  16  -2    7.58    8.35
  -3  16   2   10.75    8.31
  -3 -16   2   10.91    7.89
   3 -16  -2   11.06    9.58
   3  16  -1  148.26   19.79
  -3  16   1  151.24   17.88
  -3 -16   1  145.08   15.44
   3 -16  -1  144.91   18.74
   3  16   0   19.75   16.03
  -3  16   0   15.86   10.93
  -3 -16   0   14.70   14.21
   3 -16   0   13.32   16.80
   3  16   1  149.41   16.79
  -3  16  -1  143.98   18.33
  -3 -16  -1  129.45   14.47
   3 -16   1  162.67   17.77
   3  16   2   10.57    5.92
  -3  16  -2    8.77    8.67
  -3 -16  -2   11.03   10.12
   3 -16   2   10.15    9.37
   3  16   3   10.21   11.74
  -3  16  -3   12.66   13.54
  -3 -16  -3   11.80    5.23
   3 -16   3   10.06    7.63
   3  16   4   11.99   12.92
  -3  16  -4   16.37   10.42
  -3 -16  -4   14.50   11.37
   3 -16   4   13.51    8.22
   3  16   5   34.19   25.95
  -3  16  -5   37.42   25.68
   3 -16   5   39.47   17.85
  -3 -16  -5   41.31   16.83
   3  16   6   87.44   12.64
  -3  16  -6   73.64   11.09
   3 -16   6   73.95   12.49
  -3 -16  -6   65.76    9.90
   3  16   7   34.30   25.00
  -3  16  -7   33.04   10.13
   3 -16   7   30.92   17.08
  -3 -16  -7   31.06   14.20
   3  16   8    3.71    3.82
  -3  16  -8    5.08    6.31
   3 -16   8    4.42    5.34
  -3 -16  -8    2.81    4.88
   3  16   9    2.80    4.09
  -3  16  -9    3.83    4.11
   3 -16   9    6.48    5.46
  -3 -16  -9    3.16    4.74
   3  16  10   10.32   10.88
  -3  16 -10    8.72   10.99
  -3 -16 -10   10.17    8.50
   3  17  -7   37.71    9.93
  -3  17   7   39.68    7.36
  -3 -17   7   35.37   16.86
   3 -17  -7   31.16    8.14
   3  17  -6    2.82    3.48
  -3  17   6    4.38    4.76
  -3 -17   6    4.11    3.54
   3 -17  -6    6.05    7.14
   3  17  -5   31.26    9.02
  -3  17   5   34.36    6.50
  -3 -17   5   47.35    7.55
   3 -17  -5   38.28   10.28
   3  17  -4    3.93    5.21
  -3  17   4    5.76   12.06
  -3 -17   4   16.67   12.85
   3 -17  -4    8.24    7.91
   3  17  -3   45.55   19.18
  -3  17   3   43.12   14.09
  -3 -17   3   97.40   16.03
   3 -17  -3   45.30   26.16
   3  17  -2    6.61   10.97
  -3  17   2    8.70    9.85
  -3 -17   2    8.46    8.88
   3 -17  -2    6.56    6.11
   3  17  -1   11.21   12.09
  -3  17   1    7.77    7.54
  -3 -17   1   10.91    4.66
   3 -17  -1   10.89   11.05
   3  17   0  164.99   21.44
  -3  17   0  157.67   23.05
  -3 -17   0  148.70   16.23
   3 -17   0  181.02   19.62
   3  17   1   10.53    4.97
  -3  17  -1   10.65    9.60
  -3 -17  -1   11.10    7.37
   3 -17   1    7.25   10.99
   3  17   2    6.52    6.49
  -3  17  -2    7.22    5.44
  -3 -17  -2   11.00    5.34
   3 -17   2    6.69    9.19
   3  17   3   48.18   21.81
  -3  17  -3   55.25   25.46
  -3 -17  -3   48.87   12.14
   3 -17   3   44.52   11.37
   3  17   4    6.86   12.81
  -3  17  -4    6.79    7.61
  -3 -17  -4   11.76    5.66
   3 -17   4   11.02    8.09
   3  17   5   28.97   27.88
  -3  17  -5   31.70   23.40
   3 -17   5   34.91   14.68
  -3 -17  -5   27.98   15.55
   3  17   6    4.29    4.31
  -3  17  -6    2.66    6.50
   3 -17   6    2.48    2.25
  -3 -17  -6    5.32    4.76
   3  17   7   21.59   26.84
  -3  17  -7   37.07    8.73
   3 -17   7   29.24   16.34
  -3 -17  -7   36.91   18.90
   3  18  -4   22.09   19.86
  -3  18   4   18.25   18.31
  -3 -18   4   20.58   26.17
   3 -18  -4   17.68   11.09
   3  18  -3    5.10    7.20
  -3  18   3    3.82    4.09
  -3 -18   3   49.45   42.21
   3 -18  -3    7.87    5.71
   3  18  -2   10.06   17.12
  -3  18   2   12.85   19.95
  -3 -18   2   20.51   14.39
   3 -18  -2    9.56   16.45
   3  18  -1    9.29   20.07
  -3  18   1   13.09   16.34
  -3 -18   1   14.37    9.99
   3 -18  -1   13.86    7.06
   3  18   0   51.22   10.94
  -3 -18   0   44.29   25.31
   3 -18   0   44.19   23.32
   3  18   1   10.21   15.89
  -3  18  -1    7.91    9.32
  -3 -18  -1   16.48   10.61
   3 -18   1   13.67   10.23
   3  18   2   14.73   11.27
  -3  18  -2   11.03   19.82
  -3 -18  -2   22.92   14.88
   3 -18   2   11.96   17.38
   3  18   3    4.74    7.13
  -3  18  -3    6.15    9.15
  -3 -18  -3    6.01    4.41
   3 -18   3    3.95    3.90
   3  18   4   19.66   19.47
  -3  18  -4   22.07   11.27
  -3 -18  -4   18.28   15.74
   3 -18   4   19.34   14.30
   4   0 -19    1.20    1.73
   4   0 -18   24.81    5.68
   4   0 -17   60.67    7.03
   4   0 -16    2.45    5.22
  -4   0  16    2.00    2.58
   4   0 -15  133.98   19.95
  -4   0  15  135.03   13.34
   4   0 -14   26.95   12.26
  -4   0  14   36.18   18.00
   4   0 -13  298.20   23.56
  -4   0  13  311.18   22.78
   4   0 -12    2.03    5.69
  -4   0  12    1.97    3.68
   4   0 -11  850.75   39.90
  -4   0  11  871.64   39.84
   4   0 -10  119.98   10.54
  -4   0  10   96.49   11.03
  -4   0   9   54.01    7.68
  -4   0   8   33.85    5.10
  -4   0   7  138.81    8.35
   4   0  -6  456.06   16.04
  -4   0   6  455.55   15.92
  -4   0   6  499.30   19.25
   4   0  -5    7.49    2.35
  -4   0   5    6.92    3.05
  -4   0   5    7.70    4.54
   4   0  -4    7.11    1.73
  -4   0   4    7.89    2.08
  -4   0   4    7.44    3.95
   4   0  -3 1501.66   18.68
  -4   0   3 1482.22   19.82
   4   0  -2 1344.66   17.68
  -4   0   2 1333.84   17.54
   4   0  -1 1936.02   24.45
  -4   0   1 1950.79   23.33
   4   0   0  112.43    6.57
   4   0   2 1078.89   17.33
   4   0   3 1474.87   22.19
   4   0   3 1334.09   14.95
   4   0   4   10.02    5.62
   4   0   4    7.70    1.71
   4   0   5   10.86    6.02
   4   0   5    7.32    1.41
   4   0   6  483.98   19.92
   4   0   7  141.98    8.67
   4   0   8   33.45    7.58
   4   0   9   57.58    8.12
   4   0  10  109.89   12.55
   4   0  11  887.95   42.02
   4   0  12    1.50    2.53
   4   0  13  306.62   22.57
   4   0  14   34.58    4.87
   4   0  15  139.44   13.37
   4   0  16    0.77    2.71
   4  -1 -19   51.45    8.20
   4   1 -19   48.97   11.64
   4  -1 -18   56.69    8.58
   4   1 -18   51.49   13.35
   4  -1 -17   28.06   21.74
   4   1 -17   30.85   20.07
   4  -1 -16   76.28    8.28
   4   1 -16   80.08    7.82
  -4  -1  16   75.09   13.51
   4  -1 -15   54.69   19.76
   4   1 -15   62.40   21.33
  -4   1  15   65.12   12.32
  -4  -1  15   48.29    7.67
   4  -1 -14   72.67   23.65
   4   1 -14   60.77   21.66
  -4   1  14   59.17    6.72
  -4  -1  14   58.27    7.10
   4  -1 -13   31.94   16.76
   4   1 -13   37.74   21.06
  -4   1  13   34.79   16.66
  -4  -1  13   26.27    5.61
   4  -1 -12  351.19   24.89
   4   1 -12  394.05   17.84
  -4   1  12  382.32   28.45
  -4  -1  12  392.23   16.17
   4  -1 -11   61.29    7.53
  -4   1  11   72.55    9.12
  -4  -1  11   63.31    7.00
   4  -1 -10   29.08   14.02
  -4   1  10   18.31   10.24
  -4  -1  10   26.30   13.67
   4  -1  -9  740.77   26.59
  -4   1   9  733.66   23.15
  -4  -1   9  730.99   23.63
   4  -1  -8  230.08   13.72
  -4   1   8  219.09   13.94
  -4  -1   8  230.46   12.82
   4   1  -7  930.24   17.99
   4   1  -7  968.55   18.68
  -4   1   7  957.00   18.37
   4  -1  -7  942.39   23.67
  -4   1   7  983.21   23.51
  -4  -1   7  970.53   23.10
   4  -1  -6 1017.11   20.20
   4   1  -6 1012.32   20.28
  -4   1   6  951.81   18.90
  -4  -1   6 1008.39   19.74
   4  -1  -6 1055.20   26.21
  -4   1   6 1019.31   23.43
  -4  -1   6 1053.67   23.93
  -4   1   5  314.43   13.56
   4   1  -5  321.61   13.58
  -4  -1   5  309.21   12.93
   4  -1  -5  343.02   14.71
  -4   1   5  349.40   11.82
  -4  -1   5  328.89   22.71
   4  -1  -4  364.59   11.01
   4   1  -4  347.30   11.23
  -4   1   4  347.42   11.58
   4  -1  -3  240.95   10.85
   4   1  -3  271.71   12.00
  -4   1   3  272.79   12.24
  -4  -1   3  256.61   12.48
   4  -1  -2  594.56   17.58
   4   1  -2  635.39   18.41
  -4   1   2  654.23   18.79
  -4  -1   2  576.41   17.31
   4  -1  -1  231.08   11.30
   4   1  -1  229.05   11.02
  -4   1   1  225.68   10.22
  -4  -1   1  232.96   10.71
   4  -1   0   53.69    5.13
   4   1   0   52.68    6.17
   4  -1   1  231.26   11.69
   4   1   1  231.99   11.59
   4  -1   1  238.19   11.12
   4  -1   2  482.28   15.65
   4   1   2  503.76   16.33
   4  -1   2  626.52   17.82
   4  -1   3  269.87   14.57
   4   1   3  253.45   12.37
  -4  -1  -3  258.69   11.02
   4  -1   3  253.51   11.09
   4  -1   4  337.61   23.55
   4   1   4  358.75   13.02
   4  -1   4  333.37   21.86
  -4  -1  -4  334.29   22.20
   4   1   4  387.20   11.20
   4  -1   4  338.00   22.35
   4  -1   5  322.74   22.87
   4   1   5  319.43   16.92
  -4  -1  -5  314.92   13.12
   4   1   5  308.75   12.76
   4  -1   6  983.54   25.54
   4   1   6 1047.36   25.60
  -4  -1  -6 1050.95   20.38
   4   1   6 1025.24   20.49
   4  -1   7 1005.42   24.43
   4   1   7  953.05   24.03
  -4  -1  -7 1061.34   20.61
   4   1   7  948.41   18.87
   4  -1   8  223.60   16.19
   4   1   8  227.75   13.09
  -4  -1  -8  214.25   10.18
   4   1   8  211.56   10.31
   4  -1   9  738.25   23.96
   4   1   9  739.93   24.13
   4  -1  10   24.68   12.12
   4   1  10   29.52   11.99
  -4  -1 -10   22.39    1.55
   4  -1  11   65.38    8.29
   4   1  11   68.63    7.73
  -4  -1 -11   65.87    5.12
   4  -1  12  367.77   17.99
   4   1  12  409.11   17.75
  -4  -1 -12  353.08   10.60
   4  -1  13   35.64   12.43
   4   1  13   31.90   15.70
   4  -1  14   61.22    6.57
   4   1  14   62.90   12.87
   4  -1  15   69.91    8.09
   4   1  15   50.29    6.46
   4  -1  16   74.84    7.30
   4   1  16   76.94    6.67
   4  -2 -19   94.48   15.15
   4   2 -19  108.43   12.85
   4  -2 -18    2.90    5.64
   4   2 -18    4.16    5.37
   4  -2 -17  143.87   10.06
   4   2 -17  151.32   12.44
  -4  -2  17  150.19   13.71
   4  -2 -16  266.87   21.97
   4   2 -16  246.68   28.11
  -4  -2  16  259.53   19.76
   4  -2 -15   95.71   10.37
   4   2 -15   79.55   15.95
  -4  -2  15  103.75    8.30
   4  -2 -14   14.26    6.54
   4   2 -14   18.88   12.24
  -4   2  14   14.58   10.31
  -4  -2  14   20.18   10.95
   4  -2 -13   58.87    9.59
  -4   2  13   66.53   12.89
  -4  -2  13   67.52    6.68
   4  -2 -12  127.50   12.80
  -4   2  12  131.73    8.09
  -4  -2  12  136.76   10.79
   4  -2 -11  247.25   20.58
  -4   2  11  256.98   19.13
  -4  -2  11  249.68   20.07
   4  -2 -10   15.59    6.63
  -4   2  10    8.16    5.75
  -4  -2  10    8.35    4.48
   4   2  -9  310.84   13.98
   4  -2  -9  273.04   22.62
  -4   2   9  306.02   21.27
  -4  -2   9  273.14   15.01
   4   2  -8  612.36    6.18
  -4   2   8  597.09    5.80
   4   2  -8  693.00   18.26
  -4   2   8  627.75    5.23
   4  -2  -8  705.09   25.39
  -4   2   8  652.09   12.41
  -4  -2   8  680.61   13.33
   4   2  -7 1137.64   22.83
  -4   2   7 1174.46   23.18
   4   2  -7 1243.20   24.82
   4  -2  -7 1379.09   32.93
  -4   2   7 1236.17   27.49
  -4  -2   7 1418.42   31.92
   4  -2  -6  278.46   11.78
   4   2  -6  340.39   12.71
   4  -2  -6  311.65   38.99
  -4   2   6  299.08   14.44
  -4  -2   6  293.02   13.77
   4  -2  -5  882.62   12.49
   4   2  -5  951.32   13.23
   4  -2  -5  905.53   21.68
  -4   2   5  922.35   15.10
  -4  -2   5  868.98   14.62
   4  -2  -4  928.57   13.31
   4   2  -4 1017.50   14.66
  -4   2   4  988.89   15.41
  -4  -2   4  962.99   15.25
   4   2  -3  680.36   19.70
  -4   2   3  645.50   19.06
   4  -2  -2  108.89    6.11
   4   2  -2  126.22    7.27
   4  -2  -2  105.74    6.66
  -4   2   2  112.70    6.74
  -4  -2   2  107.91    7.30
   4  -2  -1  287.34   15.59
   4   2  -1  338.67   12.45
  -4  -2   1  310.30   13.86
   4  -2  -1  273.79   12.97
  -4   2   1  309.25   13.33
  -4  -2   1  310.26   13.95
   4  -2   0  610.35   20.24
   4   2   0  588.07   18.15
  -4  -2   0  560.37   16.63
   4  -2   0  580.34   17.53
  -4   2   0  563.98   16.25
   4  -2   1  307.63   14.47
   4   2   1  307.31   14.56
  -4  -2  -1  318.92   14.09
   4  -2   1  313.07   14.00
   4  -2   2   80.25    5.90
   4   2   2   99.14    6.62
  -4  -2  -2  110.80    6.17
   4  -2   2  109.45    6.26
   4  -2   3  649.86   22.30
   4   2   3  615.79   19.64
  -4  -2  -3  644.92   17.99
   4  -2   3  655.93   18.25
   4  -2   4  985.66   17.96
   4   2   4  974.77   17.84
   4  -2   4 1016.42   12.15
   4  -2   5  921.88   17.38
   4   2   5  916.48   17.17
  -4  -2  -5  950.75   13.29
   4  -2   5  893.46    9.72
   4  -2   6  300.16   15.08
   4   2   6  361.05   15.78
  -4  -2  -6  298.44   12.50
   4  -2   7 1240.10   29.75
   4   2   7 1388.63   32.32
  -4  -2  -7 1230.21   24.59
   4  -2   8  647.63   14.21
   4   2   8  743.26   23.95
  -4  -2  -8  694.41   19.29
   4  -2   9  287.73   20.88
   4   2   9  294.76   16.98
  -4  -2  -9  324.16   15.60
   4  -2  10    8.53    5.19
   4   2  10   14.64    7.02
  -4  -2 -10    8.60    4.28
   4  -2  11  251.73   23.29
   4   2  11  247.71   20.08
  -4  -2 -11  245.27   15.92
   4  -2  12  139.51    8.90
   4   2  12  140.23    8.85
  -4  -2 -12  127.76    3.95
   4  -2  13   70.59    7.65
   4   2  13   63.89    9.57
   4  -2  14   15.11    9.10
   4   2  14   13.30    9.11
   4  -2  15   97.19    9.37
   4   2  15  101.95    7.37
   4  -2  16  344.47   26.95
   4   2  16  236.84   22.46
   4  -3 -20    9.08    5.90
   4  -3 -19    1.66    3.83
   4   3 -19    2.50    5.18
   4  -3 -18  177.72   19.45
   4   3 -18  173.90   20.59
   4  -3 -17   85.83   22.38
   4   3 -17   86.03   16.55
  -4  -3  17   91.49   12.10
   4  -3 -16   15.06   12.54
   4   3 -16    8.66   12.04
  -4  -3  16   10.69    5.95
   4  -3 -15  119.27   13.55
  -4  -3  15  130.82   14.78
   4  -3 -14   57.04   10.87
  -4  -3  14   64.61    8.92
   4  -3 -13  162.25   23.45
  -4   3  13  137.78   19.12
  -4  -3  13  171.01   17.79
   4  -3 -12   43.21   20.99
  -4   3  12   46.69   18.09
  -4  -3  12   32.22   17.03
   4   3 -11  263.58   15.02
   4  -3 -11  289.84   20.76
  -4   3  11  313.28   21.03
  -4  -3  11  329.20   22.07
   4   3 -10  309.13   15.74
  -4   3  10  295.48   14.95
   4   3 -10  325.36   16.82
   4  -3 -10  385.68   23.90
  -4   3  10  335.04   22.82
  -4  -3  10  342.13   23.67
   4   3  -9   28.63    4.57
  -4   3   9   27.31    5.71
   4   3  -9   31.35    4.87
  -4   3   9   30.01    3.77
   4  -3  -9   52.13    9.25
  -4   3   9   36.63    7.64
  -4  -3   9   45.67    9.77
   4   3  -8   41.91    6.14
  -4   3   8   39.81    5.18
   4  -3  -8   46.63    7.59
  -4   3   8   49.41   11.50
  -4  -3   8   50.49    6.97
   4   3  -7   81.76    6.53
  -4   3   7   43.94    4.17
   4  -3  -7   43.18    6.08
  -4   3   7   45.44    5.06
  -4  -3   7   56.86    5.97
   4  -3  -6 2868.43   55.83
   4   3  -6 2943.87  322.31
   4  -3  -6 2910.95  319.75
  -4   3   6 2784.50   56.99
  -4  -3   6 2913.45  319.28
   4  -3  -5   57.02    5.61
   4   3  -5   79.42    6.55
   4  -3  -5   54.46    6.46
  -4   3   5   48.07    4.70
  -4  -3   5   62.40    6.04
   4  -3  -4   14.53    5.43
   4   3  -4   31.89    9.52
   4  -3  -4   15.77   10.34
  -4   3   4   16.00    2.66
  -4  -3   4    7.35    4.72
   4  -3  -3  576.01   18.17
   4   3  -3  600.90   18.01
  -4  -3   3  614.74   18.96
   4  -3  -3  586.60   19.25
  -4   3   3  586.35   17.13
  -4  -3   3  593.19   18.95
   4   3  -2   44.11    6.17
   4  -3  -2   26.42    8.37
  -4   3   2   24.34    3.34
   4   3  -1  708.15   21.25
  -4  -3   1  819.72   13.66
   4  -3  -1  783.65   14.23
   4  -3   0   65.01    6.86
   4   3   0   65.87    6.72
  -4  -3   0   60.81    5.16
   4  -3   0   66.48    5.25
  -4   3   0   57.59    4.66
   4  -3   1  658.10   23.40
  -4  -3  -1  670.80   19.30
   4  -3   1  669.03   19.79
   4  -3   2   19.05    4.85
  -4  -3  -2   43.74    5.60
   4  -3   2   28.64    3.94
   4   3   3  636.90   20.61
   4  -3   3  591.85   17.06
   4  -3   4   20.48    9.33
  -4  -3  -4   23.92    3.47
   4  -3   4   18.77    5.33
  -4   3  -4   13.26    2.80
   4  -3   5   54.72    8.14
   4   3   5   79.59    8.01
  -4  -3  -5   67.63    5.48
   4  -3   5   59.57    4.77
   4  -3   6 2815.38   58.79
   4   3   6 2922.72  320.90
   4  -3   6 2647.07   49.38
  -4  -3  -6 2838.44   54.60
  -4   3  -6 2825.75   52.98
   4  -3   7   43.89    5.75
   4   3   7   79.15    8.66
   4  -3   7   48.32    3.51
  -4  -3  -7   80.00    6.34
  -4   3  -7   42.56    3.29
   4  -3   8   49.60    7.51
   4   3   8   50.27   12.23
  -4  -3  -8   48.93    7.01
   4  -3   9   36.75    6.17
   4   3   9   48.09    7.34
  -4  -3  -9   41.27    5.72
   4  -3  10  333.51   20.42
   4   3  10  372.20   22.82
  -4  -3 -10  345.07   18.29
   4  -3  11  301.52   20.71
   4   3  11  348.49   23.19
  -4  -3 -11  319.72   19.38
   4  -3  12   40.62    7.43
   4   3  12   38.75   15.26
  -4  -3 -12   37.11    6.93
   4  -3  13  171.09   16.69
   4   3  13  171.69   17.22
  -4  -3 -13  142.88   12.19
   4   3  14   58.94    8.11
   4  -3  15  136.26   13.97
   4   3  15  132.89   13.11
   4  -3  16    9.23    5.64
   4   3  16    8.42    5.25
   4  -4 -18    8.09    9.42
   4   4 -18    7.40    6.41
  -4  -4  18    7.14   11.25
   4  -4 -17   12.12    9.27
   4   4 -17    7.67    7.31
  -4  -4  17    9.46   10.40
   4  -4 -16   14.66   15.39
  -4  -4  16   20.73   12.35
   4  -4 -15   20.78   12.40
  -4  -4  15   25.82   12.46
   4  -4 -14  580.09   38.81
  -4  -4  14  609.55   35.38
   4  -4 -13  130.96   18.50
  -4  -4  13  134.20   11.16
   4  -4 -12  136.22   14.81
  -4  -4  12  129.62   11.34
  -4   4  11  140.83    3.81
   4   4 -11  156.10    4.63
   4  -4 -11  162.07   15.58
  -4   4  11  156.50   10.19
  -4  -4  11  165.75    8.22
   4   4 -10  663.85   29.74
   4  -4 -10  662.14   35.36
  -4   4  10  588.93   28.55
  -4  -4  10  619.31   31.51
   4   4  -9  212.29   13.55
  -4   4   9  201.03   12.80
   4  -4  -9  175.28   16.10
  -4   4   9  210.04   14.40
  -4  -4   9  177.27   15.23
   4   4  -8   35.80    4.85
  -4   4   8   33.63    4.83
   4  -4  -8   35.61    8.34
  -4   4   8   36.24    5.64
  -4  -4   8   40.09    7.08
   4   4  -7  343.00   18.45
  -4   4   7  324.36   16.54
   4  -4  -7  330.53   24.18
  -4   4   7  343.11   18.12
  -4  -4   7  334.21   20.53
   4  -4  -6  202.11   10.43
   4   4  -6  197.85   10.22
   4  -4  -6  202.48   11.90
  -4   4   6  210.28   11.03
  -4  -4   6  194.55   13.00
   4  -4  -5   41.12    4.32
   4   4  -5   37.29    4.99
   4  -4  -5   46.17    7.58
  -4   4   5   35.41    5.94
  -4  -4   5   40.50    4.41
   4  -4  -4  395.31   15.58
   4   4  -4  396.91   17.69
  -4  -4   4  401.35   16.13
   4  -4  -4  385.89   18.38
  -4   4   4  376.58   14.57
  -4  -4   4  393.29   15.83
   4  -4  -3  334.90   23.14
   4   4  -3  387.00   12.99
  -4  -4   3  341.99   11.96
   4  -4  -3  333.09   24.34
  -4   4   3  370.46   11.54
  -4  -4   3  343.89   11.99
   4  -4  -2 2890.32   35.66
   4   4  -2 2973.17   36.58
  -4  -4   2 2947.95   35.33
   4  -4  -2 2902.03   38.58
  -4   4   2 2952.87   33.06
  -4  -4   2 2983.25   37.15
   4  -4  -1 2360.90   36.26
   4   4  -1 2561.11   32.41
  -4  -4   1 2353.82   29.97
   4  -4  -1 2358.19   33.32
  -4   4   1 2441.63   26.87
   4  -4   0  967.54   17.64
   4   4   0 1012.74   17.84
  -4  -4   0  955.35   15.01
   4  -4   0 1015.58   17.67
  -4   4   0  952.58   12.30
   4  -4   1 2422.61   32.71
   4   4   1 2429.18   31.79
   4  -4   1 2419.53   31.19
  -4   4  -1 2364.84   25.17
   4   4   2 2911.37   37.24
   4  -4   2 2932.59   34.34
   4   4   3  352.16   13.02
  -4  -4  -3  352.27   16.05
   4  -4   3  373.91   11.97
   4   4   4  379.82   17.04
  -4  -4  -4  373.65   14.72
   4  -4   4  385.81   14.53
   4  -4   5   45.63    6.88
   4   4   5   39.46    4.95
  -4  -4  -5   37.50    4.01
   4  -4   5   34.44    3.26
   4  -4   6  255.53   14.25
   4   4   6  217.36   11.71
   4  -4   6  198.68    8.77
  -4  -4  -6  210.08   10.37
   4  -4   7  428.36   13.46
   4   4   7  335.30   18.37
   4  -4   7  436.95    8.01
  -4  -4  -7  468.91   13.85
   4  -4   8   37.51    8.18
   4   4   8   33.80   10.47
   4  -4   8   32.35    3.89
  -4  -4  -8   36.68    6.23
  -4   4  -8   28.85    3.64
   4   4   9  183.51   16.57
  -4  -4  -9  212.07   15.00
  -4   4  -9  150.55    9.35
   4   4  10  703.31   33.68
  -4  -4 -10  663.34   31.81
  -4   4 -10  598.79   25.09
   4  -4  11  224.73   15.13
   4   4  11  177.92   10.33
  -4  -4 -11  147.01    8.67
   4   4  12  141.68   13.21
  -4  -4 -12  133.92   10.25
   4  -4  13  132.41   12.10
   4   4  13  130.24   11.43
  -4  -4 -13  139.75    9.78
   4  -4  14  526.86   32.40
   4   4  14  587.32   39.47
   4  -4  15   32.08   11.68
   4   4  15   23.17   13.35
   4  -4  16   19.15   12.80
   4   4  16   19.74   10.92
   4  -5 -19   26.62   22.01
   4  -5 -18   37.84   20.70
  -4  -5  18   34.66   25.46
   4  -5 -17  155.48   17.66
  -4  -5  17  159.04   16.34
   4  -5 -16  106.22   10.00
  -4  -5  16  103.25    9.85
   4  -5 -15   93.77   15.24
  -4  -5  15  104.85   14.17
   4  -5 -14    5.55    4.50
  -4  -5  14    3.68    4.85
   4  -5 -13  106.20   15.07
  -4  -5  13  120.67   13.01
   4  -5 -12  474.75   33.45
  -4  -5  12  469.75   33.44
  -4   5  11  315.14   10.49
   4   5 -11  325.11   11.16
   4  -5 -11  322.01   16.14
  -4  -5  11  317.18   16.54
   4   5 -10   65.86    6.67
  -4   5  10   57.69    4.98
   4  -5 -10   50.56   15.08
  -4  -5  10   56.65    6.43
   4   5  -9   69.95    8.87
  -4   5   9   64.13    8.06
   4  -5  -9   78.88   14.57
  -4   5   9   72.80    8.69
  -4  -5   9   81.81    9.90
   4   5  -8  415.96   22.37
  -4   5   8  401.86   21.92
   4  -5  -8  374.84   24.95
  -4   5   8  416.38   23.21
  -4  -5   8  395.24   21.94
   4   5  -7  444.03    9.43
  -4   5   7  437.16    9.21
   4  -5  -7  405.51   12.77
  -4   5   7  449.66   10.57
  -4  -5   7  416.53   13.96
   4  -5  -6  543.77   10.60
   4   5  -6  550.07   10.61
  -4  -5   6  567.78   13.25
   4  -5  -6  528.84   14.98
  -4   5   6  527.12   11.06
  -4  -5   6  504.66   11.29
   4  -5  -5  979.57   22.82
   4   5  -5 1024.57   24.51
  -4  -5   5  975.79   24.61
   4  -5  -5 1006.50   25.83
  -4   5   5 1024.89   23.29
  -4  -5   5 1005.09   23.72
   4  -5  -4 1139.07   26.31
   4   5  -4 1249.06   27.56
  -4  -5   4 1153.75   27.66
   4  -5  -4 1165.38   34.04
  -4   5   4 1304.47   27.34
  -4  -5   4 1194.32   26.62
   4  -5  -3  185.60   10.25
   4   5  -3  184.81    9.58
  -4  -5   3  175.81   11.16
   4  -5  -3  186.18   10.82
  -4   5   3  181.96    8.38
  -4  -5   3  183.12    9.20
   4  -5  -2  530.31   22.07
   4   5  -2  569.78   22.12
  -4  -5   2  530.13   20.43
   4  -5  -2  537.04   21.66
  -4   5   2  552.02   19.90
  -4  -5   2  523.31   20.13
   4  -5  -1 1073.28   26.04
   4   5  -1  978.93   23.63
  -4  -5   1 1069.76   24.06
   4  -5  -1 1029.40   24.76
  -4   5   1  991.05   20.94
   4  -5   0 3138.10  344.07
   4   5   0 3195.73  350.43
  -4  -5   0 4086.18  447.62
   4  -5   0 3138.44  343.94
  -4   5   0 3274.14  358.01
   4  -5   1  954.03   25.78
   4   5   1 1091.75   25.77
  -4  -5  -1 1212.68   30.40
   4  -5   1  969.57   23.79
  -4   5  -1 1062.58   20.50
   4   5   2  515.88   20.71
  -4  -5  -2  543.91   20.58
   4  -5   2  551.32   21.10
   4  -5   3  173.95   10.13
   4   5   3  181.23   10.40
  -4  -5  -3  168.96    9.98
   4  -5   3  174.90    9.11
   4  -5   4 1229.85   31.06
   4   5   4 1166.95   27.96
  -4  -5  -4 1183.73   27.51
   4  -5   4 1265.39   26.76
   4  -5   5  952.41   26.04
   4   5   5 1003.45   25.81
  -4  -5  -5  960.94   22.19
   4  -5   5  967.16   21.50
   4  -5   6  488.46   14.66
   4   5   6  553.21   14.77
   4  -5   6  517.17    8.20
  -4  -5  -6  596.10   12.08
   4  -5   7  448.42   13.09
   4   5   7  429.76   12.57
   4  -5   7  423.67    6.81
   4  -5   8  396.01   23.96
   4   5   8  394.52   25.92
   4  -5   8  395.44   20.67
  -4  -5  -8  432.15   23.74
   4  -5   9   66.68    9.10
   4   5   9   75.78    9.47
  -4  -5  -9   68.77   12.37
   4  -5  10   64.42   11.98
   4   5  10   62.69   17.40
  -4  -5 -10   73.22   14.40
   4  -5  11  312.73   15.54
   4   5  11  337.91   17.14
  -4  -5 -11  337.21   13.58
   4  -5  12  464.02   32.64
   4   5  12  481.99   35.40
  -4  -5 -12  481.04   31.74
   4  -5  13  109.62   16.13
   4   5  13  126.19   18.52
  -4  -5 -13  124.56   12.37
   4  -5  14    9.31    5.69
   4   5  14    3.55    5.52
  -4  -5 -14    6.35    4.94
   4  -5  15   91.55   11.85
   4   5  15   96.49   13.01
   4  -5  16   88.20    9.95
   4   5  16  101.54    7.87
   4  -6 -19    5.73   11.86
  -4  -6  18    2.47    4.52
   4  -6 -17   30.22    9.97
  -4  -6  17   26.25   16.57
   4  -6 -16  185.06   21.29
  -4  -6  16  227.80   19.92
   4  -6 -15   51.41    7.34
  -4  -6  15   50.53   26.15
   4  -6 -14    6.96    5.27
  -4  -6  14    2.36    2.31
   4  -6 -13    7.77    6.60
  -4  -6  13   12.15    7.22
   4   6 -12   68.56    4.78
   4  -6 -12   70.77   25.56
  -4  -6  12   73.79    8.76
  -4   6  11    7.69    4.14
   4   6 -11    8.76    5.86
   4  -6 -11    8.29    5.80
  -4  -6  11    5.30    3.80
   4   6 -10    0.17    2.24
  -4   6  10    2.87    2.61
   4  -6 -10    3.81    6.78
  -4  -6  10    1.50    3.34
  -4   6   9   19.41    4.67
   4  -6  -9   21.04   15.32
  -4  -6   9   22.05    5.79
   4   6  -8  628.62   23.63
  -4   6   8  613.22   23.64
   4  -6  -8  557.91   25.36
  -4  -6   8  563.10   22.19
   4   6  -7   81.29    9.39
  -4   6   7   67.54    9.45
  -4  -6   7   82.06   11.95
   4  -6  -7   94.12   26.15
  -4   6   7   66.24    7.60
  -4  -6   7   73.14   10.57
   4   6  -6   34.02    5.52
  -4  -6   6   33.97    5.94
   4  -6  -6   19.81    4.67
  -4   6   6   23.93    3.84
  -4  -6   6   26.73    4.68
   4  -6  -5  123.06   12.37
   4   6  -5  102.62    9.14
  -4  -6   5  133.14   11.76
   4  -6  -5  129.75   12.56
  -4   6   5  102.90    8.97
  -4  -6   5  120.44   10.33
   4  -6  -4 1616.54   38.75
   4   6  -4 1694.80   36.49
  -4  -6   4 1611.10   36.93
   4  -6  -4 1639.89   37.54
  -4   6   4 1721.41   35.76
  -4  -6   4 1703.25   36.22
   4  -6  -3   86.58    8.01
   4   6  -3  121.08    8.18
   4  -6  -3   94.12    8.01
  -4   6   3   85.10    7.72
   4  -6  -2    6.43    3.41
   4   6  -2    5.09    3.53
  -4  -6   2    6.91    3.99
   4  -6  -2    6.21    3.50
  -4   6   2    3.82    1.46
  -4  -6   2    4.08    2.04
   4  -6  -1   41.04    6.67
   4   6  -1   47.42    5.50
  -4  -6   1   50.00    5.85
   4  -6  -1   40.19    6.33
  -4   6   1   43.29    3.59
   4  -6  -1   29.93    2.60
   4  -6   0  376.87   19.11
   4   6   0  379.45   16.57
   4  -6   0  389.84   16.68
  -4   6   0  382.08   13.51
   4  -6   1   40.49    7.39
   4   6   1   40.65   14.60
  -4  -6  -1   44.51    5.35
   4  -6   1   47.37   14.89
  -4   6  -1   33.33    2.48
   4  -6   2    3.99    3.03
   4   6   2    7.24    3.58
  -4  -6  -2    2.36    5.23
   4  -6   2    5.51    2.77
  -4   6  -2    4.60    1.02
   4  -6   3   88.71   11.57
  -4  -6  -3  114.90    7.05
   4  -6   3  101.38    7.35
  -4   6  -3   68.64    5.14
   4  -6   4 1695.84   43.24
   4   6   4 1704.08   40.41
  -4  -6  -4 1696.11   36.52
   4  -6   4 1756.34   36.54
  -4   6  -4 1499.09   28.83
   4  -6   5  108.05   10.35
   4   6   5  108.94   15.38
  -4  -6  -5  117.33   16.88
   4  -6   5   95.29    8.36
   4  -6   6   23.76    8.75
   4   6   6   32.55    5.67
   4  -6   6   25.04    3.76
  -4  -6  -6   35.79    6.01
   4  -6   7   60.79    8.05
   4   6   7   76.47    9.77
   4  -6   7   64.12    7.09
  -4  -6  -7   77.28   10.38
   4  -6   8  609.18   26.85
   4   6   8  564.79   27.16
  -4  -6  -8  638.83   24.45
   4  -6   9   17.62   13.54
   4   6   9   33.24    7.64
   4  -6   9   17.07    2.22
  -4  -6  -9   32.70    4.38
   4  -6  10    1.65    4.12
   4   6  10    2.91    5.93
   4  -6  10    1.70    1.34
  -4  -6 -10    1.41    2.81
   4  -6  11    6.57    5.48
   4   6  11    3.86    3.97
  -4  -6 -11    9.90    5.12
   4  -6  12   74.45    9.41
   4   6  12   70.34    9.62
  -4  -6 -12   68.88    6.37
   4  -6  13    8.79    4.71
   4   6  13   14.36    7.53
  -4  -6 -13    6.69    5.86
   4  -6  14    3.86    3.40
   4   6  14    2.67    6.32
  -4  -6 -14    2.11    2.70
   4  -6  15   46.48    5.38
   4   6  15   45.50   14.85
   4  -6  16  195.28   20.55
   4   6  16  232.73   21.26
   4  -7 -18   15.00   17.09
  -4  -7  18   16.20   19.02
   4  -7 -17   95.21   12.62
  -4  -7  17   88.09   10.85
   4  -7 -16   83.76    9.19
  -4  -7  16   79.30    8.55
   4  -7 -15    2.42    3.62
  -4  -7  15    1.37    2.74
   4  -7 -14  118.27   21.60
  -4  -7  14  128.79   15.13
   4  -7 -13    3.35    5.64
  -4  -7  13    6.38    4.06
  -4   7  12   46.61    3.83
   4   7 -12   41.24    4.13
   4  -7 -12   42.27    8.29
  -4  -7  12   54.26    5.57
  -4   7  11  152.94   10.56
   4   7 -11  157.80   11.47
   4  -7 -11  153.97   13.94
  -4  -7  11  143.85   11.07
   4   7 -10   55.86    5.01
  -4   7  10   50.47    4.57
   4  -7 -10   44.43   18.87
  -4  -7  10   47.90    5.26
   4   7  -9   79.76   10.22
  -4   7   9   81.25   10.07
   4  -7  -9   74.46   11.65
  -4  -7   9   84.72   11.83
   4   7  -8   88.81   10.10
  -4   7   8   88.75    9.89
  -4  -7   8   81.39   10.19
   4  -7  -8   90.68   23.60
  -4  -7   8   79.08   10.57
   4   7  -7  545.62   23.16
  -4   7   7  573.57   22.57
  -4  -7   7  588.50   24.23
   4  -7  -7  581.43   25.48
  -4  -7   7  570.00   22.64
   4   7  -6   93.84   10.34
  -4   7   6   87.64    9.62
  -4  -7   6   84.87   10.26
   4  -7  -6   77.25   10.08
  -4  -7   6   87.35    9.57
   4  -7  -5  863.98   26.98
   4   7  -5  810.90   24.86
  -4  -7   5  811.73   26.22
   4  -7  -5  800.18   27.73
  -4  -7   5  820.22   26.71
   4  -7  -4  206.51   13.42
   4   7  -4  221.32   14.85
  -4  -7   4  230.76   13.56
   4  -7  -4  216.23   14.16
  -4  -7   4  212.98   11.80
   4  -7  -3  113.54   10.86
   4   7  -3  106.62    9.84
  -4  -7   3  112.54   10.30
   4  -7  -3  114.01   16.77
  -4  -7   3  100.72   10.55
   4  -7  -2  297.69   16.66
   4   7  -2  326.88   17.42
  -4  -7   2  333.10   17.83
   4  -7  -2  304.71   18.61
  -4  -7   2  306.75   15.78
   4  -7  -1  184.92   11.47
   4   7  -1  172.60   13.37
   4  -7  -1  185.41   13.48
   4  -7  -1  154.87   11.60
   4  -7   0  311.68   35.71
   4   7   0  319.87   14.63
  -4  -7   0  348.06   15.23
   4  -7   0  305.20   18.61
   4  -7   1  163.72   13.95
   4   7   1  171.02   11.70
  -4  -7  -1  163.39   14.34
   4  -7   1  174.19   11.39
   4  -7   2  216.40   13.88
   4   7   2  302.83   16.87
  -4  -7  -2  318.10   16.47
   4  -7   2  318.10   16.88
   4  -7   3  119.44   11.72
   4   7   3  123.88   11.82
  -4  -7  -3   97.97    8.83
   4  -7   3  110.54    9.93
   4  -7   4  200.10   13.91
   4   7   4  248.22   15.27
  -4  -7  -4  180.74   11.71
   4  -7   4  179.73   11.75
   4  -7   5  820.16   29.70
   4   7   5  856.97   28.11
  -4  -7  -5  803.13   25.56
   4  -7   5  813.17   23.92
   4  -7   6   96.33   11.78
   4   7   6   85.99   10.76
   4  -7   6   98.63   11.22
  -4  -7  -6   97.40   10.94
   4  -7   7  555.79   31.72
   4   7   7  586.01   25.84
   4  -7   7  527.88   22.25
  -4  -7  -7  641.05   28.48
   4  -7   8   88.75   10.81
   4   7   8   94.38   11.81
   4  -7   8   90.09   10.09
  -4  -7  -8   89.66    9.97
   4  -7   9   81.76   14.42
   4   7   9   86.11   18.13
   4  -7   9   79.18    9.16
  -4  -7  -9   83.14   10.70
   4  -7  10   45.02    5.74
   4   7  10   43.51    6.58
   4  -7  10   48.79    3.38
  -4  -7 -10   52.55    4.94
   4  -7  11  146.03   11.85
   4   7  11  149.53   12.37
   4  -7  11  157.81    9.93
  -4  -7 -11  152.66   11.05
   4  -7  12   47.24   20.09
   4   7  12   57.01   11.56
  -4  -7 -12   43.99    4.18
   4  -7  13    1.67    3.34
   4   7  13    5.84    4.68
  -4  -7 -13    0.89    2.01
   4  -7  14  127.64   16.19
   4   7  14  140.96   17.16
  -4  -7 -14  123.20   13.61
   4  -7  15    1.27    2.54
   4   7  15    1.15    2.39
   4  -7  16   68.47    7.88
   4   7  16   88.99    8.36
   4  -8 -18    4.77    8.84
  -4  -8  18    4.67    3.83
   4  -8 -17   21.30   29.81
  -4  -8  17   31.32   18.12
   4  -8 -16    6.97    5.10
  -4  -8  16    6.95    5.41
   4  -8 -15   15.88   18.81
  -4  -8  15   22.63   14.66
   4  -8 -14  243.55   20.84
  -4  -8  14  234.63   24.76
   4  -8 -13  114.33   19.17
  -4  -8  13  118.63   13.87
  -4   8  12   15.31    8.46
   4   8 -12   14.60    6.49
   4  -8 -12   16.58    9.93
  -4  -8  12   17.24   10.24
  -4   8  11  147.44   12.71
   4   8 -11  136.01   11.48
   4  -8 -11  152.31   18.93
  -4  -8  11  156.92   13.95
   4   8 -10  243.44   13.09
  -4   8  10  249.30   13.23
   4  -8 -10  267.40   23.70
  -4  -8  10  269.54   21.72
   4   8  -9  306.70   21.87
  -4   8   9  292.04   21.28
  -4  -8   9  267.54   26.76
   4  -8  -9  272.38   13.68
  -4  -8   9  248.13   20.77
   4   8  -8   49.09    8.66
  -4   8   8   56.49    8.38
  -4  -8   8   54.72   12.97
   4  -8  -8   57.21   10.22
  -4  -8   8   58.26    9.69
   4   8  -7   12.18    6.93
  -4   8   7   11.33   10.47
  -4  -8   7   13.09    7.77
   4  -8  -7   15.75    9.45
  -4  -8   7   14.51    3.61
   4   8  -6   26.11    4.81
  -4   8   6   26.16   11.23
  -4  -8   6   23.97   14.98
   4  -8  -6   32.46   17.02
  -4  -8   6   23.91    5.12
   4   8  -5   91.36   10.38
  -4   8   5   95.44   10.80
  -4  -8   5  102.59   14.30
   4  -8  -5   96.35   12.31
  -4  -8   5   99.13   10.62
   4  -8  -4  146.30   11.21
   4   8  -4  151.22   11.36
  -4  -8   4  132.94   10.59
   4  -8  -4  153.70   14.18
  -4  -8   4  142.41   10.01
   4  -8  -3  180.34   11.69
   4   8  -3  163.47   14.36
  -4  -8   3  179.15   12.80
   4  -8  -3  181.78   14.20
  -4  -8   3  185.57   10.51
   4  -8  -2  635.30   15.64
   4   8  -2  614.74   14.19
   4  -8  -2  632.38   15.48
  -4  -8   2  631.81   14.00
   4  -8  -1  400.72   17.25
   4   8  -1  407.29   11.67
   4  -8  -1  415.63   12.14
   4  -8  -1  365.68    4.21
   4  -8   0  108.75   10.64
   4   8   0  106.15   10.67
  -4  -8   0  103.37    9.89
   4  -8   0  101.74    9.71
   4  -8   1  430.23   14.50
   4   8   1  408.21   12.05
  -4  -8  -1  390.55   11.77
   4  -8   1  405.65   11.74
   4   8   2  611.87   18.49
  -4  -8  -2  590.94   14.57
   4  -8   2  615.61   16.90
   4  -8   3  178.24   14.51
   4   8   3  178.22   11.87
  -4  -8  -3  159.74   13.46
   4  -8   3  169.17    8.72
   4  -8   4  145.88   11.82
   4   8   4  145.08   14.99
  -4  -8  -4  143.30   10.62
   4  -8   4  143.63   10.44
   4  -8   5   91.88   11.31
   4   8   5  106.05   18.72
  -4  -8  -5   84.19    9.61
   4  -8   5   94.71   10.25
  -4   8  -5  100.45    9.65
   4  -8   6   27.93   14.10
   4   8   6   27.89   18.03
   4  -8   6   27.36    3.65
  -4  -8  -6   30.00    7.09
   4  -8   7   11.64   10.22
   4   8   7   13.97    9.51
   4  -8   7   11.67    6.39
  -4  -8  -7   15.70    7.56
   4  -8   8   58.09   10.47
   4   8   8   61.25   25.18
   4  -8   8   52.10    8.00
  -4  -8  -8   57.44   16.81
   4  -8   9  299.42   26.47
   4   8   9  252.93   22.22
   4  -8   9  343.09   25.23
  -4  -8  -9  319.45   24.15
   4  -8  10  246.13   15.09
   4   8  10  286.02   16.64
   4  -8  10  233.36   11.20
  -4  -8 -10  263.51   16.10
   4  -8  11  141.45    9.69
   4   8  11  156.51   18.32
   4  -8  11  136.80    8.69
  -4  -8 -11  141.16   10.17
   4  -8  12   21.14   11.75
   4   8  12   16.01   10.87
  -4  -8 -12   18.36    4.55
   4  -8  13  107.15   13.62
   4   8  13  110.42   15.91
  -4  -8 -13  104.96   12.27
   4  -8  14  261.39   22.34
   4   8  14  239.26   20.00
  -4  -8 -14  255.80   18.10
   4  -8  15   18.64   13.42
   4   8  15   19.37   17.77
   4  -8  16    5.82    3.66
   4   8  16    5.61    6.17
   4  -9 -17    7.40    6.92
  -4  -9  17    5.02    4.83
   4  -9 -16   14.28   12.44
  -4  -9  16   12.99    8.77
   4  -9 -15  125.73   16.48
  -4  -9  15  145.79   15.60
   4  -9 -14   15.57   13.32
  -4  -9  14   12.69    5.62
   4  -9 -13  108.62   12.17
  -4  -9  13   99.81    9.27
  -4   9  12   12.19    8.29
   4   9 -12   10.96    6.38
   4  -9 -12   16.70   12.43
  -4  -9  12   18.05    8.71
  -4   9  11  199.12   16.12
   4   9 -11  205.75   17.52
   4  -9 -11  208.19   18.86
  -4  -9  11  208.83   17.24
   4   9 -10   98.43    9.80
  -4   9  10   96.06    7.84
  -4  -9  10   81.38    9.86
   4  -9 -10   68.22   12.44
  -4  -9  10   77.92   13.68
   4   9  -9  172.78   15.21
  -4   9   9  171.21   15.73
  -4  -9   9  190.09   14.04
   4  -9  -9  178.28   21.47
  -4  -9   9  180.87   13.17
   4   9  -8  121.47   10.89
  -4   9   8  112.20   10.10
  -4  -9   8  113.89   10.23
   4  -9  -8  121.16   13.74
  -4  -9   8  106.18   10.29
   4   9  -7   49.74    8.63
  -4   9   7   47.91    9.66
  -4  -9   7   40.95   10.26
   4  -9  -7   52.95   20.74
  -4  -9   7   45.51    7.56
   4   9  -6  573.00   28.03
  -4   9   6  583.62   30.46
  -4  -9   6  567.76   28.13
   4  -9  -6  598.13   30.48
  -4  -9   6  569.58   28.69
   4   9  -5  102.31   12.50
  -4   9   5   95.23   11.07
  -4  -9   5   95.93   11.68
   4  -9  -5   98.56   12.60
  -4  -9   5  100.05   11.40
   4  -9  -4  105.77   12.76
   4   9  -4   87.37   10.10
  -4  -9   4   84.96   10.07
   4  -9  -4   98.23   12.45
  -4  -9   4   93.06   10.27
   4  -9  -3  568.41   33.81
   4   9  -3  622.45   25.61
  -4  -9   3  645.07   26.80
   4  -9  -3  596.53   25.08
  -4  -9   3  585.65   23.43
   4  -9  -2   26.89    6.56
   4   9  -2   24.84   11.99
  -4  -9   2  185.12   55.74
   4  -9  -2   32.23    7.09
  -4  -9   2   30.98    3.36
   4  -9  -1  536.35   23.32
   4   9  -1  593.94   29.87
  -4  -9   1  548.09   28.41
   4  -9  -1  533.23   22.41
  -4  -9   1  563.15   21.97
   4  -9   0  259.41   16.51
   4   9   0  247.46   15.80
  -4  -9   0  235.99   16.61
   4  -9   0  256.62   16.41
   4  -9   1  613.09   27.43
   4   9   1  549.03   25.28
  -4  -9  -1  572.67   23.27
   4  -9   1  614.80   25.34
   4  -9   2   15.28   10.51
   4   9   2   33.46   15.85
  -4  -9  -2   21.31    9.48
   4  -9   2   24.55   11.17
   4  -9   3  603.20   27.06
   4   9   3  573.34   29.70
  -4  -9  -3  553.81   26.26
   4  -9   3  572.38   32.46
   4  -9   4   84.71   11.63
   4   9   4   97.89   11.73
  -4  -9  -4   79.69    9.34
   4  -9   4   83.62    9.26
   4  -9   5   92.73   14.01
   4   9   5  105.27   12.55
  -4  -9  -5   94.21   10.49
   4  -9   5  109.33   11.74
   4  -9   6  568.86   29.45
   4   9   6  592.74   29.55
   4  -9   6  578.38   28.94
  -4  -9  -6  545.09   26.94
   4  -9   7   45.82    8.23
   4   9   7   48.23    8.42
   4  -9   7   47.07    7.07
  -4  -9  -7   68.94   12.76
   4  -9   8  116.13   11.31
   4   9   8  105.25   11.33
   4  -9   8  104.70    8.96
  -4  -9  -8  122.34   11.09
  -4  -9  -9  171.66   13.70
   4  -9  10  105.51   10.09
   4   9  10   65.36    9.13
   4  -9  10   89.64    5.17
   4  -9  11  188.29   16.72
   4   9  11  203.41   18.06
  -4  -9 -11  202.07   16.92
   4  -9  12   18.24   11.89
   4   9  12   16.92   12.39
  -4  -9 -12   17.09   14.65
   4  -9  13  116.82   13.90
   4   9  13  109.27   11.50
  -4  -9 -13  109.67   11.89
   4  -9  14   17.25    8.90
   4   9  14    9.06   13.22
  -4  -9 -14   11.19   11.74
   4  -9  15  127.23   14.55
   4   9  15  144.12   15.22
   4 -10 -17   67.91   13.98
  -4 -10  17   61.20    8.73
   4 -10 -16    2.81    5.26
  -4 -10  16    2.03    3.09
   4 -10 -15   36.30   19.81
  -4 -10  15   24.82   21.91
   4 -10 -14   10.16    7.83
  -4 -10  14   11.00    6.32
   4 -10 -13    3.34    3.71
  -4 -10  13    5.68    3.11
  -4  10  12   35.67    5.12
   4  10 -12   31.46    4.44
   4 -10 -12   35.22   23.98
  -4 -10  12   38.41    4.88
  -4  10  11   39.14    9.56
   4  10 -11   47.13   16.75
   4 -10 -11   30.53   21.74
  -4 -10  11   37.52   14.74
   4  10 -10   21.95    7.94
  -4  10  10   25.26   11.56
  -4 -10  10   25.38   11.23
   4 -10 -10   29.83   20.28
  -4 -10  10   25.29    8.92
  -4  10   9  245.64   17.23
  -4 -10   9  250.68   17.98
   4 -10  -9  280.16   20.99
  -4 -10   9  249.91   16.33
   4  10  -8  119.99   12.88
  -4  10   8  111.11   11.49
  -4 -10   8  110.17   11.67
   4 -10  -8  109.61   13.21
  -4 -10   8  101.73   10.35
   4  10  -7  353.93   25.00
  -4  10   7  336.90   26.53
  -4 -10   7  295.95   24.81
   4 -10  -7  328.19   24.89
  -4 -10   7  305.18   21.39
   4  10  -6    1.82    2.60
  -4  10   6    2.22    3.51
  -4 -10   6    1.71    3.20
   4 -10  -6    3.89    6.55
  -4 -10   6    3.17    2.20
   4  10  -5  522.24   21.24
  -4  10   5  548.93   24.06
  -4 -10   5  477.26   28.94
   4 -10  -5  513.69   36.86
  -4 -10   5  508.56   19.21
   4  10  -4   95.75   15.84
  -4  10   4   98.09   12.83
  -4 -10   4  105.66   13.25
   4 -10  -4  116.46   15.21
  -4 -10   4  123.54   14.41
   4 -10  -3  272.51   20.17
   4  10  -3  263.41   18.57
  -4 -10   3  356.82   24.98
   4 -10  -3  268.93   22.39
  -4 -10   3  266.17   17.17
   4 -10  -2   38.20    5.86
   4  10  -2   47.60    7.30
  -4 -10   2   62.98    9.53
   4 -10  -2   45.56    7.73
  -4 -10   2   35.84    5.58
   4 -10  -1   82.64   13.04
   4  10  -1   77.20   15.42
  -4 -10   1   90.25   10.79
   4 -10  -1   84.93   10.47
  -4 -10   1   86.92    9.19
   4 -10   0   75.87    9.98
   4  10   0   65.68   11.75
  -4 -10   0   54.54   13.27
   4 -10   0   63.23   11.31
   4 -10   1   76.99   10.94
   4  10   1   88.82   11.46
  -4 -10  -1   77.54   10.64
   4 -10   1   79.51    9.70
   4 -10   2   35.44   20.30
   4  10   2   38.87    9.50
  -4 -10  -2   44.18   10.16
   4 -10   2   49.02   18.72
   4 -10   3  265.17   21.47
   4  10   3  272.72   19.52
  -4 -10  -3  260.90   18.08
   4 -10   3  256.41   30.15
   4 -10   4   99.55   13.16
   4  10   4  113.18   14.80
  -4 -10  -4   97.58   13.75
   4 -10   4   98.06   12.20
   4 -10   5  506.56   30.44
   4  10   5  510.75   23.18
  -4 -10  -5  489.84   20.20
   4 -10   5  561.85   28.05
   4 -10   6    1.97    3.53
   4  10   6    3.28    3.89
   4 -10   6    2.33    4.45
  -4 -10  -6    1.51    4.74
   4 -10   7  345.07   26.55
   4  10   7  306.26   25.29
   4 -10   7  326.40   23.76
  -4 -10  -7  371.00   27.23
   4 -10   8  132.44   13.83
   4  10   8  117.43   13.28
   4 -10   8  114.88   12.87
  -4 -10  -8  158.22   13.42
   4 -10   9  245.02   27.80
   4  10   9  250.43   18.36
   4 -10   9  332.69   25.25
  -4 -10  -9  246.69   20.85
   4 -10  10   25.62   16.83
   4  10  10   33.35   25.04
   4 -10  10   23.11    3.29
  -4 -10 -10   19.67   15.19
   4 -10  11   42.39    7.77
   4  10  11   34.33    7.53
  -4 -10 -11   45.44    7.82
   4 -10  12   36.62   18.81
   4  10  12   35.08   14.44
  -4 -10 -12   32.52    6.83
   4 -10  13    7.14    4.71
   4  10  13    4.59    4.01
  -4 -10 -13    2.38    4.41
   4 -10  14   14.13   11.76
   4  10  14    8.60    7.29
  -4 -10 -14   10.39    6.74
   4 -10  15   30.56   15.64
   4  10  15   24.27   17.93
   4 -10  16    3.75    5.08
   4  10  16    4.06    5.10
   4 -11 -16   18.98   22.72
  -4 -11  16   12.25   15.42
   4 -11 -15   39.57   10.37
  -4 -11  15   44.43    7.92
   4 -11 -14   17.41   21.04
  -4 -11  14   21.07   10.45
   4 -11 -13    6.78    6.71
  -4 -11  13    4.82    6.08
  -4  11  12   47.66    5.55
   4  11 -12   47.64    5.92
   4 -11 -12   46.55   31.45
  -4 -11  12   40.84    4.84
  -4  11  11   59.73    6.74
   4  11 -11   62.73    6.17
  -4 -11  11   67.27    7.00
   4 -11 -11   69.42   12.12
  -4 -11  11   66.67    6.45
   4  11 -10   64.40    6.74
  -4  11  10   65.02    9.72
  -4 -11  10   83.90    7.97
   4 -11 -10   90.31   27.34
  -4 -11  10   75.72    5.86
   4  11  -9  450.78   34.14
  -4  11   9  431.71   34.74
  -4 -11   9  398.54   38.10
   4 -11  -9  409.48   33.11
   4  11  -8   86.39   10.57
  -4  11   8   89.46   14.71
  -4 -11   8   88.60    7.42
   4 -11  -8   90.09   11.43
  -4 -11   8   78.50    8.92
   4  11  -7  122.98   10.23
  -4  11   7  106.05   17.82
  -4 -11   7  100.54   14.59
   4 -11  -7  107.90   11.95
  -4 -11   7  109.05   13.47
   4  11  -6  745.88   35.05
  -4  11   6  733.15   41.09
  -4 -11   6  731.83   35.66
   4 -11  -6  771.79   25.45
  -4 -11   6  739.37   32.19
   4  11  -5   95.08   16.84
  -4  11   5   95.90   10.46
  -4 -11   5  105.78   10.24
   4 -11  -5  106.01   15.98
  -4 -11   5  104.89   13.63
   4  11  -4  377.43   27.14
  -4  11   4  347.57   30.60
  -4 -11   4  371.81   26.47
   4 -11  -4  382.84   32.52
  -4 -11   4  379.83   27.83
   4  11  -3  424.68   30.85
  -4  11   3  400.63   28.74
  -4 -11   3  638.34   44.40
   4 -11  -3  431.09   38.84
  -4 -11   3  442.03   29.21
   4 -11  -2  197.85   17.27
   4  11  -2  194.35   10.61
  -4 -11   2  252.40   16.06
   4 -11  -2  189.69   11.35
  -4 -11   2  175.83   12.24
   4 -11  -1   63.62   15.55
   4  11  -1   71.68   12.26
  -4 -11   1   53.18   10.17
   4 -11  -1   65.20   11.84
  -4 -11   1   69.39   10.35
   4 -11   0  173.16   12.36
   4  11   0  133.65   10.12
  -4 -11   0  125.81   15.39
   4 -11   0  167.00   10.31
   4 -11   1   77.99   12.55
   4  11   1   77.21   12.26
  -4 -11  -1   68.06   11.37
   4 -11   1   72.08   11.89
   4 -11   2  162.06   11.25
   4  11   2  181.66   11.46
  -4 -11  -2  176.26    9.55
   4 -11   2  198.28   14.30
   4 -11   3  398.06   34.92
   4  11   3  407.93   32.46
  -4 -11  -3  359.40   28.50
   4 -11   3  415.07   29.68
   4 -11   4  395.35   30.43
   4  11   4  353.69   27.60
  -4 -11  -4  337.33   24.20
   4 -11   4  405.56   28.44
   4 -11   5   94.19   11.83
   4  11   5  106.36   11.63
  -4 -11  -5   98.37   10.08
   4 -11   5  119.41   15.28
   4 -11   6  764.06   25.93
   4  11   6  754.01   25.92
   4 -11   6  746.84   33.40
  -4 -11  -6  724.93   33.79
   4 -11   7  121.28   23.73
   4  11   7  114.07   11.00
   4 -11   7  112.05   10.23
  -4 -11  -7  127.32   10.44
   4 -11   8  101.57   21.29
   4  11   8   71.73    9.85
   4 -11   8   87.07   13.31
  -4 -11  -8  110.24   11.09
   4 -11   9  421.76   39.44
   4  11   9  403.93   32.00
   4 -11   9  529.47   14.41
  -4 -11  -9  534.96   18.83
   4 -11  10   69.67   20.02
   4  11  10   84.08   14.43
   4 -11  10   72.35    7.15
  -4 -11 -10   75.76    8.27
   4 -11  11   64.05   16.00
   4  11  11   66.32    8.24
  -4 -11 -11   69.06    7.26
   4 -11  12   45.61   16.16
   4  11  12   45.74    6.63
  -4 -11 -12   45.28   12.49
   4 -11  13    6.21    5.95
   4  11  13   13.61   10.73
  -4 -11 -13    7.58    6.30
   4 -11  14   29.87   18.32
   4  11  14   19.57   18.87
  -4 -11 -14   18.78   18.75
   4 -11  15   33.42   25.17
   4  11  15   47.09    6.83
  -4 -11 -15   38.27   14.58
   4 -11  16    7.70   11.51
   4 -12 -15   55.47   15.49
   4 -12 -14   16.60   18.09
  -4 -12  14   22.70   14.08
   4 -12 -13  125.81   15.47
  -4 -12  13  104.39   16.31
  -4  12  12    9.21    6.79
   4  12 -12    2.16    4.18
   4 -12 -12    8.19    7.03
  -4 -12  12    5.29    2.55
  -4  12  11  143.58   15.63
   4  12 -11  151.69   14.61
  -4 -12  11  140.83   13.35
   4 -12 -11  159.67   16.14
  -4 -12  11  139.19   13.73
   4  12 -10   60.68    8.03
  -4  12  10   62.89   18.16
  -4 -12  10   73.10   13.69
   4 -12 -10   80.19   10.11
  -4 -12  10   69.82    6.59
   4  12  -9   77.46    7.03
  -4  12   9   79.89    6.86
   4 -12  -9   95.85   11.38
  -4 -12   9   85.68    8.16
   4  12  -8   22.85   18.99
  -4  12   8   17.58   13.64
  -4 -12   8   21.07   13.48
   4 -12  -8   23.14   13.27
  -4 -12   8   22.45   11.26
   4  12  -7    6.19    3.53
  -4  12   7    6.02    4.49
  -4 -12   7    7.82    3.92
   4 -12  -7    7.60    3.87
  -4 -12   7    5.43    4.20
   4  12  -6    8.89    7.97
  -4  12   6   12.50    8.11
  -4 -12   6    3.29    3.79
   4 -12  -6    5.92    5.14
  -4 -12   6    4.62    3.66
   4  12  -5    0.99    4.64
  -4  12   5    1.69    2.97
  -4 -12   5    5.46    3.69
   4 -12  -5    4.10    3.82
  -4 -12   5    3.90    3.35
   4  12  -4   51.90    9.72
  -4  12   4   46.47    5.92
  -4 -12   4   46.37   17.37
   4 -12  -4   45.49    7.92
  -4 -12   4   46.11    4.20
   4  12  -3  106.30   12.47
  -4  12   3  101.49   11.48
  -4 -12   3  171.64   19.80
   4 -12  -3  107.03   12.49
  -4 -12   3  100.88   10.70
   4  12  -2  188.67   14.98
  -4  12   2  184.88   14.62
  -4 -12   2  245.52   17.76
   4 -12  -2  186.15   14.92
  -4 -12   2  179.95   13.32
   4  12  -1  312.86   21.16
  -4 -12   1  323.26   18.71
   4 -12  -1  322.60   22.90
  -4 -12   1  318.16   20.99
   4 -12   0   17.56   10.04
   4  12   0   10.71    5.20
  -4 -12   0    9.61    7.46
   4 -12   0   15.04    7.65
   4 -12   1  328.37   20.65
   4  12   1  321.44   18.96
  -4 -12  -1  302.01   16.72
   4 -12   1  322.46   18.80
   4 -12   2  161.10   14.50
   4  12   2  174.48   14.77
  -4 -12  -2  169.30   15.15
   4 -12   2  191.51   16.34
   4 -12   3  105.35   20.26
   4  12   3  104.04   16.10
  -4 -12  -3   94.30   11.54
   4 -12   3  103.32   12.51
   4 -12   4   48.45   20.67
   4  12   4   50.28    7.44
  -4 -12  -4   45.20   10.39
   4 -12   4   47.86    6.61
   4 -12   5    2.06    4.77
   4  12   5    5.26    3.75
  -4 -12  -5    1.50    3.62
   4 -12   5    4.45    4.56
   4 -12   6   13.79    8.31
   4 -12   6   11.93    7.84
  -4 -12  -6    9.89    7.85
   4 -12   7   11.55    6.73
   4  12   7    9.56    5.70
   4 -12   7    6.71    4.87
  -4 -12  -7    7.26    5.19
   4 -12   8   23.09   10.43
   4  12   8   20.38   16.05
   4 -12   8   23.48   11.51
  -4 -12  -8   20.89   15.49
   4 -12   9   94.56   11.04
   4 -12   9   91.19    9.06
  -4 -12  -9   91.94   10.21
   4 -12  10   66.82   17.64
   4  12  10   68.40    8.13
   4 -12  10   76.26   11.21
  -4 -12 -10   97.83   11.05
   4 -12  11  147.95   15.92
   4  12  11  138.57   17.24
  -4 -12 -11  191.64   18.78
   4 -12  12   15.44    8.23
   4  12  12    7.38    7.43
  -4 -12 -12   10.59    6.40
   4 -12  13  124.44   14.99
   4  12  13  126.51   15.20
  -4 -12 -13  126.39   21.14
   4 -12  14   18.55   19.10
   4  12  14   21.45   14.33
  -4 -12 -14   31.16    7.36
   4 -12  15   44.97    8.04
   4  12  15   49.27    7.99
  -4 -12 -15   41.75   18.85
   4 -13 -14    5.28    9.77
   4 -13 -13    5.83    4.73
   4  13 -12  182.59   17.77
  -4 -13  12  213.17   12.69
   4 -13 -12  203.40   13.92
  -4  13  11    1.54    3.34
   4  13 -11    0.57    2.17
  -4 -13  11    2.58    3.90
   4 -13 -11    6.37    6.65
   4  13 -10    1.88    4.68
  -4  13  10    4.04    5.71
  -4 -13  10    4.50    4.30
   4 -13 -10    4.59    6.85
  -4 -13  10    1.37    2.95
   4  13  -9   63.98    6.73
  -4  13   9   69.90    7.93
  -4 -13   9   86.28    8.61
   4 -13  -9   89.47   10.22
  -4 -13   9   87.53    9.08
   4  13  -8   48.61    8.90
  -4  13   8   51.73    8.84
  -4 -13   8   55.75   21.90
   4 -13  -8   50.66   27.55
  -4 -13   8   56.03    6.02
   4  13  -7  102.94   10.66
  -4  13   7  101.45   16.55
  -4 -13   7  106.38   10.16
   4 -13  -7  121.91   12.80
  -4 -13   7  106.66    8.86
   4  13  -6   22.61   13.43
  -4  13   6   24.21    8.65
  -4 -13   6   18.08   11.45
   4 -13  -6   23.75   12.82
  -4 -13   6   21.35    7.81
   4  13  -5   14.28    9.31
  -4  13   5   19.38   11.90
  -4 -13   5   16.81   11.25
   4 -13  -5   24.41   19.11
  -4 -13   5   17.39    9.82
   4  13  -4  186.02   21.78
  -4  13   4  195.11   23.34
  -4 -13   4  189.59   25.25
   4 -13  -4  190.69   17.77
  -4 -13   4  183.41   14.47
   4  13  -3   12.19    5.97
  -4  13   3   17.99   13.22
  -4 -13   3   24.79   12.08
   4 -13  -3   19.53   11.69
  -4 -13   3   13.47    5.45
   4  13  -2   21.47   15.79
  -4  13   2   34.95   16.92
  -4 -13   2   50.28   16.60
   4 -13  -2   32.29   15.46
  -4 -13   2   26.94    5.47
   4  13  -1   10.77    6.02
  -4  13   1    9.90    7.28
  -4 -13   1   10.19    8.38
   4 -13  -1    8.59    5.02
  -4 -13   1    8.57    5.38
   4  13   0  478.67   42.01
  -4  13   0  491.07   40.46
  -4 -13   0  493.60   29.80
   4 -13   0  498.13   30.10
  -4 -13   0  532.63   32.01
   4 -13   1    9.78    6.64
   4  13   1    7.88    6.32
  -4 -13  -1    8.63    3.67
   4 -13   1   10.23    8.18
   4 -13   2   29.24   14.48
   4  13   2   32.35   14.15
  -4 -13  -2   28.77   13.17
   4 -13   2   31.38   13.30
   4 -13   3   11.37    8.49
   4  13   3   16.25    8.06
  -4 -13  -3   14.25    9.18
   4 -13   3   12.64   13.53
   4 -13   4  200.87   19.50
   4  13   4  184.36   17.00
  -4 -13  -4  181.69   16.10
   4 -13   4  223.18   19.24
   4 -13   5   22.87   12.77
   4  13   5   15.97   12.43
  -4 -13  -5   16.25    8.30
   4 -13   5   13.99   10.78
   4 -13   6   26.42   15.98
   4  13   6   20.94    7.65
   4 -13   6   23.21   12.95
  -4 -13  -6   21.10   16.42
   4 -13   7  102.58   12.19
   4  13   7  123.72   13.07
   4 -13   7   96.75   15.86
  -4 -13  -7   96.76   13.10
   4 -13   8   56.39   16.88
   4  13   8   57.44    8.80
   4 -13   8   47.61    9.15
  -4 -13  -8   56.75   11.04
   4 -13   9   84.68   13.98
   4  13   9   79.21   10.56
   4 -13   9   86.46    7.94
  -4 -13  -9   81.61    8.93
   4 -13  10    2.50    3.17
   4  13  10    2.28    4.15
   4 -13  10    2.21    3.83
  -4 -13 -10    1.87    2.44
   4 -13  11    2.44    4.54
   4  13  11    0.95    2.70
  -4 -13 -11    2.55    4.03
   4 -13  12  204.39   14.70
   4  13  12  200.81   20.85
  -4 -13 -12  247.75   17.90
   4 -13  13    9.04   11.66
   4  13  13    3.64    5.26
  -4 -13 -13    5.67    4.11
   4 -13  14   10.80    6.17
   4  13  14    6.11    6.95
  -4 -13 -14    4.78    6.49
   4 -14 -13    3.12    6.82
   4  14 -12   36.16    6.13
  -4 -14  12   31.11   15.43
   4 -14 -12   36.96   19.03
  -4  14  11    6.66    4.35
   4  14 -11    3.34    4.18
  -4 -14  11    3.49    5.34
   4 -14 -11    2.94    4.96
   4  14 -10    2.39    3.16
  -4  14  10    1.80    4.21
  -4 -14  10    5.65    4.58
   4 -14 -10    4.45    4.18
   4  14  -9   49.71   23.40
  -4  14   9   60.10   11.64
  -4 -14   9   63.40   10.04
   4 -14  -9   58.74   19.54
   4  14  -8  127.78   13.25
  -4  14   8  120.73   12.62
  -4 -14   8  102.49   10.46
   4 -14  -8  109.04   13.25
   4  14  -7   39.29   15.64
  -4  14   7   37.94    6.89
  -4 -14   7   44.23    6.37
   4 -14  -7   46.91   29.17
   4  14  -6    5.57    7.21
  -4  14   6    3.41    4.75
  -4 -14   6    4.61    6.75
   4 -14  -6    3.59    3.75
   4  14  -5   44.80    8.58
  -4  14   5   42.75    7.24
  -4 -14   5   34.71   14.80
   4 -14  -5   33.46   23.79
   4  14  -4   96.48   10.81
  -4  14   4   98.28   14.90
  -4 -14   4  116.84   11.90
   4 -14  -4  117.58   16.87
  -4 -14   4  101.75    9.73
   4  14  -3   55.10    7.35
  -4  14   3   48.86    9.55
  -4 -14   3   90.29   42.34
   4 -14  -3   41.99   17.97
  -4 -14   3   49.23    4.90
   4  14  -2    1.02    4.42
  -4  14   2    2.29    3.39
  -4 -14   2    6.69    7.91
   4 -14  -2    1.79    3.12
  -4 -14   2    4.73    2.96
   4  14  -1   32.64   25.69
  -4  14   1   33.04   14.21
  -4 -14   1   36.71   14.94
   4 -14  -1   34.99    6.62
  -4 -14   1   30.42    3.54
   4  14   0   23.21   16.03
  -4  14   0   21.51   16.02
  -4 -14   0   20.53   13.38
   4 -14   0   19.08   12.68
  -4 -14   0   19.97    3.10
   4  14   1   33.51    9.20
  -4  14  -1   30.57   22.61
  -4 -14  -1   37.69   20.17
   4 -14   1   30.34   16.52
   4  14   2    4.45    7.60
  -4  14  -2    4.92    4.41
  -4 -14  -2    2.62    4.49
   4 -14   2    3.95    6.76
   4 -14   3   49.67   28.95
   4  14   3   46.05   26.78
  -4 -14  -3   52.52    8.85
   4 -14   3   58.51   10.41
   4 -14   4  104.47   13.66
   4  14   4  115.44   12.10
  -4 -14  -4   94.69   11.89
   4 -14   4  119.10   13.06
   4 -14   5   40.71   16.74
   4  14   5   33.36   21.79
  -4 -14  -5   47.02   10.38
   4 -14   5   43.38    6.61
   4 -14   6    2.86    2.50
   4  14   6    4.15    4.54
  -4 -14  -6    1.93    5.04
   4 -14   7   42.07   27.34
   4  14   7   42.35   24.86
   4 -14   7   39.95    7.31
  -4 -14  -7   43.97   18.94
   4 -14   8  130.54   18.88
   4  14   8  115.52   13.99
   4 -14   8  125.95   12.54
  -4 -14  -8  120.99   12.58
   4 -14   9   58.87    8.34
   4  14   9   81.74   10.27
   4 -14   9   82.65   13.78
  -4 -14  -9   61.37    8.38
   4 -14  10    3.41    6.13
   4  14  10    3.00    3.11
  -4 -14 -10    3.50    4.75
   4 -14  11    4.86    6.51
   4  14  11    4.12    5.75
  -4 -14 -11    1.03    4.38
   4 -14  12   35.17    7.80
   4  14  12   22.64   27.37
  -4 -14 -12   41.60    8.25
   4 -14  13    2.73    4.00
   4  14  13    2.92    3.28
  -4 -14 -13    3.41    5.97
  -4  15  11   10.41   17.29
   4  15 -11    9.40   16.64
  -4 -15  11   18.02   12.32
   4 -15 -11   16.43   19.27
   4  15 -10   50.69    8.73
  -4  15  10   32.41   14.72
  -4 -15  10   49.90   14.52
   4 -15 -10   44.89   21.06
   4  15  -9    3.97    4.00
  -4  15   9    4.21    6.41
  -4 -15   9    7.21    5.37
   4 -15  -9    3.26    4.90
   4  15  -8    8.11    6.37
  -4  15   8    7.05    8.59
  -4 -15   8   12.16    7.12
   4 -15  -8   12.76   10.73
   4  15  -7   16.73   12.92
  -4  15   7   12.05   18.26
  -4 -15   7   14.73    7.97
   4 -15  -7   14.00   14.96
   4  15  -6  270.80   14.47
  -4  15   6  232.04   28.76
  -4 -15   6  249.74   23.43
   4 -15  -6  234.95   22.96
   4  15  -5   36.74   14.95
  -4  15   5   39.10   18.78
  -4 -15   5   38.21   17.05
   4 -15  -5   45.91    8.92
   4  15  -4    4.65    4.14
  -4  15   4    6.80    5.21
  -4 -15   4    8.44   12.84
   4 -15  -4    6.33    6.09
   4  15  -3   22.93   14.17
  -4  15   3   21.30   15.93
  -4 -15   3   33.40   24.72
   4 -15  -3   21.10   11.73
   4  15  -2   27.84    9.94
  -4  15   2   35.59   16.76
  -4 -15   2   59.06   25.36
   4 -15  -2   30.37   18.18
   4  15  -1   87.38   15.61
  -4  15   1   96.36   12.46
  -4 -15   1   82.54    9.19
   4 -15  -1   65.49   13.51
   4  15   0   13.47   10.05
  -4  15   0   23.53   15.09
  -4 -15   0   14.25    9.85
   4 -15   0   17.17   16.20
   4  15   1   76.99   16.08
  -4  15  -1   79.14   10.18
  -4 -15  -1   92.65   17.97
   4 -15   1   92.25   12.66
   4  15   2   35.40   15.56
  -4  15  -2   31.60   24.47
  -4 -15  -2   27.76   19.48
   4 -15   2   36.38   10.23
   4  15   3   17.77   19.10
  -4  15  -3   16.61   16.56
  -4 -15  -3   17.28    8.24
   4 -15   3   26.61   18.10
   4  15   4    4.68    4.55
  -4  15  -4    6.13    6.38
  -4 -15  -4    5.67    3.28
   4 -15   4    6.16    4.47
   4  15   5   34.77   21.59
  -4  15  -5   44.84    9.17
  -4 -15  -5   49.24   21.76
   4 -15   5   38.56    8.33
   4  15   6  272.14   15.92
   4 -15   6  261.17   25.18
  -4 -15  -6  253.14   31.33
   4  15   7   12.41   12.84
   4 -15   7   16.13    9.33
  -4 -15  -7   20.98   10.36
   4 -15   8    9.11   11.73
   4  15   8    9.60    7.45
   4 -15   8   11.62    5.16
  -4 -15  -8   11.44    6.07
   4 -15   9    5.93    5.91
   4  15   9    7.91    5.63
   4 -15   9    6.19    4.16
  -4 -15  -9    4.87    5.10
   4 -15  10   50.86   27.10
   4  15  10   42.65   22.74
  -4 -15 -10   37.17   16.78
   4  15  11    9.26   18.17
  -4 -15 -11   11.28   15.55
   4  16  -9    1.49    2.07
  -4  16   9    0.77    1.81
  -4 -16   9    1.24    3.38
   4 -16  -9    1.31    4.78
   4  16  -8    6.13    8.38
  -4  16   8    5.57    3.52
  -4 -16   8    5.49    3.70
   4 -16  -8   10.80    9.07
  -4  16   7    4.15    4.21
  -4 -16   7    4.96    5.41
   4 -16  -7    2.56    5.30
   4  16  -6    1.29    2.34
  -4  16   6    4.79    4.84
  -4 -16   6    1.57    3.36
   4 -16  -6    3.17    5.26
   4  16  -5   10.86    8.72
  -4  16   5   12.53   11.02
  -4 -16   5   16.74   10.30
   4 -16  -5   14.07    7.55
   4  16  -4   -0.91    3.89
  -4  16   4    0.46    3.54
   4 -16  -4    4.10    3.48
   4  16  -3   -0.66    4.28
  -4  16   3    3.77    3.82
  -4 -16   3    3.68    5.68
   4  16  -2  137.73   15.61
  -4  16   2  156.52   17.33
  -4 -16   2  372.44   57.31
   4 -16  -2  157.90   16.83
   4  16  -1   27.14   13.29
  -4  16   1   24.67   21.66
  -4 -16   1   34.57   17.69
   4 -16  -1   27.46    5.96
   4  16   0   46.51   21.05
  -4  16   0   39.84    6.86
  -4 -16   0   33.96    7.46
   4 -16   0   44.56   10.55
   4  16   1   30.11   22.98
  -4  16  -1   31.96   10.01
  -4 -16  -1   28.62   20.19
   4 -16   1   29.79   28.34
   4  16   2  157.15   17.55
  -4  16  -2  173.01   22.47
  -4 -16  -2  137.77   15.96
   4 -16   2  155.12   16.28
   4  16   3    4.13    2.47
  -4  16  -3    5.78    5.33
  -4 -16  -3    2.27    3.17
   4 -16   3    2.03    3.28
   4  16   4    1.07    2.49
  -4  16  -4    2.96    4.32
  -4 -16  -4    1.22    2.37
   4 -16   4    0.79    3.99
   4  16   5   16.72   17.82
  -4  16  -5   10.83   10.69
  -4 -16  -5   15.03    7.19
   4 -16   5   17.60    9.31
   4  16   6    3.45    6.01
   4 -16   6    1.47    3.49
  -4 -16  -6    2.87    3.03
   4  16   7    2.14    4.77
  -4  16  -7    2.39    2.76
   4 -16   7    3.67    3.09
  -4 -16  -7    5.16    5.95
   4  16   8    9.73    6.61
  -4  16  -8    8.35    8.34
   4 -16   8    5.68    3.43
  -4 -16  -8    7.85    5.27
   4  16   9    0.91    2.60
  -4  16  -9   -0.73    4.22
   4 -16   9    3.60    5.85
  -4 -16  -9    1.72    2.99
   4  17  -7    9.21   10.41
  -4  17   7   11.04    7.26
  -4 -17   7    7.36    5.73
   4 -17  -7    6.64   15.85
   4  17  -6   31.28   16.73
  -4  17   6   41.37    8.01
  -4 -17   6   25.45   28.49
   4 -17  -6   40.47   18.52
   4  17  -5   49.27   12.05
  -4  17   5   54.31   18.05
  -4 -17   5   58.34   29.81
   4  17  -4   24.79    7.64
  -4  17   4   22.12    5.80
  -4 -17   4   25.36   22.34
   4 -17  -4   32.91   15.28
   4  17  -3   16.94   16.38
  -4  17   3   18.31   13.63
  -4 -17   3   25.44   16.64
   4 -17  -3   18.87   14.85
   4  17  -2   14.67   11.11
  -4  17   2   14.82   11.78
  -4 -17   2   79.06   82.48
   4 -17  -2    7.18    9.29
   4  17  -1   45.05    8.56
  -4  17   1   55.54   11.02
  -4 -17   1   53.54   27.27
   4 -17  -1   43.09   17.01
   4  17   0   59.67   11.18
  -4  17   0   70.08    9.33
  -4 -17   0   60.77   21.92
   4 -17   0   68.71   11.04
   4  17   1   43.29   12.14
  -4  17  -1   46.02    9.38
  -4 -17  -1   49.91   25.06
   4 -17   1   50.32   10.41
   4  17   2   10.29    7.80
  -4  17  -2    6.45   14.53
  -4 -17  -2    9.54    6.47
   4 -17   2    7.22   12.30
   4  17   3   18.75    8.74
  -4  17  -3   16.46   11.41
  -4 -17  -3   14.17   14.43
   4 -17   3   12.33   16.04
   4  17   4   21.18   21.10
  -4  17  -4   25.44   12.43
  -4 -17  -4   23.90   16.11
   4 -17   4   23.25   14.81
   4  17   5   54.09   19.41
  -4  17  -5   54.03   11.95
  -4 -17  -5   40.69   14.44
   4 -17   5   52.63    7.07
   4  17   6   52.90   15.30
  -4  17  -6   36.49   27.97
   4 -17   6   32.67   20.41
  -4 -17  -6   36.69   17.12
   4  17   7    7.12   10.65
  -4  17  -7    2.06    6.58
   4 -17   7    7.73    6.80
  -4 -17  -7    6.85    5.19
   4  18  -2    3.62    4.15
  -4  18   2   10.62    6.66
  -4 -18   2   20.50   13.15
   4 -18  -2   10.25   14.17
   4  18  -1   13.81   13.68
  -4  18   1    8.71   16.00
  -4 -18   1   21.64   19.47
   4 -18  -1    6.94    4.51
   4  18   0    1.41    2.97
  -4  18   0    3.36    5.11
  -4 -18   0    3.87    6.59
   4 -18   0    0.84    5.57
   4  18   1   12.12   13.87
  -4  18  -1    7.47   16.28
  -4 -18  -1    8.70   11.99
   4 -18   1   13.46   14.77
   4  18   2    9.63    7.20
  -4  18  -2    7.10   10.46
  -4 -18  -2    8.56    5.80
   4 -18   2    6.81    5.69
   5   0 -20   11.40   17.23
   5   0 -19   22.99   24.84
   5   0 -18    9.83   13.11
   5   0 -17  176.08   24.20
  -5   0  17  189.74   17.69
   5   0 -16   38.13   14.15
  -5   0  16   34.49   20.64
   5   0 -15   20.18   14.14
  -5   0  15   20.72   12.52
   5   0 -14   14.75   15.13
  -5   0  14   14.83    7.99
   5   0 -13    7.92    6.06
  -5   0  13    9.10    4.55
   5   0 -12   11.10    6.59
  -5   0  12   15.70   11.42
   5   0 -11   47.47   12.98
  -5   0  11   45.36    6.12
   5   0 -10  364.40   22.61
  -5   0  10  347.01   20.40
  -5   0   9  649.15   26.03
   5   0  -8  694.52   17.57
  -5   0   8  709.52   22.48
   5   0  -7 1227.25   24.13
  -5   0   7 1171.38   22.86
  -5   0   7 1258.55   28.56
   5   0  -6   75.72    6.04
  -5   0   6   74.14    6.83
   5   0  -5 1004.91   21.20
  -5   0   5  965.34   22.04
   5   0  -4  112.26    6.35
  -5   0   4  113.25    6.50
   5   0  -3   54.88    4.94
  -5   0   3   51.93    6.07
   5   0  -2   27.98    3.70
  -5   0   2   29.68    4.34
   5   0  -1   72.94    5.37
  -5   0   1   68.38    5.51
   5   0   0    0.83    2.81
   5   0   1   70.68    7.55
   5   0   2   26.62    4.47
   5   0   3   56.06    5.95
   5   0   4  115.81    9.53
   5   0   4  118.17    5.52
   5   0   5 1022.91   25.44
   5   0   6   73.50    7.46
   5   0   6   75.49    5.16
   5   0   7 1286.29   34.90
   5   0   8  722.28   24.85
   5   0   9  625.02   26.45
   5   0  10  340.23   20.88
   5   0  11   47.67    9.38
   5   0  12   15.25    7.29
   5   0  13    8.36    6.27
   5   0  14   12.63    7.08
   5   0  15   20.56   11.97
   5   0  16   34.67    5.03
   5  -1 -20   43.44   12.27
   5   1 -20   49.12    9.95
   5  -1 -19    5.97   10.90
   5   1 -19    6.66    8.84
   5  -1 -18   41.88   11.59
   5   1 -18   48.25   12.21
   5  -1 -17   13.80   12.82
   5   1 -17   12.73   12.81
  -5  -1  17   19.11   12.21
   5  -1 -16  122.50   14.82
   5   1 -16  134.43   22.24
  -5   1  16  144.88   17.02
  -5  -1  16  128.02   11.64
   5  -1 -15   61.81   10.70
   5   1 -15   64.49    7.81
  -5   1  15   74.88    9.20
  -5  -1  15   58.97   10.17
   5  -1 -14  121.14   11.60
   5   1 -14   98.17   10.14
  -5   1  14   99.55   16.28
  -5  -1  14  119.24   10.52
   5  -1 -13  336.00   19.19
   5   1 -13  325.40   23.63
  -5   1  13  335.23   18.59
  -5  -1  13  339.84   22.88
   5  -1 -12  327.29   25.65
  -5   1  12  399.26   16.69
  -5  -1  12  320.65   17.90
   5  -1 -11  123.98   14.28
  -5   1  11  157.62   18.88
  -5  -1  11  130.09   18.34
   5  -1 -10  224.16   18.08
  -5   1  10  228.34   15.80
  -5  -1  10  220.69   18.01
   5  -1  -9   15.17    6.92
  -5   1   9   14.26    8.10
  -5  -1   9   13.11   10.24
   5  -1  -8 1584.75   39.94
   5   1  -8 1534.45   38.89
  -5   1   8 1484.45   37.45
   5  -1  -8 1641.13   48.25
  -5   1   8 1593.06   45.20
  -5  -1   8 1705.31   48.16
   5  -1  -7  154.69   11.70
   5   1  -7  187.92    9.54
  -5   1   7  158.11   11.91
  -5  -1   7  145.28   10.90
   5  -1  -7  159.83   14.22
  -5   1   7  192.26   11.07
  -5  -1   7  154.14   13.48
   5   1  -6  314.73   12.67
   5  -1  -6  313.76   15.89
  -5   1   6  317.05   14.91
  -5  -1   6  328.25   13.84
   5  -1  -5  480.49   17.71
   5   1  -5  472.78   17.67
  -5   1   5  496.95   19.09
  -5  -1   5  483.95   21.20
   5  -1  -4 1330.81   18.95
   5   1  -4 1397.57   19.04
  -5   1   4 1336.71   20.32
  -5  -1   4 1323.68   20.12
   5  -1  -3  500.75   15.92
   5   1  -3  487.88   15.34
  -5   1   3  481.61   14.77
  -5  -1   3  509.23   17.58
   5  -1  -2  840.56   14.70
   5   1  -2  745.27   21.89
  -5   1   2  768.37   12.55
  -5  -1   2  793.98   13.00
   5  -1  -1  310.96   14.28
   5   1  -1  328.20   22.81
  -5   1   1  331.44   25.27
  -5  -1   1  318.46   14.23
   5  -1   0 1059.47   17.64
   5   1   0 1040.07   17.26
   5  -1   1  350.15   15.11
   5   1   1  302.38   15.62
   5  -1   2  765.17   18.54
   5   1   2  829.85   16.97
   5  -1   2  795.00   14.87
   5  -1   3  515.59   19.07
   5   1   3  498.70   16.97
   5  -1   3  493.60   15.49
   5  -1   4 1407.05   23.54
   5   1   4 1359.55   23.03
   5  -1   4 1327.35   14.86
   5  -1   5  485.15   19.99
   5   1   5  512.06   20.96
   5  -1   5  476.21   16.41
   5  -1   5  472.20   16.75
   5  -1   6  313.09   14.52
   5   1   6  307.89   35.17
  -5  -1  -6  324.62   11.71
   5   1   6  301.59   12.50
   5  -1   7  178.55   11.10
   5   1   7  159.49   13.95
  -5  -1  -7  175.57    8.38
   5   1   7  144.90   10.98
   5  -1   8 1619.33   50.86
   5   1   8 1681.07   48.56
  -5  -1  -8 1490.49   37.49
   5   1   8 1663.42   42.02
   5  -1   9   17.50    8.74
   5   1   9   16.29    8.05
  -5  -1  -9   12.54    0.72
   5  -1  10  228.23   17.55
   5   1  10  240.16   15.87
   5  -1  11  157.28   19.42
   5   1  11  134.27   15.39
   5  -1  12  394.45   17.67
   5   1  12  345.18   17.28
   5  -1  13  305.33   19.21
   5   1  13  361.45   23.42
   5  -1  14  104.38    9.68
   5   1  14  113.42   10.28
   5  -1  15   66.85   14.56
   5   1  15   62.28    6.38
   5   1  16  136.39   12.85
   5  -2 -20   28.71    6.80
   5  -2 -19    0.66    3.44
   5  -2 -18   16.44   18.78
   5   2 -18   14.88   18.70
   5  -2 -17   82.58   13.38
   5   2 -17   88.47    9.33
  -5  -2  17   88.16   11.33
   5  -2 -16  140.12   14.03
   5   2 -16  137.72   14.79
  -5  -2  16  137.78   18.56
   5  -2 -15   26.99   17.99
   5   2 -15   13.84   13.17
  -5   2  15   17.39   14.05
  -5  -2  15   28.97   11.83
   5  -2 -14   26.44   17.49
  -5   2  14   32.80   11.85
  -5  -2  14   31.46   10.98
   5  -2 -13  332.12   19.80
  -5   2  13  366.59   19.82
  -5  -2  13  338.72   18.62
   5  -2 -12  130.22   12.80
  -5   2  12  110.31   10.81
  -5  -2  12  124.46   11.27
   5  -2 -11  295.18   21.31
  -5   2  11  246.18   20.12
  -5  -2  11  271.48   20.51
   5  -2 -10   73.11   10.11
  -5   2  10   65.62    6.84
  -5  -2  10   73.70    9.21
   5   2  -9    2.32    1.07
   5   2  -9    1.94    1.10
  -5   2   9    2.58    1.30
   5  -2  -9    7.96    3.65
  -5   2   9    5.65    3.08
  -5  -2   9    7.01    8.04
   5   2  -8  325.41   15.24
   5  -2  -8  404.63   13.01
  -5   2   8  360.80    9.59
  -5  -2   8  411.81   10.71
   5  -2  -7  609.98    7.87
   5   2  -7  583.19    7.80
   5  -2  -7  623.93   15.06
  -5   2   7  621.48   12.37
  -5  -2   7  628.05   21.38
   5  -2  -6   26.45    5.89
   5   2  -6   28.87    3.21
   5  -2  -6   32.77   13.19
  -5   2   6   32.36    4.08
  -5  -2   6   24.39    6.64
   5  -2  -5  766.02   84.49
   5   2  -5  829.35   19.61
   5  -2  -5  683.16   28.34
  -5   2   5  823.35   19.98
  -5  -2   5  801.97   19.87
   5  -2  -4  953.26   22.41
   5   2  -4  796.08   18.03
   5  -2  -4  808.84   21.01
  -5   2   4  795.05   18.46
  -5  -2   4  826.76   19.53
   5  -2  -3   60.48    5.51
   5   2  -3   46.80    5.45
   5  -2  -3   56.89    5.91
  -5   2   3   38.47    4.38
  -5  -2   3   68.49    4.98
   5  -2  -2  761.11   50.75
   5   2  -2  746.31   22.17
   5  -2  -2  755.67   23.16
  -5   2   2  776.87   12.35
  -5  -2   2  755.45   22.36
   5  -2  -1  923.94   18.25
   5   2  -1  869.82   15.30
   5  -2  -1  886.00   15.81
  -5   2   1  900.99   14.16
   5  -2   0  220.45   11.11
   5   2   0  216.42   10.89
   5  -2   0  219.23   11.02
  -5   2   0  220.29   10.06
   5  -2   1  883.47   20.60
   5   2   1  921.99   16.46
  -5  -2  -1  922.28   14.95
   5  -2   1  889.17   17.08
   5  -2   2  759.21   52.28
   5   2   2  782.41   15.81
  -5  -2  -2  762.47   50.28
   5  -2   2  753.61   22.50
   5  -2   3   44.21    5.98
   5   2   3   61.69    6.66
  -5  -2  -3   43.55    4.56
   5  -2   3   42.67    4.69
   5  -2   4  806.14   20.66
   5   2   4  816.04   21.01
  -5  -2  -4  791.97   18.00
   5  -2   4  801.14   17.45
   5  -2   5  820.10   21.79
   5   2   5  778.98   20.76
  -5  -2  -5  823.45   17.97
   5  -2   5  803.00   16.35
   5  -2   6   28.64    9.69
  -5  -2  -6   27.32    2.80
   5  -2   7  617.38   15.39
   5   2   7  591.02   14.86
  -5  -2  -7  685.69    8.21
   5  -2   8  367.86   11.95
   5   2   8  399.94   12.71
   5  -2   9    4.67    3.85
   5   2   9    9.80    7.84
  -5  -2  -9    3.33    2.11
   5  -2  10   63.28    7.66
   5   2  10   74.50    9.35
  -5  -2 -10   62.14    4.61
   5  -2  11  246.04   17.98
   5   2  11  294.94   20.65
  -5  -2 -11  215.98   16.31
   5  -2  12  117.84   13.39
   5   2  12  127.59   12.61
   5  -2  13  336.78   18.78
   5   2  13  335.71   19.08
   5  -2  14   35.63    5.14
   5   2  14   23.64   13.59
   5  -2  15   12.54   11.80
   5   2  15   20.41   17.09
   5  -3 -19   79.24   14.86
   5   3 -19   82.04    9.07
   5  -3 -18   66.60    9.68
   5   3 -18   61.01   14.02
  -5  -3  18   66.49    7.90
   5  -3 -17   37.98    7.44
   5   3 -17   33.75   13.72
  -5  -3  17   37.75   20.87
   5  -3 -16    8.09    5.45
   5   3 -16   13.67   12.49
  -5  -3  16    8.46    3.54
   5  -3 -15  136.94   17.21
  -5  -3  15  128.10   16.67
   5  -3 -14  150.09   16.80
  -5   3  14  162.22   15.66
  -5  -3  14  157.78   17.70
   5  -3 -13  190.33   19.06
  -5   3  13  177.32   22.53
  -5  -3  13  191.31   17.48
   5  -3 -12   40.51   15.45
  -5   3  12   40.92   19.77
  -5  -3  12   41.74    5.08
   5  -3 -11   12.55    8.10
  -5   3  11   16.66   10.86
  -5  -3  11   13.68    7.90
   5   3 -10  174.67   13.29
   5  -3 -10  182.93   16.97
  -5   3  10  193.92   16.61
  -5  -3  10  182.78   15.85
   5   3  -9  295.20   15.66
  -5   3   9  282.65   14.81
   5  -3  -9  314.17   20.25
  -5   3   9  302.12   19.93
  -5  -3   9  312.93   18.39
   5  -3  -8    2.15    3.39
  -5   3   8    0.88    1.38
  -5  -3   8    1.09    2.52
   5  -3  -7  555.97    8.62
   5   3  -7  521.43   10.57
   5  -3  -7  561.34   21.00
  -5   3   7  474.86   13.25
  -5  -3   7  558.36   17.79
   5  -3  -6  395.20   15.63
   5   3  -6  372.13   14.69
   5  -3  -6  402.86   18.35
  -5   3   6  348.99   14.36
  -5  -3   6  384.50   16.29
   5  -3  -5  449.04   17.98
   5   3  -5  445.14   17.53
   5  -3  -5  446.15   19.19
  -5   3   5  462.92   18.69
  -5  -3   5  445.28   18.14
   5  -3  -4   51.18    5.61
   5   3  -4   41.72    5.62
   5  -3  -4   51.57    6.12
  -5   3   4   45.33   10.01
  -5  -3   4   53.19    5.46
   5  -3  -3 1304.09   31.21
   5   3  -3 1272.57   28.04
   5  -3  -3 1323.14   30.50
  -5   3   3 1274.42   28.51
  -5  -3   3 1343.52   29.31
   5   3  -2  605.11   19.90
   5  -3  -2  578.88   19.21
  -5   3   2  597.99   18.07
  -5  -3   2  599.42   18.68
   5  -3  -1 1055.95   17.93
   5   3  -1  999.21   17.28
  -5  -3   1 1075.86   17.36
   5  -3  -1 1060.86   18.47
  -5   3   1 1021.24   14.52
   5  -3   0   81.10    8.04
   5  -3   0   87.18    6.53
  -5   3   0   81.73    4.97
   5  -3   1  962.62   17.31
   5   3   1 1066.62   18.82
  -5  -3  -1  953.27   15.16
   5  -3   1  973.66   19.02
   5  -3   2  592.44   19.46
   5   3   2  616.39   20.16
  -5  -3  -2  598.69   18.43
   5  -3   2  601.91   18.13
   5  -3   3 1263.85   29.32
   5   3   3 1329.91   31.21
  -5  -3  -3 1263.53   27.34
   5  -3   3 1297.22   26.94
   5  -3   4   43.56    5.43
   5   3   4   51.63    7.00
  -5  -3  -4   41.97    5.09
   5  -3   4   44.08    3.94
   5  -3   5  459.04   19.59
   5   3   5  460.74   19.56
  -5  -3  -5  604.98   24.52
   5  -3   5  441.65   15.90
   5  -3   6  345.80   16.19
   5   3   6  426.64   18.71
   5  -3   6  350.33   12.40
   5  -3   7  486.64   13.56
   5   3   7  579.82   19.52
  -5  -3  -7  481.87    8.63
   5  -3   8    3.33    6.06
   5   3   8    0.88    4.15
  -5  -3  -8    0.27    1.43
   5  -3   9  279.89   19.38
   5   3   9  326.73   19.88
  -5  -3  -9  283.42   15.16
   5  -3  10  190.53   17.24
   5   3  10  176.18   16.08
  -5  -3 -10  168.81   13.69
   5  -3  11   15.87    8.80
   5   3  11   13.97    7.59
  -5  -3 -11   12.57    3.90
   5  -3  12   42.66    6.82
   5   3  12   41.21    5.51
  -5  -3 -12   36.71    4.17
   5  -3  13  178.08   13.98
   5   3  13  197.63   16.59
   5  -3  14  162.71   15.90
   5   3  14  162.40   15.68
   5  -3  15  183.80   18.30
   5   3  15  120.78   14.64
   5  -3  16   16.43    9.97
   5   3  16    8.76    6.95
   5  -4 -19   11.52   18.62
   5   4 -19   19.90   11.95
  -5  -4  19   21.88   14.16
   5  -4 -18  202.03   23.81
   5   4 -18  180.98   19.04
  -5  -4  18  192.52   19.40
   5  -4 -17   47.67   22.76
  -5  -4  17   44.18   15.04
   5  -4 -16   15.60   12.44
  -5  -4  16   18.82   11.35
   5  -4 -15   34.01    8.48
  -5  -4  15   34.00   18.44
   5  -4 -14   42.99   17.42
  -5  -4  14   42.50   18.94
   5  -4 -13  167.01   17.05
  -5   4  13  171.68   16.03
  -5  -4  13  160.68   14.81
   5  -4 -12   28.16   20.22
  -5   4  12   27.96   19.35
  -5  -4  12   36.89   16.14
   5   4 -11  403.60   12.02
   5  -4 -11  411.32   20.20
  -5   4  11  411.86   20.84
  -5  -4  11  406.32   12.43
   5   4 -10  333.03   20.45
  -5   4  10  340.85   20.34
   5  -4 -10  365.87   16.37
  -5   4  10  381.82   20.37
  -5  -4  10  363.49   11.34
   5   4  -9   68.86    9.33
  -5   4   9   62.76    6.85
   5  -4  -9   71.30   10.40
  -5   4   9   65.14    8.12
  -5  -4   9   77.89    9.33
   5   4  -8  109.66   12.25
  -5   4   8   95.24    9.85
   5  -4  -8  109.92   15.91
  -5   4   8  103.55   12.96
  -5  -4   8  102.46   11.66
   5  -4  -7  245.84   13.51
   5   4  -7  253.42   13.06
   5  -4  -7  265.83   16.32
  -5   4   7  229.83   16.69
  -5  -4   7  278.77   16.19
   5  -4  -6 1570.88   43.50
   5   4  -6 1567.64   42.60
   5  -4  -6 1551.64   48.70
  -5   4   6 1534.93   42.29
  -5  -4   6 1535.07   44.46
   5  -4  -5  654.22   26.97
   5   4  -5  663.55   25.75
   5  -4  -5  665.50   27.11
  -5   4   5  635.38   23.83
  -5  -4   5  691.88   26.16
   5  -4  -4  353.18   16.13
   5   4  -4  367.84   15.08
   5  -4  -4  360.57   16.47
  -5   4   4  342.93   14.10
  -5  -4   4  378.54   15.54
   5  -4  -3  152.66    8.58
   5   4  -3  164.43    9.42
  -5  -4   3  169.68    9.22
   5  -4  -3  153.73    9.66
  -5   4   3  166.22    8.52
  -5  -4   3  153.32    8.25
   5  -4  -2 1045.12   24.42
   5   4  -2 1089.51   26.99
  -5  -4   2 1104.77   25.57
   5  -4  -2 1077.15   25.80
  -5   4   2 1070.26   22.68
  -5  -4   2 1093.25   24.57
   5  -4  -1  816.20   20.27
   5   4  -1  896.25   21.70
  -5  -4   1  831.37   22.23
   5  -4  -1  845.83   21.49
  -5   4   1  863.11   18.58
   5   4   0 1429.91   32.47
  -5  -4   0 1340.28   28.90
   5  -4   0 1345.12   31.11
  -5   4   0 1336.42   27.07
   5   4   1  824.23   20.72
  -5  -4  -1  874.46   20.39
   5  -4   1  888.85   22.06
  -5   4  -1  832.21   18.10
   5  -4   2 1199.78   29.02
   5   4   2 1073.34   29.66
  -5  -4  -2 1072.48   23.55
   5  -4   2 1036.03   24.08
   5  -4   3  171.57   10.88
   5   4   3  160.24   12.63
  -5  -4  -3  199.15   10.24
   5  -4   3  174.60    8.96
   5  -4   4  322.08   15.31
   5   4   4  407.83   17.77
   5  -4   4  349.07   15.38
   5  -4   5  639.98   25.93
   5   4   5  711.92   28.57
  -5  -4  -5  706.11   26.77
   5  -4   5  669.65   24.18
   5  -4   6 1567.93   47.56
   5   4   6 1602.02   47.33
  -5  -4  -6 1515.68   41.04
   5  -4   6 1590.29   40.98
   5  -4   7  224.06   15.87
   5   4   7  278.34   16.25
   5  -4   7  221.01   10.65
  -5  -4  -7  239.28   12.45
  -5   4  -7  231.38   11.75
   5  -4   8   94.42   14.06
   5   4   8  118.90   10.46
  -5  -4  -8  109.78   15.03
  -5   4  -8   84.35    8.33
   5  -4   9   66.02   10.00
   5   4   9   84.81   11.84
  -5  -4  -9   67.14    8.42
   5  -4  10  373.94   21.55
   5   4  10  369.84   20.32
  -5  -4 -10  345.82   22.03
   5  -4  11  473.19   22.69
   5   4  11  421.45   20.80
  -5  -4 -11  395.50   14.08
   5  -4  12   49.21   26.88
   5   4  12   56.33    7.36
  -5  -4 -12   44.77    7.88
   5  -4  13  329.15   36.52
   5   4  13  166.84   21.00
   5  -4  14   34.18    8.18
   5   4  14   36.18   10.13
   5  -4  15   33.26   16.92
   5   4  15   30.03   18.40
   5  -4  16   13.97    7.72
   5   4  16   18.54   10.85
   5  -5 -19   10.07   12.12
   5   5 -19    9.31   12.30
  -5  -5  19   13.53   12.51
   5  -5 -18    1.18    4.88
  -5  -5  18    1.61    4.42
   5  -5 -17   52.56   14.95
  -5  -5  17   63.87    9.71
   5  -5 -16   79.71    8.97
  -5  -5  16   91.33    8.95
   5  -5 -15  265.18   21.98
  -5  -5  15  255.04   25.50
   5  -5 -14   52.93   10.49
  -5  -5  14   54.41    7.29
   5  -5 -13  156.89   16.48
  -5  -5  13  152.01   13.99
   5  -5 -12   24.35   13.33
  -5   5  12   28.94    9.40
  -5  -5  12   29.95   12.18
   5   5 -11  203.80   16.44
  -5   5  11  188.45   14.96
   5  -5 -11  204.79   19.43
  -5   5  11  196.81   17.41
  -5  -5  11  188.62   18.84
   5   5 -10   13.14    3.84
  -5   5  10   11.58    1.84
   5  -5 -10   12.73    7.92
  -5   5  10   17.83    8.94
  -5  -5  10    8.32    5.94
   5   5  -9  633.44   29.06
  -5   5   9  604.14   26.93
   5  -5  -9  585.29   29.76
  -5   5   9  636.23   31.41
  -5  -5   9  572.73   34.32
   5   5  -8  144.50   10.38
  -5   5   8  129.90   10.48
   5  -5  -8  124.06   11.43
  -5   5   8  135.83   17.26
  -5  -5   8  129.58   12.82
   5  -5  -7   22.05    4.47
   5   5  -7   18.20    4.88
   5  -5  -7   23.70    9.13
  -5   5   7   17.48    6.85
  -5  -5   7   20.99    2.95
   5  -5  -6  115.15    9.96
   5   5  -6  120.22   10.29
   5  -5  -6  115.81   11.49
  -5   5   6  122.03   10.99
  -5  -5   6  122.04   11.32
   5  -5  -5  310.67   16.40
   5   5  -5  312.52   16.80
  -5  -5   5  346.50   10.09
   5  -5  -5  324.71   18.82
  -5   5   5  311.30   23.00
  -5  -5   5  315.77   17.02
   5  -5  -4  165.16    9.69
   5   5  -4  169.58    9.26
  -5  -5   4  166.68   10.11
   5  -5  -4  149.79   11.00
  -5   5   4  166.74   10.13
  -5  -5   4  160.35    8.86
   5  -5  -3 1092.93   26.24
   5   5  -3 1195.80   29.04
  -5  -5   3 1157.82   28.61
   5  -5  -3 1097.36   27.79
  -5   5   3 1177.57   25.10
  -5  -5   3 1091.99   25.47
   5  -5  -2  324.80   14.27
   5   5  -2  311.29   35.19
  -5  -5   2  324.28   16.46
   5  -5  -2  327.21   14.97
  -5   5   2  313.58   13.12
  -5  -5   2  324.33   16.23
   5  -5  -1  780.98   21.14
   5   5  -1  839.22   21.23
  -5  -5   1  766.33   84.70
   5  -5  -1  806.14   21.23
  -5   5   1  804.04   17.77
   5  -5   0  365.44   16.52
   5   5   0  366.10   16.02
  -5  -5   0  354.39   14.73
   5  -5   0  365.95   15.71
  -5   5   0  354.00   13.15
   5  -5   1  808.69   22.34
  -5  -5  -1  827.96   20.41
   5  -5   1  794.17   20.09
  -5   5  -1  802.22   16.48
   5  -5   2  314.28   14.91
   5   5   2  334.37   15.10
  -5  -5  -2  402.87   17.47
   5  -5   2  313.94   20.80
   5  -5   3 1141.42   32.89
   5   5   3 1119.41   28.29
   5  -5   3 1163.53   25.92
   5  -5   4  175.21   11.51
   5   5   4  154.56    9.47
  -5  -5  -4  172.72    9.40
   5  -5   4  164.28    8.25
   5  -5   5  335.79   19.18
   5   5   5  336.54   19.99
  -5  -5  -5  292.51   16.10
   5  -5   5  302.81   16.25
   5  -5   6  152.07   15.39
   5   5   6  121.46   12.20
  -5  -5  -6  120.01   10.27
   5  -5   6  118.80   10.44
   5  -5   7   21.83   13.78
   5   5   7   23.46   11.65
  -5  -5  -7   16.50    2.84
   5  -5   7   15.88    4.08
   5  -5   8  170.76   15.71
   5   5   8  153.09   14.08
   5  -5   8  193.49   12.72
  -5  -5  -8  134.65   10.47
   5  -5   9  704.90   35.39
   5   5   9  610.61   38.13
   5  -5   9  608.04   25.62
  -5  -5  -9  632.44   28.74
   5  -5  10   18.71    9.98
   5   5  10   17.09    8.37
   5  -5  11  207.24   19.13
   5   5  11  216.91   19.56
  -5  -5 -11  219.69   18.02
   5  -5  12   24.68   10.31
   5   5  12   31.19    5.01
  -5  -5 -12   28.16    4.38
   5  -5  13  164.30   15.78
   5   5  13  170.66   16.37
  -5  -5 -13  177.98   15.32
   5  -5  14   50.05    9.23
   5   5  14   54.63    8.95
   5  -5  15  264.13   20.48
   5   5  15  293.06   22.30
   5  -5  16   63.62   15.22
   5   5  16   83.61   13.36
   5  -6 -18   15.86   14.88
  -5  -6  18   16.95   13.72
   5  -6 -17   56.14   28.73
  -5  -6  17   71.85   10.05
   5  -6 -16  194.00   19.72
  -5  -6  16  219.58   21.09
   5  -6 -15   62.81   15.63
  -5  -6  15   61.22   17.32
   5  -6 -14   13.97    9.82
  -5  -6  14    9.43    4.75
   5  -6 -13   31.12   22.06
  -5  -6  13   36.52    5.13
   5  -6 -12  221.19   17.44
  -5  -6  12  218.51   14.83
   5   6 -11   59.38    5.53
  -5   6  11   56.97    5.68
   5  -6 -11   84.90   27.76
  -5  -6  11   89.92    7.24
   5   6 -10  112.22   14.01
  -5   6  10  106.81   12.48
   5  -6 -10   98.97   15.38
  -5   6  10  116.66   14.61
  -5  -6  10  109.79   13.59
   5   6  -9   21.11    4.56
  -5   6   9   19.26    8.11
   5  -6  -9   24.79   15.58
  -5   6   9   25.41    7.73
  -5  -6   9   23.40   14.07
   5   6  -8  389.05   19.97
  -5   6   8  378.79   18.11
   5  -6  -8  387.38   24.82
  -5   6   8  386.45   19.17
  -5  -6   8  382.41   23.40
   5  -6  -7  131.30   12.72
   5   6  -7  145.54   13.24
   5  -6  -7  125.02   11.66
  -5   6   7  129.67   10.04
  -5  -6   7  126.19   10.48
   5  -6  -6   50.51    8.30
   5   6  -6   69.95   11.93
  -5  -6   6   57.17   11.58
   5  -6  -6   54.36    9.01
  -5   6   6   73.31   12.69
  -5  -6   6   56.61    9.13
   5  -6  -5  625.79   17.61
   5   6  -5  659.71   13.54
  -5  -6   5  639.99   14.90
   5  -6  -5  647.42   19.15
  -5   6   5  654.29   15.31
  -5  -6   5  623.08   12.49
   5  -6  -4  775.87   25.29
   5   6  -4  766.55   26.48
  -5  -6   4  815.17   25.35
   5  -6  -4  823.03   27.18
  -5   6   4  752.54   21.82
  -5  -6   4  799.68   24.93
   5  -6  -3  363.95   10.21
   5   6  -3  356.05   10.18
  -5  -6   3  292.77   15.77
   5  -6  -3  363.23   11.82
  -5   6   3  351.38    7.31
  -5  -6   3  346.42    8.78
   5  -6  -2  292.26   14.71
   5   6  -2  272.67   13.69
  -5  -6   2  281.15   15.32
   5  -6  -2  282.13   14.91
  -5   6   2  268.82   11.66
  -5  -6   2  286.29   13.48
   5  -6  -1   30.26    7.35
   5   6  -1   65.32   10.06
  -5  -6   1   40.04    5.79
   5  -6  -1   33.16    5.54
  -5   6   1   55.20    5.31
   5  -6   0 1009.74   28.91
   5   6   0 1063.74   26.71
  -5  -6   0 1071.12   26.42
   5  -6   0 1084.18   26.73
  -5   6   0 1069.06   21.24
   5  -6   1   56.16   10.62
   5   6   1   40.62    7.11
  -5  -6  -1   85.90    9.67
   5  -6   1   59.24    6.26
  -5   6  -1   30.19    2.78
   5  -6   2  269.30   18.11
   5   6   2  292.80   15.14
   5  -6   2  265.37   13.75
  -5   6  -2  291.61   12.02
   5  -6   3  349.01   11.37
   5   6   3  349.78   11.36
  -5  -6  -3  337.12   17.28
   5  -6   3  348.90    9.40
   5  -6   4  719.41   24.52
   5   6   4  786.83   25.89
  -5  -6  -4  713.73   22.98
   5  -6   4  735.50   22.07
   5  -6   5  595.33   17.25
   5   6   5  619.93   15.74
  -5  -6  -5  590.97   13.62
   5  -6   5  619.96   11.14
   5  -6   6   61.35    8.75
   5   6   6   56.64    8.22
  -5  -6  -6   64.92   11.05
   5  -6   6   67.89    8.04
   5  -6   7  136.52   12.06
   5   6   7  151.39   12.70
  -5  -6  -7  144.67   12.33
   5  -6   7  133.96    8.88
   5  -6   8  381.99   21.10
   5   6   8  406.51   27.66
  -5  -6  -8  381.36   20.16
   5  -6   9   21.12   12.11
   5   6   9   23.26   14.94
   5  -6   9   20.84    4.96
  -5  -6  -9   21.29    9.50
   5  -6  10  104.93   14.06
   5   6  10   98.06   13.64
   5  -6  10  102.19   11.30
  -5  -6 -10  122.20   14.99
   5  -6  11   58.35    7.84
   5   6  11   95.06   10.14
  -5  -6 -11   63.31    4.98
   5  -6  12  251.30   18.05
   5   6  12  219.93   20.87
  -5  -6 -12  285.21   17.75
   5  -6  13   42.00    7.21
   5   6  13   28.84   18.68
  -5  -6 -13   39.27   10.34
   5  -6  14    8.59    5.17
   5   6  14    8.55    8.48
   5  -6  15   59.69   22.82
   5   6  15   56.48   10.04
   5  -6  16  185.09   18.69
   5   6  16  184.62   19.17
   5  -7 -18    7.02    7.54
  -5  -7  18    9.84    9.06
   5  -7 -17    5.25    8.09
  -5  -7  17    5.59    6.59
   5  -7 -16   51.92   17.44
  -5  -7  16   63.59   29.12
   5  -7 -15  130.39   29.74
  -5  -7  15  142.07   14.91
   5  -7 -13  177.37   20.29
  -5  -7  13  171.38   12.56
   5  -7 -12    3.27    4.94
  -5  -7  12    2.36    3.38
   5   7 -11    9.87    4.33
  -5   7  11    9.36    6.44
   5  -7 -11   12.97    7.45
  -5  -7  11   12.85    7.73
   5   7 -10   53.45    6.73
  -5   7  10   50.03    4.78
   5  -7 -10   49.92   10.37
  -5  -7  10   60.43    5.99
   5   7  -9  304.02   12.18
  -5   7   9  305.17   12.02
   5  -7  -9  317.92   19.40
  -5  -7   9  289.94   14.07
   5   7  -8  248.48   17.06
   5  -7  -8  226.01   12.43
  -5  -7   8  220.32   19.07
   5   7  -7  170.60   15.11
  -5   7   7  164.74   14.18
  -5  -7   7  170.69   17.49
   5  -7  -7  166.66   16.30
  -5   7   7  180.64   15.43
  -5  -7   7  156.38   16.60
   5  -7  -6   77.15    9.15
   5   7  -6   72.33   10.62
  -5  -7   6   73.49    9.26
   5  -7  -6   55.60   14.63
  -5   7   6   72.61    8.48
  -5  -7   6   72.13   10.82
   5  -7  -5   17.39    7.73
   5   7  -5   19.51    5.67
  -5  -7   5   14.12   12.77
   5  -7  -5   16.59    8.10
  -5   7   5   19.64    3.74
  -5  -7   5   15.36   10.27
   5  -7  -4  517.31   13.45
   5   7  -4  508.23   12.42
  -5  -7   4  491.43   14.89
   5  -7  -4  504.78   16.30
  -5   7   4  503.93    9.61
  -5  -7   4  490.80   10.76
   5  -7  -3  343.90   20.51
   5   7  -3  349.99   10.92
  -5  -7   3  348.55   10.34
   5  -7  -3  348.56   14.59
  -5   7   3  342.34   18.58
  -5  -7   3  343.26   18.47
   5  -7  -2  102.69   10.02
   5   7  -2  123.58   11.24
  -5  -7   2   99.36   10.00
   5  -7  -2   94.82   10.31
  -5   7   2   97.16    8.11
  -5  -7   2  105.05    9.38
   5  -7  -1  709.29   23.85
   5   7  -1  715.41   32.85
  -5  -7   1  703.73   22.55
   5  -7  -1  712.90   23.62
  -5   7   1  746.28   20.39
   5  -7   1  758.04   26.07
   5   7   1  690.32   22.88
   5  -7   1  736.31   24.50
  -5   7  -1  672.19    4.32
   5  -7   2  110.32   11.98
   5   7   2  108.41   10.79
  -5  -7  -2  124.50   11.03
   5  -7   2  108.75   13.85
  -5   7  -2   79.53    5.84
   5  -7   3  336.11   19.95
   5   7   3  354.23   12.48
  -5  -7  -3  341.06   17.94
   5  -7   3  338.35   17.86
  -5   7  -3  272.88   12.44
  -5   7  -3  326.45   14.85
   5  -7   4  463.78   26.31
   5   7   4  490.55   26.02
  -5  -7  -4  466.67   11.15
   5  -7   4  509.08   12.84
  -5   7  -4  450.73    5.49
   5  -7   5   23.69   13.09
   5   7   5   18.33   11.08
  -5  -7  -5   21.78    5.54
   5  -7   5   20.46    6.55
   5  -7   6   67.51   11.46
   5   7   6   74.42   10.23
  -5  -7  -6   68.61   12.65
   5  -7   6   71.43    8.75
   5  -7   7  163.71   15.21
   5   7   7  169.77   16.22
  -5  -7  -7  181.93   16.15
   5  -7   7  172.73   13.77
   5  -7   8  244.01   11.29
   5   7   8  235.22   21.76
   5  -7   8  232.58    7.22
  -5  -7  -8  240.70   11.08
   5  -7   9  292.25   16.43
   5   7   9  315.39   15.85
   5  -7   9  371.90   13.17
  -5  -7  -9  320.06   12.96
   5  -7  10   53.87    6.62
   5   7  10   50.24    7.97
   5  -7  10   42.62    2.52
  -5  -7 -10   53.06   12.88
   5  -7  11   10.95    8.65
   5   7  11   14.10    9.58
  -5  -7 -11   13.42    8.81
   5  -7  12    9.42    4.85
   5   7  12    3.01    4.77
  -5  -7 -12    4.42    4.34
   5  -7  13  190.82   20.85
   5   7  13  186.32   15.11
  -5  -7 -13  216.29   20.58
   5  -7  14    6.20    5.55
   5  -7  15  130.70   13.68
   5   7  15  163.70   16.86
   5  -7  16   65.69    9.68
   5   7  16   62.82    8.59
   5  -8 -18   65.95   29.15
  -5  -8  18   75.65    8.18
   5  -8 -17   33.62   15.90
  -5  -8  17   28.23   24.23
   5  -8 -16   52.22   30.10
  -5  -8  16   67.27    9.85
   5  -8 -15    7.16    6.13
  -5  -8  15   10.55    6.61
   5  -8 -14   52.57   28.89
  -5  -8  14   51.16    5.87
   5  -8 -13   53.54   21.44
  -5  -8  13   49.31    7.30
   5  -8 -12  114.23   14.64
  -5  -8  12  104.85   10.71
   5   8 -11   58.16    9.38
  -5   8  11   52.27    7.53
   5  -8 -11   55.73   12.06
  -5  -8  11   60.55    8.41
   5   8 -10  159.79   12.10
  -5   8  10  152.58   12.24
   5  -8 -10  135.88   13.08
  -5  -8  10  152.78   12.85
   5   8  -9   99.75   11.96
  -5   8   9   88.69    6.47
   5  -8  -9   86.73    8.77
  -5  -8   9   88.14    7.73
   5   8  -8   88.95   11.64
  -5   8   8   75.26   12.13
  -5  -8   8   84.27   11.16
   5  -8  -8   87.44   12.95
  -5  -8   8   80.07   13.62
   5   8  -7  215.08   15.85
  -5   8   7  208.71   10.53
  -5  -8   7  226.59   15.22
   5  -8  -7  222.39   15.48
  -5  -8   7  208.67    8.90
   5  -8  -6  514.59   26.39
   5   8  -6  499.78   24.52
  -5  -8   6  511.61   28.94
   5  -8  -6  500.35   26.70
  -5  -8   6  512.94   25.61
   5  -8  -5  386.60   26.94
   5   8  -5  438.18   21.92
  -5  -8   5  397.65   27.72
   5  -8  -5  396.07   27.38
  -5  -8   5  400.23   20.11
   5  -8  -4   40.81    6.23
   5   8  -4   55.54   15.35
  -5  -8   4   38.31   14.81
   5  -8  -4   40.33    6.96
  -5  -8   4   41.05    4.22
   5  -8  -3   29.73   13.63
   5   8  -3   25.09    6.25
  -5  -8   3   27.82    4.13
   5  -8  -3   32.60   11.38
  -5  -8   3   27.00    5.60
   5  -8  -2  192.17   15.94
   5   8  -2  177.31   17.51
  -5  -8   2  188.71   18.19
   5  -8  -2  197.95   17.12
  -5  -8   2  202.33   13.70
   5  -8  -1   77.68    9.39
   5   8  -1   86.73   14.67
  -5  -8   1   90.22   11.21
   5  -8  -1   85.50   10.83
   5  -8   0  399.34   25.83
   5   8   0  400.80   23.34
   5  -8   0  415.84   24.61
   5  -8   1   66.63    9.17
   5   8   1   98.50   13.70
  -5  -8  -1   98.62   11.81
   5  -8   1   65.75    8.40
   5  -8   2  186.85   14.23
   5   8   2  210.52   15.85
  -5  -8  -2  180.59   14.22
   5  -8   2  185.86   13.20
   5  -8   3   25.58   12.98
   5   8   3   29.45   10.99
  -5  -8  -3   22.97    3.94
   5  -8   3   26.60    5.33
   5  -8   4   46.98   10.35
   5   8   4   40.69   19.23
  -5  -8  -4   50.99    7.15
   5  -8   4   44.53    4.02
   5  -8   5  409.65   25.34
   5   8   5  413.83   23.30
  -5  -8  -5  409.26   21.95
   5  -8   5  414.26   20.23
  -5   8  -5  353.29   20.30
   5  -8   6  489.58   27.12
   5   8   6  512.54   27.34
  -5  -8  -6  446.15   28.42
   5  -8   6  509.32   23.58
   5  -8   7  211.23   13.99
   5   8   7  221.83   12.01
  -5  -8  -7  210.55    8.55
   5  -8   7  213.91    7.94
   5  -8   8   70.69   16.88
   5   8   8   81.25   13.49
   5  -8   8   71.14    9.86
  -5  -8  -8   77.52    9.93
   5  -8   9   94.77   10.09
   5   8   9   80.19   14.34
   5  -8   9  146.11   13.32
  -5  -8  -9   95.13   11.26
   5  -8  10  151.90   12.93
   5   8  10  137.55   12.36
  -5  -8 -10  163.08   12.55
   5  -8  11   52.16   15.55
   5   8  11   52.21    6.89
   5  -8  12  111.33   12.79
   5   8  12  114.16   12.20
   5  -8  13   36.96   11.73
   5   8  13   53.46    7.67
  -5  -8 -13   43.40    5.45
   5  -8  14   49.31    7.10
   5   8  14   65.28    7.83
   5  -8  15    8.98    5.07
   5   8  15    2.85    6.80
   5  -8  16   52.98    9.11
   5   8  16   54.39   23.61
   5  -9 -17    6.71    5.34
  -5  -9  17    1.71    3.51
   5  -9 -16    7.97    7.96
  -5  -9  16   12.80   10.27
   5  -9 -15   35.41   10.34
  -5  -9  15   36.89   15.78
   5  -9 -14  100.60   16.23
  -5  -9  14  102.47    8.49
   5  -9 -13   32.66   11.71
  -5  -9  13   29.59    5.82
   5  -9 -12   83.58   17.85
  -5  -9  12   82.04    7.83
   5   9 -11   37.86    7.57
  -5   9  11   34.76    8.93
   5  -9 -11   41.24   23.78
  -5  -9  11   48.21    5.55
   5   9 -10  259.70   18.48
  -5   9  10  277.63   18.13
   5  -9 -10  290.84   21.76
  -5  -9  10  297.39   18.99
   5   9  -9   16.08    3.61
  -5   9   9   33.36    5.10
  -5  -9   9   22.75   11.53
   5  -9  -9   20.95   10.27
  -5  -9   9   15.83    4.09
   5   9  -8   25.90    5.67
  -5   9   8   26.33    8.17
  -5  -9   8   40.62   18.73
   5  -9  -8   33.41   10.26
  -5  -9   8   38.13    5.29
   5   9  -7  148.72   14.07
  -5   9   7  148.42   15.21
  -5  -9   7  155.41    8.95
   5  -9  -7  169.44   18.18
  -5  -9   7  124.57   10.44
   5   9  -6  428.98   18.57
  -5   9   6  398.41   19.04
  -5  -9   6  399.55   24.16
   5  -9  -6  421.87   21.05
  -5  -9   6  404.30   14.13
   5  -9  -5   80.99   13.28
   5   9  -5   84.60   11.05
  -5  -9   5   59.94   15.85
   5  -9  -5   59.79   11.87
  -5  -9   5   61.33   11.65
   5  -9  -4   44.89    7.00
   5   9  -4   39.31    7.57
  -5  -9   4   52.52    6.60
   5  -9  -4   59.25   25.87
  -5  -9   4   45.91    7.02
   5  -9  -3  253.13   21.35
   5   9  -3  198.15   18.03
  -5  -9   3  233.08   20.97
   5  -9  -3  233.01   24.44
  -5  -9   3  222.33   13.87
   5  -9  -2  269.42   19.34
   5   9  -2  215.73   19.29
  -5  -9   2  268.68   18.29
   5  -9  -2  272.75   26.72
  -5  -9   2  266.91   17.70
   5  -9  -1   85.13    9.96
   5   9  -1   89.50   10.85
  -5  -9   1  123.22   14.37
   5  -9  -1   97.08   11.86
  -5  -9   1   93.11   10.88
   5  -9   0   66.28   11.51
   5   9   0   67.96    8.51
  -5  -9   0  153.75   17.35
   5  -9   0   59.60    6.97
   5  -9   1   93.58   23.73
   5   9   1   91.69   13.23
  -5  -9  -1   97.10   13.37
   5  -9   1   95.30   11.21
   5  -9   2  243.27   25.40
   5   9   2  248.89   18.25
  -5  -9  -2  211.87   18.07
   5  -9   2  243.91   17.47
   5  -9   3  214.56   19.78
   5   9   3  239.55   19.92
  -5  -9  -3  197.01   16.88
   5  -9   3  206.28   21.25
   5  -9   4   42.18    6.82
   5   9   4   55.12    7.87
  -5  -9  -4   40.77    6.80
   5  -9   4   32.82    4.82
   5  -9   5   82.41   15.26
   5   9   5   75.46   11.63
  -5  -9  -5   67.34   13.50
   5  -9   5   85.31   10.97
   5  -9   6  436.29   20.16
   5   9   6  422.94   20.03
  -5  -9  -6  411.75   17.56
   5  -9   6  449.27   20.52
   5  -9   7  152.40   17.54
   5   9   7  151.73   15.72
  -5  -9  -7  144.72   12.11
   5  -9   7  142.43   16.36
   5  -9   8   31.91   20.64
   5   9   8   34.69   21.85
   5  -9   8   26.01    4.84
  -5  -9  -8   27.51   14.90
   5  -9   9   26.33   12.87
   5   9   9   12.85   10.92
   5  -9  10  290.84   23.89
   5   9  10  278.00   19.45
  -5  -9 -10  269.10   18.80
   5  -9  11   46.02    6.99
   5   9  11   39.38   10.20
  -5  -9 -11   43.02    9.15
   5  -9  12   75.87    9.23
   5   9  12   80.44   15.15
  -5  -9 -12   87.65    8.47
   5  -9  13   26.49   18.54
   5   9  13   24.98   20.01
  -5  -9 -13   31.87   10.93
   5  -9  14  101.69   12.52
   5   9  14   94.42   14.02
   5  -9  15   26.39   15.26
   5   9  15   34.63   14.51
   5  -9  16    8.56    5.22
   5 -10 -16   55.37   13.84
  -5 -10  16   49.89   11.22
   5 -10 -15   23.04   21.15
  -5 -10  15   35.67   17.60
   5 -10 -14   15.46   17.52
  -5 -10  14   23.53   11.41
   5 -10 -13   65.92    9.10
  -5 -10  13   74.85    7.10
   5 -10 -12   19.85   16.25
  -5 -10  12   10.22    6.70
   5  10 -11  249.76   19.64
  -5  10  11  256.52   18.41
   5 -10 -11  261.46   27.71
  -5 -10  11  265.01   22.02
   5  10 -10  109.18   14.56
  -5  10  10  109.35   15.60
   5 -10 -10  104.10   14.79
  -5 -10  10  100.88   16.75
  -5  10   9  257.49   19.51
  -5 -10   9  248.08   18.39
   5 -10  -9  261.37   28.89
  -5 -10   9  248.76   16.22
   5  10  -8  177.67   16.19
  -5  10   8  164.44   17.55
  -5 -10   8  160.48   14.70
   5 -10  -8  169.86   27.01
  -5 -10   8  161.77   15.00
   5  10  -7  168.47   12.99
  -5  10   7  180.80   14.28
  -5 -10   7  172.12   13.44
   5 -10  -7  182.07   16.37
  -5 -10   7  172.27   14.58
   5  10  -6  161.23   18.90
  -5  10   6  172.58   21.26
  -5 -10   6  163.26   15.03
   5 -10  -6  173.63   18.31
  -5 -10   6  162.15   14.79
   5  10  -5  246.42   21.21
  -5  10   5  241.58   22.53
  -5 -10   5  256.57   21.84
   5 -10  -5  259.00   27.17
  -5 -10   5  268.62   22.63
   5 -10  -4  148.79   20.49
   5  10  -4  140.52    9.18
  -5 -10   4  133.28    8.49
   5 -10  -4  148.01   13.08
  -5 -10   4  137.58    7.31
   5 -10  -3  631.19   25.63
   5  10  -3  604.63   26.32
  -5 -10   3  578.03   24.56
   5 -10  -3  623.95   37.96
  -5 -10   3  604.18   24.34
   5 -10  -2   80.64   19.42
   5  10  -2  112.18   27.52
  -5 -10   2   80.19   14.67
   5 -10  -2   80.39   16.35
  -5 -10   2   80.87   10.06
   5 -10  -1  400.40   17.96
   5  10  -1  354.19   17.41
   5 -10  -1  391.49   19.95
  -5 -10   1  410.92   16.96
   5 -10   0  131.30   11.64
   5  10   0   80.71   13.19
  -5 -10   0  119.91   22.15
   5 -10   0  113.52   16.41
   5 -10   1  384.67   17.35
   5  10   1  377.69   17.93
  -5 -10  -1  391.02   18.07
   5 -10   1  371.45   19.04
   5 -10   2  119.77   20.88
   5  10   2   89.14   14.15
  -5 -10  -2   99.57   16.84
   5 -10   2  113.00   16.22
   5 -10   3  640.98   30.89
   5  10   3  606.36   27.37
  -5 -10  -3  550.66   25.05
   5 -10   3  612.58   24.29
   5 -10   4  175.01   16.11
   5  10   4  150.14   11.12
  -5 -10  -4  138.36   12.77
   5 -10   4  151.13    8.90
   5 -10   5  252.64   25.69
   5  10   5  257.60   22.76
  -5 -10  -5  232.83   20.07
   5 -10   6  174.49   16.92
   5  10   6  166.09   18.15
  -5 -10  -6  162.32   16.56
   5 -10   6  196.89   26.65
   5 -10   7  180.19   16.77
   5  10   7  168.37   13.97
  -5 -10  -7  162.20   17.03
   5 -10   7  164.72   14.21
   5 -10   8  187.55   20.34
   5  10   8  147.86   22.04
   5 -10   8  154.51   15.00
  -5 -10  -8  154.30   26.03
   5 -10   9  242.78   22.44
   5  10   9  219.17   25.54
   5 -10   9  250.96   19.24
  -5 -10  -9  252.41   17.47
   5 -10  10  122.06   15.64
   5  10  10  102.67   13.86
  -5 -10 -10  114.82   13.96
   5 -10  11  256.34   33.40
   5  10  11  270.61   21.91
  -5 -10 -11  245.94   18.02
   5 -10  12   21.79   10.37
   5  10  12   10.27   11.60
  -5 -10 -12    7.83    8.45
   5 -10  13   79.40    9.14
   5  10  13   70.08   16.27
  -5 -10 -13   74.76    6.94
   5 -10  14   27.63   16.74
   5  10  14   20.30   17.06
  -5 -10 -14   25.85   10.41
   5 -10  15   26.84   21.84
   5  10  15   23.14   25.60
   5 -10  16   52.61   18.56
   5  10  16   55.57    8.09
   5 -11 -15    5.25    5.69
  -5 -11  15    5.92    2.99
   5 -11 -14   62.15   24.99
  -5 -11  14   61.34   11.63
   5 -11 -13   15.99   10.67
  -5 -11  13   12.47    8.16
   5 -11 -12  136.05   18.11
  -5 -11  12  127.31   12.22
   5  11 -11   28.05   13.05
  -5  11  11   36.84    5.17
   5 -11 -11   44.06   10.72
  -5 -11  11   31.02   11.06
   5  11 -10  218.45   22.70
  -5  11  10  239.23   18.26
   5 -11 -10  254.19   21.46
  -5 -11  10  251.66   20.48
   5  11  -9    5.83    5.36
  -5  11   9    7.53    6.70
  -5 -11   9    4.19    3.81
   5 -11  -9    9.03    6.21
  -5 -11   9    5.60    3.28
   5  11  -8   57.45   20.36
  -5  11   8   60.41    6.69
  -5 -11   8   46.86    5.84
   5 -11  -8   49.89   22.62
  -5 -11   8   48.25    8.10
   5  11  -7   80.26   10.14
  -5  11   7   76.11   11.06
  -5 -11   7   70.30    9.10
   5 -11  -7   73.46   14.07
  -5 -11   7   62.08    7.77
   5  11  -6   71.55   11.54
  -5  11   6   79.13    9.81
  -5 -11   6   73.49    9.39
   5 -11  -6   69.85   11.92
  -5 -11   6   74.83    9.10
   5  11  -5    2.89    4.06
  -5  11   5    4.51    5.34
  -5 -11   5    4.56    3.17
   5 -11  -5   11.24    6.17
  -5 -11   5    4.13    2.77
   5  11  -4  140.51   14.48
  -5 -11   4  131.89   11.14
   5 -11  -4  134.97   12.28
  -5 -11   4  143.91   10.63
   5 -11  -3   24.96    8.20
   5  11  -3   22.80    9.55
  -5 -11   3   23.43   14.35
   5 -11  -3   24.27   10.85
  -5 -11   3   23.55    4.38
   5 -11  -2  509.03   36.55
   5  11  -2  563.91   39.26
  -5 -11   2  532.87   37.32
   5 -11  -2  478.07   37.82
  -5 -11   2  513.58   36.82
   5 -11  -1   68.70   20.19
   5  11  -1   64.74   15.82
  -5 -11   1  149.85   50.69
   5 -11  -1   64.08    7.21
  -5 -11   1   53.82    9.97
   5 -11   0  415.98   29.86
   5  11   0  391.66   30.94
  -5 -11   0  497.40   34.75
   5 -11   0  403.92   29.15
   5 -11   1   82.29   13.25
   5  11   1   54.25    7.00
  -5 -11  -1   60.70    7.15
   5 -11   1   73.13    7.56
   5 -11   2  568.00   40.04
   5  11   2  506.02   41.51
  -5 -11  -2  492.01   34.45
   5 -11   2  538.90   39.11
   5 -11   3   27.79   18.61
   5  11   3   27.84   12.46
  -5 -11  -3   18.45    9.31
   5 -11   3   23.09   12.45
   5 -11   4  145.75   14.32
   5  11   4  141.98   13.60
  -5 -11  -4  129.41   15.31
   5 -11   4  143.42   11.12
   5 -11   5    2.94    3.58
   5  11   5    7.16    5.43
  -5 -11  -5    2.17    2.97
   5 -11   5    4.58    2.60
   5 -11   6   76.29   12.02
   5  11   6   79.92   12.76
  -5 -11  -6   76.62   10.39
   5 -11   6   88.14    6.45
   5 -11   7   80.55   13.42
   5  11   7   65.06    9.73
  -5 -11  -7   76.26   11.38
   5 -11   7   71.99   14.05
   5 -11   8   63.98    7.56
   5  11   8   49.79    8.28
   5 -11   8   56.23    4.61
  -5 -11  -8   66.54   24.04
   5 -11   9   12.58    8.22
   5  11   9    9.15    6.55
   5 -11   9    7.08    4.31
  -5 -11  -9    7.41    7.08
   5 -11  10  250.58   22.02
   5  11  10  237.30   27.28
  -5 -11 -10  246.09   18.32
   5 -11  11   44.82   12.06
   5  11  11   23.00   22.34
  -5 -11 -11   26.38    8.47
   5 -11  12  142.25   16.44
   5  11  12  125.92   13.71
  -5 -11 -12  126.85   12.54
   5 -11  13   15.01   14.14
   5  11  13   16.70    9.90
  -5 -11 -13    8.78    8.80
   5 -11  14   68.76   14.47
   5  11  14   63.05   10.94
  -5 -11 -14   60.74   12.43
   5 -11  15    4.16    3.88
   5  11  15    6.35    6.34
   5 -12 -14    8.51   14.64
  -5 -12  14   12.54   10.09
   5 -12 -13   22.17   16.84
  -5 -12  13   16.96   11.24
   5 -12 -12   19.63   20.47
  -5 -12  12   15.51    7.26
   5  12 -11   44.77    8.14
  -5  12  11   40.28    5.22
  -5 -12  11   42.37   27.96
   5 -12 -11   46.39   11.19
  -5 -12  11   50.31    5.13
   5  12 -10   24.11   10.13
  -5  12  10   19.17   10.75
  -5 -12  10   33.44   17.17
   5 -12 -10   24.72   12.75
  -5 -12  10   30.24   11.12
   5  12  -9    9.62   10.75
  -5  12   9   15.56   12.52
  -5 -12   9   12.58    6.12
   5 -12  -9   19.66   14.51
  -5 -12   9   10.75    8.91
   5  12  -8   69.55    7.37
  -5  12   8   66.81    6.46
  -5 -12   8   75.02   12.45
   5 -12  -8   86.98   11.54
  -5 -12   8   77.73    6.34
   5  12  -7  271.80   21.02
  -5  12   7  278.44   21.78
  -5 -12   7  242.54   18.78
   5 -12  -7  223.09   33.92
  -5 -12   7  247.88   17.94
   5  12  -6   45.15   15.38
  -5  12   6   46.40    6.75
  -5 -12   6   51.43    6.06
   5 -12  -6   52.59   10.10
   5  12  -5  286.77   19.68
  -5  12   5  279.05   23.23
  -5 -12   5  272.20   22.66
   5 -12  -5  292.12   22.10
  -5 -12   5  270.14   20.29
   5  12  -4   43.54   17.91
  -5  12   4   46.12    6.43
  -5 -12   4   41.51   18.11
   5 -12  -4   40.56   16.94
  -5 -12   4   41.84    4.66
   5  12  -3   51.11    8.03
  -5  12   3   51.71    6.49
  -5 -12   3   63.55    9.08
   5 -12  -3   66.50   10.63
  -5 -12   3   58.81    8.42
   5 -12  -2   78.98   10.41
   5  12  -2   66.17   18.17
  -5 -12   2   98.80   12.15
   5 -12  -2   83.48   10.75
  -5 -12   2   76.61    8.56
   5 -12  -1   38.15   10.77
   5  12  -1   35.32    6.07
  -5 -12   1  189.37   98.54
   5 -12  -1   33.14   15.43
  -5 -12   1   33.94    4.06
   5 -12   0    8.03    8.51
   5  12   0   11.18    5.87
  -5 -12   0   11.93    7.34
   5 -12   0   10.98    7.01
   5 -12   1   47.82   20.02
   5  12   1   32.96   15.54
  -5 -12  -1   35.72   15.64
   5 -12   1   36.38    5.63
   5 -12   2   69.65   25.95
   5  12   2   85.18   13.33
  -5 -12  -2   69.80    8.27
   5 -12   2   63.35    6.51
   5 -12   3   43.25   23.25
   5  12   3   68.81   10.87
  -5 -12  -3   47.89    7.48
   5 -12   3   51.25    6.02
   5 -12   4   44.31   18.82
   5  12   4   44.05   20.31
  -5 -12  -4   46.57   18.41
   5 -12   4   48.44   11.55
   5 -12   5  277.24   32.54
   5  12   5  307.49   21.74
  -5 -12  -5  263.57   17.81
   5 -12   5  300.44   20.25
   5 -12   6   47.75   19.98
   5  12   6   48.56   10.74
  -5 -12  -6   32.92    5.32
   5 -12   6   47.46    5.55
   5 -12   7  296.42   28.86
   5  12   7  257.63   18.72
  -5 -12  -7  268.42   17.95
   5 -12   7  294.26   19.84
   5 -12   8   81.88    8.79
   5  12   8   68.86   16.04
   5 -12   8   69.56    6.36
  -5 -12  -8   64.55    7.08
   5 -12   9   23.85   13.47
   5  12   9   10.97    7.85
   5 -12   9   18.25   11.54
  -5 -12  -9   19.94   12.39
   5 -12  10   26.37   18.21
   5  12  10   22.76   24.69
  -5 -12 -10   28.62    6.37
   5 -12  11   38.03   22.74
   5  12  11   47.62   16.52
  -5 -12 -11   45.04    7.08
   5 -12  12   22.32   20.84
   5  12  12   23.53   21.69
  -5 -12 -12   22.72    9.87
   5 -12  13   31.44   18.63
   5  12  13   20.35   23.01
  -5 -12 -13   30.50    7.10
   5 -12  14    8.61    6.59
   5  12  14    8.68   16.30
  -5 -12 -14    5.53    9.97
   5 -13 -13   56.79   11.09
   5 -13 -12    4.46    5.03
   5  13 -11    6.22    7.89
  -5  13  11    5.71    9.06
  -5 -13  11   11.26    6.34
   5 -13 -11    8.44    7.15
  -5 -13  11    6.53    5.04
   5  13 -10   13.73   14.52
  -5  13  10   11.40   14.72
  -5 -13  10   18.31   15.90
   5 -13 -10   18.08   23.61
  -5 -13  10   20.60    9.54
   5  13  -9   35.99    5.29
  -5  13   9   25.57    9.05
  -5 -13   9   31.47   11.06
   5 -13  -9   28.74   26.30
  -5 -13   9   31.78    4.53
   5  13  -8  184.01   10.71
  -5 -13   8  173.00   21.95
   5 -13  -8  177.71   18.21
  -5 -13   8  168.28   12.18
   5  13  -7    5.57    4.58
  -5  13   7    8.22    6.58
  -5 -13   7   11.12    5.67
   5 -13  -7   12.15    7.98
  -5 -13   7    7.27    5.53
   5  13  -6   29.89   14.01
  -5  13   6   31.22   16.54
  -5 -13   6   35.12   11.41
   5 -13  -6   29.54   18.22
  -5 -13   6   31.52   11.54
   5  13  -5   17.89   13.85
  -5  13   5   18.18   15.81
  -5 -13   5   23.86   12.42
   5 -13  -5   20.59   11.03
  -5 -13   5   19.68   11.87
   5  13  -4  115.75   14.92
  -5  13   4  114.72   14.49
  -5 -13   4   93.15   28.11
   5 -13  -4   94.97   13.59
  -5 -13   4   95.67   11.55
   5  13  -3   44.47    7.79
  -5  13   3   38.48   16.95
  -5 -13   3   40.79   22.09
   5 -13  -3   39.44   10.06
  -5 -13   3   40.04    4.17
   5  13  -2   42.39   14.08
  -5  13   2   43.08   22.10
  -5 -13   2   45.34   18.51
   5 -13  -2   35.65    7.45
  -5 -13   2   35.30    3.99
   5 -13  -1   50.89   12.50
   5  13  -1   39.53   17.19
  -5 -13   1  258.32  103.35
   5 -13  -1   44.83   11.54
  -5 -13   1   50.04    4.71
   5 -13   0   32.66   15.34
   5  13   0   37.13   14.37
  -5 -13   0   36.42   14.49
   5 -13   0   33.31   19.05
  -5 -13   0   36.59    8.36
   5 -13   1   53.93   27.39
   5  13   1   43.11   14.04
  -5 -13  -1   38.07    8.31
   5 -13   1   40.82    9.59
   5 -13   2   39.07   22.30
   5  13   2   36.91    6.94
  -5 -13  -2   33.04   14.47
   5 -13   2   32.93   19.98
   5 -13   3   49.72   26.39
   5  13   3   43.63   20.88
  -5 -13  -3   42.85    7.28
   5 -13   3   35.00    7.12
   5 -13   4  111.99   16.71
   5  13   4  102.50   13.92
  -5 -13  -4   99.79   16.11
   5 -13   4  114.36   17.58
   5 -13   5   21.62   12.53
   5  13   5   14.84   11.61
  -5 -13  -5   15.07    9.38
   5 -13   5   21.20   15.32
   5 -13   6   43.21   22.72
   5  13   6   35.71   21.97
  -5 -13  -6   28.71   10.18
   5 -13   6   33.12    5.34
   5 -13   7   10.82    6.72
   5  13   7   10.87    8.44
  -5 -13  -7    9.89    6.19
   5 -13   7    8.72    4.58
   5 -13   8  177.75   16.00
   5  13   8  173.77   18.94
   5 -13   8  168.80   14.12
  -5 -13  -8  182.65   14.70
   5 -13   9   33.95   21.58
   5  13   9   23.56   24.95
   5 -13   9   32.27   15.97
  -5 -13  -9   32.73   19.94
   5 -13  10   20.36   10.98
   5  13  10   13.89   15.98
  -5 -13 -10   21.20   15.83
   5 -13  11   10.38    7.76
   5  13  11   10.25   11.20
  -5 -13 -11   12.62    5.92
   5 -13  12   -0.09    4.46
   5  13  12    1.99    3.84
  -5 -13 -12    0.23    2.26
   5 -13  13   61.67   10.22
   5  13  13   68.01   10.42
  -5 -13 -13   52.58   12.85
   5 -14 -12   57.31   12.20
   5  14 -11   50.57    6.67
  -5  14  11   48.19    6.33
  -5 -14  11   65.28    7.82
   5 -14 -11   47.58   19.07
   5  14 -10    8.36   13.88
  -5  14  10    9.94   13.74
  -5 -14  10   14.61   13.77
   5 -14 -10   16.46   12.89
   5  14  -9    4.12    7.65
  -5  14   9    6.81    4.53
  -5 -14   9    9.07    7.61
   5 -14  -9    4.57    8.81
   5  14  -8   62.44   13.89
  -5  14   8   64.29    7.75
  -5 -14   8   58.96    7.37
   5 -14  -8   61.83   23.14
   5  14  -7   58.88   12.58
  -5  14   7   57.90   10.27
  -5 -14   7   54.80   24.95
   5 -14  -7   58.17    9.20
   5  14  -6    5.99    4.28
  -5  14   6    4.00    4.18
  -5 -14   6    3.19    4.07
   5 -14  -6    2.43    4.07
  -5 -14   6    3.24    2.00
   5  14  -5  148.15   17.17
  -5  14   5  142.91   10.58
  -5 -14   5  139.24   13.63
   5 -14  -5  135.63   10.83
  -5 -14   5  144.70    8.04
   5  14  -4  111.57   14.11
  -5  14   4  111.98   16.26
  -5 -14   4   92.98   15.07
   5 -14  -4  102.90   12.03
  -5 -14   4  101.10   12.55
   5  14  -3   41.94   17.64
  -5  14   3   42.19    9.98
  -5 -14   3   35.49   13.60
   5 -14  -3   31.09    8.29
  -5 -14   3   35.34    4.64
   5  14  -2   20.31   15.87
  -5  14   2   18.54   12.57
  -5 -14   2   21.71   15.41
   5 -14  -2   18.77   12.94
  -5 -14   2   16.56    6.40
   5  14  -1   80.88   14.94
  -5  14   1   84.83   18.23
  -5 -14   1  530.38  193.34
   5 -14  -1   76.13   11.79
  -5 -14   1   82.87    6.41
   5  14   0  293.54   26.04
  -5 -14   0  370.38   27.72
   5 -14   0  295.60   26.32
  -5 -14   0  308.68   22.65
   5 -14   1   79.41   22.87
   5  14   1   72.58   17.05
  -5 -14  -1   79.28   10.62
   5 -14   1   89.04   10.69
   5 -14   2   24.66   10.37
   5  14   2    9.47   12.60
  -5 -14  -2   20.41   12.91
   5 -14   2   15.58   13.87
   5 -14   3   41.26   10.72
   5  14   3   39.07    7.36
  -5 -14  -3   40.36    6.94
   5 -14   3   35.99   16.63
   5 -14   4  118.22   14.65
   5  14   4  114.29   14.47
  -5 -14  -4   99.86   12.01
   5 -14   4  122.45   14.26
   5 -14   5  147.40   11.48
   5  14   5  144.28   11.74
  -5 -14  -5  141.32   10.12
   5 -14   6    2.03    2.93
   5  14   6    3.61    5.79
  -5 -14  -6    2.82    3.48
   5 -14   6    1.12    4.15
   5 -14   7   57.22   29.50
   5  14   7   53.23   10.58
  -5 -14  -7   62.25   26.43
   5 -14   7   56.38    6.70
   5 -14   8   61.37   14.68
   5  14   8   67.61   13.14
   5 -14   8   55.20    5.69
  -5 -14  -8   64.05    8.90
   5 -14   9    5.92    4.46
   5  14   9    8.62    7.48
   5 -14   9    7.25    3.84
  -5 -14  -9    6.54    3.90
   5 -14  10   12.65   12.19
   5  14  10   15.86   13.80
  -5 -14 -10   15.64    7.67
   5 -14  11   54.59   23.97
   5  14  11   50.27   19.15
  -5 -14 -11   48.35   16.43
   5 -14  12   44.48   30.18
   5  14  12   42.63   14.60
  -5 -14 -12   44.03   11.17
   5  15 -10   16.56    9.58
  -5  15  10    9.61   13.41
  -5 -15  10   22.43   10.17
   5 -15 -10   22.71   22.91
   5  15  -9   39.09   20.25
  -5  15   9   45.85    6.84
  -5 -15   9   44.03    9.27
   5 -15  -9   42.49   28.35
   5  15  -8    4.63    3.95
  -5  15   8    2.15    4.83
  -5 -15   8    2.37    4.02
   5 -15  -8    2.37    6.45
   5  15  -7    1.34    2.58
  -5  15   7    1.48    2.65
  -5 -15   7    3.08    2.78
   5 -15  -7    3.26    7.08
   5  15  -6    1.66    2.61
  -5  15   6    3.83    3.78
  -5 -15   6    3.30    4.68
   5 -15  -6    1.82    4.10
   5  15  -5    4.57    6.50
  -5  15   5    8.61    4.45
  -5 -15   5    6.28    4.05
   5 -15  -5    7.85    5.40
   5  15  -4    1.74    2.72
  -5  15   4    2.47    3.18
  -5 -15   4    1.10    2.66
   5 -15  -4    3.48    3.54
   5  15  -3  119.51   16.24
  -5  15   3  131.82   14.32
  -5 -15   3  128.62   13.45
   5 -15  -3  136.27   16.58
   5  15  -2   47.72   22.17
  -5  15   2   45.00   21.81
  -5 -15   2   51.54   22.04
   5 -15  -2   31.34   16.56
   5  15  -1   99.22   10.61
  -5  15   1   94.95    9.77
   5 -15  -1   99.09    9.34
   5  15   0    6.49    3.97
  -5  15   0    3.19    2.67
  -5 -15   0   13.84   12.95
   5 -15   0    7.00    7.80
  -5 -15   0    5.88    3.31
   5  15   1   87.01   29.88
  -5  15  -1   99.40    9.87
  -5 -15  -1  108.85   11.70
   5 -15   1   93.60   10.19
  -5 -15  -1   84.46    9.75
   5  15   2   36.11    8.01
  -5  15  -2   44.57   14.92
   5 -15   2   42.71    6.73
   5 -15   3  142.56   17.71
   5  15   3  137.96   16.39
  -5 -15  -3  118.88   12.60
   5 -15   3  128.31   19.76
   5 -15   4    4.40    5.09
   5  15   4    2.75    3.50
  -5 -15  -4    4.01    4.35
   5 -15   4    3.17    5.80
   5 -15   5    2.78    3.27
   5  15   5    7.54    3.52
  -5 -15  -5    4.97    4.25
   5 -15   5    4.57    4.10
   5  15   6    4.62    6.10
  -5 -15  -6    1.35    2.32
   5 -15   6    1.99    2.82
   5 -15   7    5.06    6.45
   5  15   7    4.08    5.77
  -5 -15  -7    0.99    2.49
   5 -15   7    1.14    3.08
   5 -15   8    3.08    5.95
   5  15   8    5.76    5.52
   5 -15   8    2.81    4.25
  -5 -15  -8    1.72    2.38
   5 -15   9   38.50   32.46
   5  15   9   38.23   15.96
   5 -15  10   14.05   15.69
   5  15  10   20.80   21.51
  -5 -15 -10   13.38   15.86
  -5  16   9    5.43    5.80
  -5 -16   9    1.98    3.19
   5 -16  -9    6.92    9.91
   5  16  -8    7.62    5.66
  -5  16   8    5.70    8.74
  -5 -16   8   10.78    7.90
   5 -16  -8   11.03    8.84
   5  16  -7   27.12   17.61
  -5  16   7   28.85   24.56
  -5 -16   7   28.42   19.81
   5 -16  -7   32.75   20.33
   5  16  -6  195.34   13.04
  -5  16   6  178.99   15.88
  -5 -16   6  171.43   12.55
   5 -16  -6  198.61   14.52
   5  16  -5   61.30   10.05
  -5  16   5   60.65   10.16
  -5 -16   5   65.18   30.01
   5 -16  -5   64.10   15.21
   5  16  -4    4.48    5.60
  -5  16   4    4.22    7.62
  -5 -16   4    6.05    4.39
   5 -16  -4    6.75    7.47
   5  16  -3   10.15    5.24
  -5  16   3    6.17    6.24
  -5 -16   3    5.46   10.61
   5 -16  -3   10.41   10.97
   5  16  -2   24.19   18.61
  -5  16   2   33.50   14.56
  -5 -16   2   35.02   21.79
   5 -16  -2   21.07   25.42
   5  16  -1   41.67    9.46
  -5  16   1   44.16    9.64
  -5 -16   1  111.09   57.12
   5 -16  -1   42.69    7.70
   5  16   0    5.30    5.99
  -5  16   0    3.08    3.53
  -5 -16   0    4.14    7.94
   5 -16   0    1.33    4.64
   5  16   1   43.71    7.56
  -5  16  -1   43.37    8.07
  -5 -16  -1   48.99   23.48
   5 -16   1   38.53    6.51
   5  16   2   27.77   23.84
  -5  16  -2   30.05   19.56
  -5 -16  -2   33.98   13.35
   5 -16   2   21.35   20.89
   5  16   3    7.29    4.87
  -5  16  -3    6.68    8.61
  -5 -16  -3    6.75    4.70
   5 -16   3   11.37    8.70
   5  16   4    3.50    4.21
  -5  16  -4    5.85    6.91
  -5 -16  -4    3.40    2.76
   5 -16   4    0.80    3.02
   5  16   5   65.97   23.96
  -5  16  -5   64.92   13.30
  -5 -16  -5   53.42   10.41
   5 -16   5   67.39   11.94
   5  16   6  202.75   15.68
  -5 -16  -6  162.13   19.72
   5 -16   6  168.43   10.59
   5  16   7   35.10   10.37
  -5 -16  -7   31.85   20.94
   5 -16   7   31.32    4.96
   5 -16   8    4.74    7.71
   5  16   8    9.71    8.08
   5 -16   8    5.68    5.04
  -5 -16  -8    3.16    4.59
  -5 -16  -9    4.41    5.94
   5  17  -6    4.38    6.33
  -5  17   6    1.05    3.92
  -5 -17   6    4.55    6.23
   5 -17  -6    3.08    4.35
   5  17  -5   52.31   19.13
  -5  17   5   44.00   25.20
  -5 -17   5   52.70   15.64
   5 -17  -5   48.19    8.44
   5  17  -4   13.24   10.48
  -5  17   4   10.83   19.19
  -5 -17   4   16.94   12.80
   5 -17  -4   20.61   20.78
   5  17  -3   88.51   11.94
  -5  17   3   92.99   12.05
   5 -17  -3  102.55   12.99
   5  17  -2    5.05    4.22
  -5  17   2    2.79    3.31
  -5 -17   2    1.25    4.45
   5 -17  -2    2.91    5.42
   5  17  -1    3.04    3.26
  -5  17   1    5.53    5.02
  -5 -17   1   18.64   10.44
   5 -17  -1    7.18    8.08
   5  17   0    6.33    5.90
  -5  17   0    2.73    4.06
  -5 -17   0    8.83   10.33
   5 -17   0    3.66    3.55
   5  17   1    7.62   10.68
  -5  17  -1    7.44    9.58
  -5 -17  -1    5.85    4.29
   5 -17   1    3.50    4.75
   5  17   2    2.10    4.50
  -5  17  -2    2.07    3.52
  -5 -17  -2    3.37    5.80
   5 -17   2    3.69    5.83
   5  17   3  113.39   15.06
  -5  17  -3   89.00   14.74
  -5 -17  -3   93.77   13.51
   5 -17   3   91.32   22.64
   5  17   4   15.25    7.67
  -5  17  -4   19.18    8.71
  -5 -17  -4   13.57   16.40
   5 -17   4   12.61    9.93
   5  17   5   54.84   12.45
  -5  17  -5   47.66   24.59
  -5 -17  -5   54.61   11.43
   5 -17   5   50.29    6.81
  -5  17  -6    8.40    8.28
  -5 -17  -6    6.53    5.27
   5 -17   6    4.43    4.23
   6   0 -19   41.72   16.29
   6   0 -18   78.52   14.10
  -6   0  18   75.37   14.35
   6   0 -17   23.60   22.96
  -6   0  17   34.13   21.37
   6   0 -16    8.13   11.81
  -6   0  16    9.60    6.58
   6   0 -15  518.31   18.87
  -6   0  15  390.84   24.71
   6   0 -14  112.65   22.36
  -6   0  14  117.76   14.11
   6   0 -13   73.67   20.00
  -6   0  13   84.79   10.47
   6   0 -12  471.39   33.44
  -6   0  12  496.95   33.95
   6   0 -11    2.84    4.91
  -6   0  11    2.18    3.49
   6   0 -10  183.87   18.43
  -6   0  10  176.13   15.74
  -6   0   9  720.00   27.70
   6   0  -8   72.07   18.55
  -6   0   8   11.72    2.67
  -6   0   8   14.03    4.20
   6   0  -7 1203.07   33.47
  -6   0   7 1145.62   33.92
   6   0  -6 1158.28   32.49
  -6   0   6 1147.69   33.05
   6   0  -5  592.91   22.12
  -6   0   5  582.71   22.38
   6   0  -4   79.27    6.73
  -6   0   4   69.59    6.18
   6   0  -3 1634.21   35.11
  -6   0   3 1562.26   34.18
   6   0  -2  154.25    8.76
  -6   0   2  151.35    8.00
   6   0  -1  484.19   17.40
  -6   0   1  464.81   14.65
   6   0   0 1766.52   27.59
   6   0   1  491.45   16.80
   6   0   2  150.78    9.03
   6   0   3  984.44   24.70
   6   0   4   77.27    7.87
   6   0   5  603.21   24.76
   6   0   6 1172.50   35.76
   6   0   6 1110.69   28.42
   6   0   7 1172.96   37.07
   6   0   8   16.78    9.96
   6   0   9  734.22   29.63
   6   0  10  178.58   16.37
   6   0  11    2.42    3.59
   6   0  12  493.25   34.33
   6   0  13   73.79    9.50
   6   0  14  106.30   15.91
   6   0  15  563.64   22.85
   6   0  16    7.51    8.05
   6   0  17   30.70    9.94
   6  -1 -19    7.26    4.66
   6   1 -19    7.20   12.02
   6  -1 -18   36.14   13.94
   6   1 -18   20.58   28.96
  -6  -1  18   39.73    8.47
   6  -1 -17   16.04   16.13
   6   1 -17   14.80    9.83
  -6   1  17   17.11    8.76
  -6  -1  17   16.95   14.57
   6  -1 -16  105.08   10.73
   6   1 -16   92.20   10.86
  -6   1  16   97.23    9.55
  -6  -1  16  110.91    9.59
   6  -1 -15   56.64   24.38
   6   1 -15   61.91    9.97
  -6   1  15   61.19    7.63
  -6  -1  15   58.86   24.92
   6  -1 -14  164.98   18.86
   6   1 -14  145.91   15.16
  -6   1  14  164.92   20.22
  -6  -1  14  187.15   16.68
   6  -1 -13    2.90    4.78
   6   1 -13    2.73    5.44
  -6   1  13    1.91    3.71
  -6  -1  13    1.05    4.48
   6  -1 -12   38.99   22.82
  -6   1  12   58.71   17.56
  -6  -1  12   41.27    6.33
   6  -1 -11   69.57   12.35
  -6   1  11   81.44   11.39
  -6  -1  11   70.90   15.45
   6  -1 -10  353.65   24.33
  -6   1  10  350.04   22.80
  -6  -1  10  365.22   11.83
   6   1  -9  118.34    7.18
  -6   1   9  104.94    9.99
   6  -1  -9  126.35   13.47
  -6   1   9  113.62    9.15
  -6  -1   9  118.74    9.88
   6  -1  -8  377.45   19.41
   6   1  -8  318.81   16.93
  -6   1   8  277.58   14.75
   6  -1  -8  373.51   24.16
  -6   1   8  326.52   20.51
  -6  -1   8  404.07   22.83
   6  -1  -7  431.18    8.69
   6   1  -7  422.03    7.98
   6  -1  -7  474.63   14.59
  -6   1   7  439.40   10.58
  -6  -1   7  461.24   10.89
   6  -1  -6 1112.36   30.42
   6   1  -6 1117.27   30.51
   6  -1  -6 1173.42   35.82
  -6   1   6 1137.28   33.95
  -6  -1   6 1080.51   33.66
   6  -1  -5  377.58   15.31
   6   1  -5  376.13   15.74
  -6   1   5  358.78   15.16
  -6  -1   5  352.62   16.14
   6  -1  -4  520.67   21.21
   6   1  -4  477.89   19.09
  -6   1   4  465.94   18.15
  -6  -1   4  518.85   20.03
   6  -1  -3  354.82   15.11
   6   1  -3  378.38   16.41
  -6   1   3  378.73   14.99
  -6  -1   3  368.61   14.96
   6  -1  -2  315.05   13.40
   6   1  -2  378.00   15.57
  -6   1   2  381.29   15.11
  -6  -1   2  325.37   13.44
   6  -1  -1   65.35    6.21
   6   1  -1   73.50   10.07
  -6   1   1   74.94    6.90
  -6  -1   1   62.03    5.72
   6  -1   0   83.92    7.05
   6   1   0   83.47    6.08
  -6   1   0   85.27    5.30
   6  -1   1   77.62    7.94
   6   1   1   66.55    6.65
   6  -1   2  388.45   18.40
   6   1   2  327.16   15.03
   6  -1   3  253.67   14.11
   6   1   3  227.72   13.75
   6  -1   3  349.41   14.53
   6  -1   4  463.84   19.70
   6   1   4  539.26   24.99
   6  -1   4  456.37   17.52
   6  -1   5  365.03   16.69
   6   1   5  347.67   15.96
   6  -1   5  324.87   11.68
   6  -1   5  368.07   13.94
   6  -1   6 1105.56   41.25
   6   1   6 1103.88   33.42
   6  -1   6 1019.32   25.86
   6  -1   6 1087.14   27.68
   6  -1   7  416.85   17.07
   6   1   7  444.76   13.14
   6   1   7  421.96    5.45
   6  -1   8  327.40   20.16
   6   1   8  387.19   24.08
   6  -1   9  120.04   11.26
   6   1   9  138.30   11.78
   6  -1  10  349.13   24.47
   6   1  10  365.48   14.34
   6  -1  11   75.34   12.61
   6   1  11   61.36   15.20
   6  -1  12   50.33   22.96
   6   1  12   43.39   14.76
   6  -1  13    6.47    5.28
   6   1  13    2.57    4.92
   6  -1  14  159.57   15.63
   6   1  14  177.05   16.65
   6  -1  15   66.72    7.86
   6   1  15   50.58    6.05
   6  -1  16   96.69    9.03
   6   1  16  103.09   17.58
   6  -1  17   11.60   10.30
   6   1  17   11.52   11.18
   6  -2 -19   14.06   20.82
   6   2 -19   14.58   20.12
  -6  -2  19   19.31   17.70
   6  -2 -18   22.50   22.97
   6   2 -18   21.78   23.37
  -6  -2  18   31.17    7.47
   6  -2 -17   11.27   16.58
   6   2 -17   19.27    9.93
  -6   2  17   12.45   10.63
  -6  -2  17   17.33    8.08
   6  -2 -16   41.27   13.94
   6   2 -16   41.47    6.89
  -6   2  16   46.76    7.01
  -6  -2  16   37.20   14.12
   6  -2 -15   87.59   12.53
   6   2 -15   86.77   17.69
  -6   2  15   82.43   13.57
  -6  -2  15   99.91   13.35
   6  -2 -14   88.25   13.13
  -6   2  14   79.45    9.61
  -6  -2  14   84.12   16.86
   6  -2 -13   43.75   22.75
  -6  -2  13   36.98   13.46
   6  -2 -12  185.98   22.36
  -6   2  12  193.90   17.45
  -6  -2  12  179.72   16.32
   6  -2 -11  274.96   21.03
  -6   2  11  265.40   17.72
  -6  -2  11  273.71   12.95
   6  -2 -10  182.32   18.24
  -6   2  10  164.27   15.60
  -6  -2  10  170.06   15.52
   6   2  -9  474.02   20.68
   6  -2  -9  443.27   23.35
  -6   2   9  411.43   20.44
  -6  -2   9  460.87   22.68
   6  -2  -8   97.23   10.16
   6   2  -8   72.59    7.56
   6  -2  -8  100.13   13.35
  -6   2   8   75.90    8.78
  -6  -2   8   90.48   10.21
   6  -2  -7  119.05    9.72
   6   2  -7  118.77    9.72
   6  -2  -7  132.87   22.87
  -6   2   7  133.50   11.48
  -6  -2   7  116.63   10.31
   6  -2  -6  244.38   12.51
   6   2  -6  233.76   12.23
   6  -2  -6  245.58   18.99
  -6   2   6  245.42   13.30
  -6  -2   6  249.95   13.80
   6  -2  -5   25.12    5.22
   6   2  -5   20.98    3.17
   6  -2  -5   20.78    8.40
  -6   2   5   21.79    6.15
  -6  -2   5   18.01    3.38
   6  -2  -4  202.74   10.19
   6   2  -4  232.53   12.80
   6  -2  -4  213.44   12.30
  -6   2   4  223.16   13.28
  -6  -2   4  205.21   12.11
   6  -2  -3  671.73   27.33
   6   2  -3  753.01   83.43
   6  -2  -3  693.09   30.18
  -6   2   3  752.97   83.33
  -6  -2   3  689.82   25.84
   6  -2  -2 1096.53   25.38
   6   2  -2 1023.58   23.97
   6  -2  -2 1094.42   26.52
  -6   2   2 1034.66   22.98
  -6  -2   2 1101.50   25.01
   6  -2  -1  458.96   18.69
   6   2  -1  404.54   16.84
   6  -2  -1  462.44   22.99
  -6   2   1  414.97   16.12
  -6  -2   1  479.42   18.60
   6  -2   0 1153.45   26.94
   6   2   0 1180.15   27.95
   6  -2   0 1125.66   25.77
  -6   2   0 1151.66   24.59
   6  -2   1  418.61   19.09
   6   2   1  492.52   20.06
   6  -2   1  385.05   15.91
   6  -2   2 1027.04   25.55
   6   2   2 1110.88   27.15
   6  -2   2 1067.59   24.17
   6  -2   3  533.50   22.00
   6   2   3  449.95   22.41
   6  -2   3  761.75   83.97
   6  -2   4  240.01   14.43
   6   2   4  210.58   12.04
  -6  -2  -4  239.37   10.99
   6  -2   4  237.60   10.77
   6  -2   5   22.71    8.25
   6   2   5   18.89    4.29
  -6  -2  -5   21.01    2.91
   6  -2   5   21.59    2.28
   6  -2   6  256.19   15.19
   6   2   6  239.46   16.03
  -6  -2  -6  233.57   11.98
   6  -2   6  220.44   10.26
   6  -2   6  237.29   11.18
   6  -2   7  125.32   11.95
   6   2   7  135.26   12.66
  -6  -2  -7  116.20    9.14
   6  -2   8   71.69    9.11
   6   2   8   94.49   11.49
  -6  -2  -8   73.75    7.55
   6  -2   9  465.78   24.25
   6   2   9  464.86   24.94
  -6  -2  -9  443.64   19.49
   6  -2  10  169.06   17.48
   6   2  10  169.25   17.45
  -6  -2 -10  151.36   11.56
   6  -2  11  260.79   14.42
   6   2  11  276.64   15.43
   6  -2  12  188.59   19.77
   6   2  12  169.34   15.80
   6  -2  13   42.00    7.19
   6   2  13   40.29   18.40
   6  -2  14   80.82    9.52
   6   2  14   91.38    9.71
   6  -2  15   96.27   12.64
   6   2  15   91.21   11.90
   6  -2  16   48.26    6.64
   6   2  16   35.99   13.30
   6  -3 -19   25.13   14.06
   6   3 -19   26.60    8.24
  -6  -3  19   38.88    8.67
   6  -3 -18    2.09    4.23
   6   3 -18    2.32    4.19
  -6  -3  18    3.35    4.08
   6  -3 -17  107.35   10.60
   6   3 -17  118.71   10.00
  -6  -3  17   99.30   20.17
   6  -3 -16   34.47   14.24
   6   3 -16   38.95   27.75
  -6   3  16   42.54   17.46
  -6  -3  16   57.05    7.48
   6  -3 -15   35.72   15.35
  -6   3  15   42.92   16.00
  -6  -3  15   37.34   13.94
   6  -3 -14   -0.27    4.69
  -6   3  14    2.13    3.66
  -6  -3  14    2.67    2.19
   6  -3 -13  117.47   14.84
  -6   3  13   97.28   10.90
  -6  -3  13  111.10   10.69
   6  -3 -12  239.55   16.86
  -6   3  12  251.33   18.00
  -6  -3  12  228.06   22.55
   6  -3 -11  149.52   16.20
  -6   3  11  180.08    9.32
  -6  -3  11  151.43    8.39
   6   3 -10   49.84    6.57
  -6   3  10   49.27    6.20
   6  -3 -10   74.68   12.21
  -6   3  10   58.67    9.07
  -6  -3  10   62.52   10.06
   6   3  -9  177.29   13.99
   6  -3  -9  180.78   17.01
  -6   3   9  158.59   14.68
  -6  -3   9  176.60   17.05
   6  -3  -8  249.18   14.27
   6   3  -8  227.49   14.44
   6  -3  -8  265.87   19.18
  -6   3   8  218.68   14.71
  -6  -3   8  263.20   16.16
   6  -3  -7  418.11    9.28
   6   3  -7  424.14    9.18
   6  -3  -7  466.55   16.28
  -6   3   7  411.63   11.71
  -6  -3   7  410.51   17.72
   6  -3  -6   17.89    5.24
   6   3  -6   24.77    4.08
   6  -3  -6   15.50    8.84
  -6   3   6   23.26    3.84
  -6  -3   6   17.81    8.06
   6  -3  -5  797.84   25.37
   6   3  -5  849.86   26.43
   6  -3  -5  852.96   37.54
  -6   3   5  847.92   25.43
  -6  -3   5  802.52   25.15
   6  -3  -4 1002.55   23.27
   6   3  -4 1048.62   24.37
   6  -3  -4 1087.84   28.15
  -6   3   4 1051.29   23.75
  -6  -3   4 1012.67   25.35
   6  -3  -3  428.02   18.35
   6   3  -3  350.56   15.26
   6  -3  -3  322.04   17.12
  -6   3   3  372.43   14.74
  -6  -3   3  353.91   15.11
   6  -3  -2  529.73   20.73
   6   3  -2  557.23   25.42
   6  -3  -2  548.40   25.84
  -6   3   2  603.02   22.31
  -6  -3   2  556.83   21.55
   6  -3  -1  268.12   13.91
   6   3  -1  249.47   14.49
   6  -3  -1  252.45   12.76
  -6   3   1  264.97   12.03
   6  -3   0 1341.98   31.18
   6   3   0 1428.64   33.58
  -6  -3   0 1417.21   30.50
   6  -3   0 1347.34   31.62
  -6   3   0 1350.87   27.75
   6  -3   1  253.14   13.80
   6   3   1  283.10   18.66
  -6  -3  -1  251.15   11.78
   6  -3   1  249.16   12.30
   6  -3   2  619.81   25.03
   6   3   2  565.65   23.09
  -6  -3  -2  594.37   22.49
   6  -3   2  587.20   22.40
   6  -3   3  303.46   19.80
   6   3   3  289.30   15.33
  -6  -3  -3  420.37   16.92
   6  -3   3  399.05   16.91
   6  -3   4 1072.71   28.88
   6   3   4 1063.05   27.35
  -6  -3  -4 1032.51   22.47
   6  -3   4 1060.01   22.73
   6  -3   5  856.21   28.84
   6   3   5  831.26   29.35
  -6  -3  -5  825.28   22.72
   6  -3   5  855.50   24.17
   6  -3   6   26.42    5.70
   6   3   6   20.75    9.75
  -6  -3  -6   23.38    3.38
   6  -3   6   24.60    3.58
   6  -3   7  443.35   18.21
   6   3   7  472.13   15.36
  -6  -3  -7  403.04    7.27
   6  -3   7  387.76    2.65
   6  -3   8  228.08   18.95
   6   3   8  258.27   22.30
  -6  -3  -8  215.16   14.32
   6  -3   9  182.25   16.75
   6   3   9  180.87   16.54
  -6  -3  -9  183.30   14.73
   6  -3  10   55.52   23.46
   6   3  10   59.95   17.97
  -6  -3 -10   59.06    8.48
   6  -3  11  174.12   11.34
   6   3  11  153.71   11.77
  -6  -3 -11  190.37    5.41
   6  -3  12  228.22   15.38
   6   3  12  233.69   17.35
   6  -3  13   91.26    9.28
   6   3  13  120.80   11.24
   6  -3  14    2.19    3.63
   6   3  14    0.61    4.44
   6  -3  15   31.47   19.49
   6   3  15   33.18   22.92
   6  -3  16   56.80   11.89
   6   3  16   46.26    9.76
   6  -3  17  225.09   24.89
   6   3  17   91.34   16.24
   6  -4 -19   25.00   14.57
   6   4 -19   29.06   15.74
  -6  -4  19   35.32    9.72
   6  -4 -18   34.82   11.21
   6   4 -18   25.27   25.20
  -6  -4  18   30.69   18.45
   6  -4 -17   19.68   19.60
  -6  -4  17   36.81   21.15
   6  -4 -16  120.61   32.79
  -6  -4  16  128.99   13.81
   6  -4 -15  229.14   19.58
  -6   4  15  225.51   17.97
  -6  -4  15  227.21   20.44
   6  -4 -14   41.66    9.23
  -6   4  14   34.80   21.63
  -6  -4  14   39.34   17.81
   6  -4 -13   12.36   13.11
  -6   4  13   21.85    9.71
  -6  -4  13   12.82    7.88
   6  -4 -12   17.56    8.75
  -6   4  12   16.28    8.15
  -6  -4  12   15.05    9.45
   6  -4 -11    8.29    6.64
  -6   4  11    9.17    5.02
  -6  -4  11    7.40    7.25
   6   4 -10   18.65    2.87
  -6   4  10   19.29    2.83
   6  -4 -10   32.09   21.53
  -6   4  10   21.92    8.37
  -6  -4  10   34.79    6.18
   6   4  -9  259.21   16.86
  -6   4   9  245.33   15.95
   6  -4  -9  315.48   22.70
  -6   4   9  236.98   16.26
  -6  -4   9  290.94   20.20
   6  -4  -8  296.03   16.50
   6   4  -8  306.73   17.06
   6  -4  -8  291.08   19.62
  -6   4   8  287.84   17.53
  -6  -4   8  306.25   18.44
   6  -4  -7  130.31    9.04
   6   4  -7  110.25    6.93
   6  -4  -7  124.82   12.02
  -6   4   7   99.21   15.34
  -6  -4   7  114.86    9.90
   6  -4  -6  181.76   10.25
   6   4  -6  205.83   12.73
   6  -4  -6  183.00   17.88
  -6   4   6  197.02   11.52
  -6  -4   6  180.59   10.82
   6  -4  -5  158.71   14.95
   6   4  -5  174.70   10.33
   6  -4  -5  165.60   14.93
  -6   4   5  177.40   10.51
  -6  -4   5  164.47   13.61
   6  -4  -4 1684.45   46.47
   6   4  -4 1704.71   46.52
   6  -4  -4 1694.47   48.72
  -6   4   4 1692.34   45.63
  -6  -4   4 1697.53   48.41
   6  -4  -3  878.16   22.11
   6   4  -3  860.87   21.89
   6  -4  -3  876.73   23.72
  -6   4   3  895.87   21.48
  -6  -4   3  886.97   21.68
   6  -4  -2   17.98    4.40
   6   4  -2   18.68    8.56
  -6  -4   2   23.95    3.80
   6  -4  -2   19.43    4.21
  -6   4   2   14.60    2.34
  -6  -4   2   19.85    3.25
   6   4  -1  112.82    7.56
  -6  -4   1  124.67    8.11
   6  -4  -1  124.65    8.25
  -6   4   1  115.48    6.76
   6  -4   0  353.35   17.18
   6   4   0  344.67   15.70
  -6  -4   0  310.06   34.81
   6  -4   0  314.25   14.38
  -6   4   0  313.20   12.27
   6  -4   1  115.96   12.77
   6   4   1  119.52    9.26
  -6  -4  -1  111.70    6.59
   6  -4   1  107.52    7.60
  -6   4  -1  118.14    5.99
   6  -4   2   16.58    6.41
   6   4   2   19.85    3.44
  -6  -4  -2   17.20    3.44
   6  -4   2   20.15    9.82
   6  -4   3  666.02   27.31
   6   4   3  685.70   27.90
  -6  -4  -3  856.25   20.91
   6  -4   3  871.89   20.25
   6  -4   4 1626.33   47.28
   6   4   4 1696.54   51.28
  -6  -4  -4 1675.55   45.18
   6  -4   4 1691.57   45.08
   6  -4   5  166.18   14.85
   6   4   5  174.14   16.10
  -6  -4  -5  171.43    9.47
   6  -4   5  169.93    5.85
   6  -4   6  205.10   13.68
   6   4   6  182.40   15.36
  -6  -4  -6  220.61   14.21
   6  -4   6  207.60   11.17
   6  -4   7  104.88   12.69
   6   4   7  126.48   16.16
  -6  -4  -7  157.04   14.66
   6  -4   7  111.89    3.54
   6  -4   8  271.37   20.27
   6   4   8  328.35   20.47
   6  -4   9  242.52   18.03
   6   4   9  283.57   20.34
  -6  -4  -9  309.76   19.74
   6  -4  10   29.13    7.48
   6   4  10   38.90   11.60
  -6  -4 -10   20.88    5.86
   6  -4  11    8.91    5.66
   6   4  11    5.38    4.90
  -6  -4 -11    5.98    3.66
   6  -4  12   13.41    9.10
   6   4  12   15.05   10.06
   6  -4  13   21.51   15.64
   6   4  13   23.54   10.89
   6  -4  14   61.68   30.38
   6   4  14   48.94    6.64
   6  -4  15  262.87   22.00
   6   4  15  242.62   19.47
   6  -4  16  136.03   14.95
   6   4  16  133.65   15.06
   6  -4  17   37.25   19.02
   6   4  17   20.38   20.07
   6  -5 -18   15.18   13.01
  -6  -5  18   21.47   13.40
   6  -5 -17  127.61   14.87
  -6  -5  17  143.44   15.82
   6  -5 -16   25.22   24.53
  -6  -5  16   35.95   17.76
   6  -5 -15   67.38    9.21
  -6  -5  15   76.22    8.06
   6  -5 -14   21.06   14.74
  -6  -5  14   20.77   10.19
   6  -5 -13   62.79   22.90
  -6   5  13   65.77   10.16
  -6  -5  13   79.17    9.22
   6  -5 -12   24.38   16.70
  -6   5  12   21.40    8.29
  -6  -5  12   29.24   14.54
   6  -5 -11  161.15   15.31
  -6   5  11  109.07   11.74
  -6  -5  11  151.41   12.83
   6   5 -10  150.09    6.09
  -6   5  10  138.36    6.26
   6  -5 -10  148.74   10.91
  -6   5  10  155.20    8.47
  -6  -5  10  161.10    8.25
   6   5  -9    1.30    2.21
  -6   5   9    1.51    2.11
   6  -5  -9   -0.50    5.56
  -6   5   9    2.29    3.43
  -6  -5   9    1.78    3.40
   6  -5  -8   57.32    5.78
   6   5  -8   74.87    8.37
   6  -5  -8   59.99   10.28
  -6   5   8   57.68   13.88
  -6  -5   8   60.61   12.02
   6  -5  -7  570.48   26.44
  -6   5   7  561.19   22.45
  -6  -5   7  560.04   22.93
   6  -5  -6  122.78   15.23
   6   5  -6  123.23   10.57
   6  -5  -6  118.47   11.10
  -6   5   6  124.14    8.96
  -6  -5   6  127.35   12.05
   6  -5  -5  812.41   25.97
   6   5  -5  836.34   25.62
   6  -5  -5  813.54   27.37
  -6   5   5  828.96   24.61
  -6  -5   5  817.69   28.77
   6  -5  -4  436.80   12.26
   6   5  -4  470.10   12.40
  -6  -5   4  335.15   19.92
   6  -5  -4  422.95   13.37
  -6   5   4  447.69    9.96
  -6  -5   4  444.17   10.62
   6  -5  -2   88.61    8.69
   6   5  -2  130.84   11.58
  -6  -5   2   99.58   10.15
   6  -5  -2   94.03   11.34
  -6   5   2  119.81    9.82
  -6  -5   2   93.70    9.22
   6  -5  -1  256.55   13.29
   6   5  -1  234.71   12.73
  -6  -5   1  264.21   13.72
   6  -5  -1  255.24   13.67
  -6   5   1  229.46   10.86
   6  -5   0  421.15   19.42
   6   5   0  438.11   18.49
  -6  -5   0  460.00   18.34
   6  -5   0  454.01   19.01
  -6   5   0  424.63   16.47
   6  -5   1  227.15   13.73
   6   5   1  259.34   13.69
  -6  -5  -1  228.97   11.37
   6  -5   1  252.62   13.67
  -6   5  -1  268.80   11.67
   6  -5   2  148.95   14.24
   6   5   2   98.79    9.74
  -6  -5  -2  112.74    9.59
   6  -5   2  112.80   10.57
  -6   5  -2   89.15    8.07
   6   5   4  462.03   17.63
  -6  -5  -4  508.92   12.80
   6  -5   4  458.34   12.00
   6  -5   5 1189.53   53.95
   6   5   5  841.88   33.58
   6  -5   5  799.94   23.67
   6  -5   6  158.81   13.73
   6   5   6  127.26   11.11
  -6  -5  -6  218.35   22.80
   6  -5   6  117.99    9.47
   6  -5   7  696.13   30.68
   6   5   7  582.72   25.09
  -6  -5  -7  622.57   24.29
   6  -5   7  633.99   23.32
   6  -5   8   82.63   16.43
   6   5   8   74.94   21.66
  -6  -5  -8   73.86   13.79
   6  -5   8   53.96    4.59
   6  -5   9    2.39    6.73
   6   5   9    1.46    5.41
   6  -5   9    0.36    0.62
   6   5  10  169.68   11.45
  -6  -5 -10  135.72    9.57
   6  -5  11  183.99   18.30
   6   5  11  152.77   13.29
  -6  -5 -11   98.72   10.52
   6  -5  12   25.01   15.22
   6   5  12   27.10   19.09
  -6  -5 -12   20.52    7.33
   6  -5  13   67.02    9.83
   6   5  13   62.70    8.11
   6  -5  14   25.69    9.70
   6   5  14   23.36   13.75
   6  -5  15   75.71   27.47
   6   5  15   73.87    8.41
   6  -5  16   29.36   13.86
   6   5  16   27.36   18.42
   6  -5  17  117.71   17.83
   6   5  17  128.51   15.55
   6  -6 -18   13.52   23.79
  -6  -6  18   13.57   12.56
   6  -6 -17    2.14    5.39
  -6  -6  17    5.21    6.02
   6  -6 -16   25.77   12.36
  -6  -6  16   27.70   14.92
   6  -6 -15  102.97   24.73
  -6  -6  15   95.34   16.48
   6  -6 -14  368.44   27.86
  -6  -6  14  341.18   28.97
   6  -6 -13   71.24   12.18
  -6  -6  13   70.08    6.82
   6  -6 -12    4.68    5.49
  -6   6  12    7.51    6.04
  -6  -6  12    4.39    3.15
   6   6 -11   80.95    8.60
   6  -6 -11   57.55   18.89
  -6   6  11   73.57    8.80
  -6  -6  11   69.19    6.17
   6   6 -10  328.35   22.72
  -6   6  10  299.17   20.74
   6  -6 -10  283.53   22.57
  -6   6  10  310.88   21.89
  -6  -6  10  286.26   20.59
   6   6  -9  352.37   13.34
  -6   6   9  325.05   13.55
   6  -6  -9  368.12   20.99
  -6   6   9  341.66   14.88
  -6  -6   9  381.01   15.31
   6  -6  -8  182.41   16.16
   6   6  -8  202.46   18.24
   6  -6  -8  191.03   18.29
  -6   6   8  209.25   17.65
  -6  -6   8  186.93   16.10
   6  -6  -7   57.90    9.74
   6   6  -7   65.70    6.80
   6  -6  -7   63.01    9.42
  -6   6   7   59.64    9.14
  -6  -6   7   53.59    6.39
   6  -6  -6   10.42    5.07
   6   6  -6    8.20    4.06
   6  -6  -6    9.70    5.64
  -6   6   6   10.07    4.05
  -6  -6   6    9.04    6.43
   6  -6  -5   51.57    8.47
   6   6  -5   47.79    8.28
  -6  -6   5   49.84    7.04
   6  -6  -5   50.20   11.76
  -6   6   5   47.19    6.97
  -6  -6   5   48.86    4.52
   6  -6  -4  216.80   12.74
   6   6  -4  221.62   13.34
  -6  -6   4  226.04   17.32
   6  -6  -4  210.91   13.98
  -6   6   4  207.95   11.19
  -6  -6   4  217.11   13.85
   6  -6  -3  512.33   18.08
   6   6  -3  566.11   13.63
  -6  -6   3  525.67   13.96
   6  -6  -3  561.09   16.36
  -6   6   3  507.83   12.24
  -6  -6   3  478.19   19.35
   6  -6  -2  947.15   30.42
   6   6  -2 1035.57   32.02
  -6  -6   2  982.14   31.77
   6  -6  -2 1015.92   40.79
  -6   6   2 1051.81   28.97
  -6  -6   2 1004.80   31.04
   6  -6  -1  493.09   13.76
   6   6  -1  458.15   12.90
  -6  -6   1  475.44   17.54
   6  -6  -1  488.01   14.06
  -6   6   1  471.91    9.54
   6  -6   0   68.91    8.22
   6   6   0   71.59    7.78
  -6  -6   0   79.70    7.63
   6  -6   0   77.03    7.97
  -6   6   0   61.36    5.19
   6  -6   1  457.26   13.77
   6   6   1  491.44   16.16
  -6  -6  -1  482.05   11.09
   6  -6   1  485.93   12.75
  -6   6  -1  494.69    7.65
   6  -6   2  994.24   33.05
   6   6   2 1022.16   32.72
  -6  -6  -2 1022.90   30.69
   6  -6   2 1036.16   33.10
  -6   6  -2  965.42   25.48
   6  -6   3  448.67   14.06
   6   6   3  414.37   17.15
   6  -6   3  512.41   12.43
   6  -6   4  187.87   12.83
   6   6   4  233.38   15.14
   6  -6   4  202.70   12.39
   6  -6   5   43.92   14.13
   6   6   5   47.39    6.93
  -6  -6  -5   58.46   10.27
   6  -6   5   48.37    3.97
   6  -6   6    6.99    4.69
   6   6   6    9.00    5.29
  -6  -6  -6   10.55    4.54
   6  -6   6    7.07    4.30
   6  -6   7   56.55    7.08
   6   6   7   68.15    8.66
  -6  -6  -7   55.82    7.91
   6  -6   7   62.30    6.33
   6  -6   8  182.12   16.51
   6   6   8  202.51   18.23
  -6  -6  -8  182.94   15.32
   6  -6   9  325.33   15.93
   6   6   9  389.73   18.92
   6  -6   9  317.58    9.68
  -6  -6  -9  319.44   12.10
   6   6  10  290.04   22.04
  -6  -6 -10  298.37   22.25
   6  -6  11   70.30    7.64
   6   6  11   74.55   10.15
  -6  -6 -11   66.80    6.97
   6  -6  12   11.15    6.79
   6   6  12    2.94    5.65
  -6  -6 -12    5.85    3.88
   6  -6  13   71.33    7.68
   6   6  13   66.32    7.98
   6  -6  14  353.97   27.26
   6   6  14  375.63   28.85
   6  -6  15  106.96    9.25
   6   6  15  121.80   13.79
   6  -6  16   22.01   11.12
   6   6  16   20.82   18.46
   6  -6  17    2.50    3.58
   6   6  17    3.56    5.18
   6  -7 -18   24.16   28.75
  -6  -7  18   32.25   16.45
   6  -7 -17   44.01   28.96
  -6  -7  17   61.75    8.53
   6  -7 -16    3.80    5.26
  -6  -7  16    5.62    7.33
   6  -7 -15   24.48   17.01
  -6  -7  15   22.74   14.25
   6  -7 -14   96.14   17.41
  -6  -7  14   85.78   13.50
   6  -7 -13  133.44   18.07
  -6  -7  13  132.38   12.06
   6  -7 -12   25.01   16.51
  -6  -7  12   23.58   13.06
   6   7 -11  194.80   18.69
   6  -7 -11  181.14   20.25
  -6  -7  11  194.20   17.15
   6   7 -10   89.76   11.05
  -6   7  10   76.54    9.39
   6  -7 -10   68.24   28.88
  -6   7  10   81.26    9.16
  -6  -7  10   72.56    6.60
   6   7  -9   22.62    5.40
  -6   7   9   16.67   10.81
   6  -7  -9   16.85    7.64
  -6   7   9   20.45    9.04
  -6  -7   9   18.57    8.86
   6   7  -8   75.02    9.49
  -6   7   8   71.45   10.04
   6  -7  -8   87.34   14.99
  -6   7   8   79.32    9.97
  -6  -7   8   79.97   10.28
   6  -7  -7  401.43   18.87
   6   7  -7  436.37   18.38
   6  -7  -7  387.26   18.75
  -6   7   7  423.36   17.50
  -6  -7   7  383.82   14.65
   6  -7  -6  154.09   18.30
   6   7  -6  208.02   17.89
  -6  -7   6  182.63   18.91
   6  -7  -6  160.44   24.05
  -6   7   6  181.72   15.07
  -6  -7   6  166.46   14.45
   6  -7  -5  357.33   23.21
   6   7  -5  371.24   18.91
  -6  -7   5  367.18   18.86
   6  -7  -5  362.74   31.42
  -6   7   5  375.88   18.44
  -6  -7   5  365.80   11.93
   6  -7  -4  121.42   17.54
   6   7  -4  123.73   10.06
  -6  -7   4  112.34   13.87
   6  -7  -4  114.92   10.96
  -6   7   4  143.76   11.09
  -6  -7   4  122.80    9.64
   6  -7  -3   53.65   11.15
   6   7  -3   68.54   10.01
  -6  -7   3   58.51   14.02
   6  -7  -3   44.73   15.98
  -6   7   3   61.66    7.12
  -6  -7   3   55.35    7.55
   6  -7  -2  468.09   20.65
   6   7  -2  429.54   24.44
  -6  -7   2  457.89   19.31
   6  -7  -2  446.84   19.92
  -6   7   2  405.19   21.68
  -6  -7   2  467.40   20.33
   6  -7  -1  745.02   26.20
   6   7  -1  756.51   25.77
  -6  -7   1  700.18   23.98
   6  -7  -1  730.08   26.03
  -6   7   1  767.31   21.95
   6  -7   0   69.36    9.26
   6   7   0   81.05    8.83
  -6  -7   0   77.87    7.74
   6  -7   0   72.36    9.51
  -6   7   0   72.54    6.37
   6  -7   1  755.75   27.80
   6   7   1  735.41   25.70
  -6  -7  -1  765.05   25.83
   6  -7   1  790.38   26.04
  -6   7  -1  732.31   19.52
   6  -7   2  406.74   28.38
   6   7   2  483.20   21.33
  -6  -7  -2  471.06   20.74
   6  -7   2  418.32   24.63
  -6   7  -2  456.06   16.05
   6  -7   3   52.79   17.72
   6   7   3   45.06    5.96
   6  -7   3   63.27   12.70
  -6   7  -3   46.98    2.85
   6  -7   4  128.23   11.28
   6   7   4  110.27    8.81
  -6  -7  -4  162.30   16.47
   6  -7   4  125.82    9.97
   6  -7   5  347.28   27.63
   6   7   5  352.35   24.10
  -6  -7  -5  352.48   24.55
   6  -7   5  340.56   22.82
   6  -7   6  175.64   22.41
   6   7   6  182.67   17.05
  -6  -7  -6  188.42   16.80
   6  -7   6  179.96   15.35
   6  -7   7  427.34   20.43
   6   7   7  430.02   21.41
  -6  -7  -7  386.46   15.33
   6  -7   7  470.31   17.85
   6  -7   8   77.95   11.06
   6   7   8   89.53   12.27
  -6  -7  -8   73.13   10.00
   6  -7   8   70.53    9.24
   6  -7   9   24.04   12.19
   6   7   9   16.63   10.90
   6  -7   9   20.86    3.74
  -6  -7  -9   22.98    8.73
   6  -7  10   82.66   12.71
   6   7  10   75.06   19.57
  -6  -7 -10   75.63   10.53
   6  -7  11  192.59   24.63
   6   7  11  200.45   18.97
  -6  -7 -11  183.26   16.09
   6  -7  12   25.37   18.69
   6   7  12   21.98   16.00
  -6  -7 -12   21.17    6.11
   6  -7  13  134.31   12.82
   6   7  13  135.15   12.79
   6  -7  15   23.38    8.72
   6   7  15   19.30   16.84
   6  -7  16    3.02    2.37
   6   7  16    3.37    4.33
   6  -7  17   55.27   11.31
   6   7  17   55.15    8.36
   6  -8 -17   18.82   21.93
  -6  -8  17   28.34   15.73
   6  -8 -16   57.01   22.94
  -6  -8  16   70.44   10.72
   6  -8 -15   49.19    9.70
  -6  -8  15   51.19   19.19
   6  -8 -14   24.77   19.00
  -6  -8  14   29.85   19.74
   6  -8 -13   21.02   16.45
  -6  -8  13   25.28    6.48
   6  -8 -12   45.03   31.41
  -6  -8  12   45.48    7.90
   6   8 -11   13.98   11.17
  -6   8  11   16.86    5.09
   6  -8 -11   18.09   13.53
  -6  -8  11   18.16   10.00
   6   8 -10   79.16   11.74
  -6   8  10   91.75    7.69
  -6  -8  10   81.70   12.64
   6   8  -9  353.02   19.12
  -6   8   9  332.37   22.60
   6  -8  -9  320.16   20.67
  -6  -8   9  315.75   17.27
   6   8  -8  305.13   22.67
  -6   8   8  298.69   20.90
   6  -8  -8  274.65   17.51
  -6  -8   8  282.88   20.90
   6  -8  -7   82.70   18.91
   6   8  -7   87.05   13.91
  -6  -8   7   85.22   11.45
   6  -8  -7   55.10   19.78
  -6  -8   7   75.93    9.96
   6  -8  -6  125.30   16.38
   6   8  -6  112.09   14.12
  -6  -8   6  126.55    8.14
   6  -8  -6  121.94   16.49
  -6   8   6  114.83   13.52
  -6  -8   6  117.51   14.14
   6  -8  -5   43.70   11.10
   6   8  -5   60.69    7.08
  -6  -8   5   42.40    6.50
   6  -8  -5   42.39   22.55
  -6   8   5   46.14    4.70
  -6  -8   5   42.85    5.92
   6  -8  -4  262.77   18.32
   6   8  -4  250.31   18.30
  -6  -8   4  243.80   24.29
   6  -8  -4  240.23   18.18
  -6   8   4  227.84   14.42
  -6  -8   4  250.66   16.92
   6  -8  -3  406.10   21.13
   6   8  -3  407.99   21.21
  -6  -8   3  385.94   20.92
   6  -8  -3  374.64   24.71
  -6   8   3  360.95   22.10
  -6  -8   3  409.26   20.54
   6  -8  -2  143.08   13.95
   6   8  -2  133.43   11.23
  -6  -8   2  121.64   10.11
   6  -8  -2  132.05   12.78
  -6   8   2  110.55    5.79
  -6  -8   2  125.50   11.47
   6  -8  -1   40.14    7.18
   6   8  -1   43.96    5.48
  -6  -8   1   36.16    4.94
   6  -8  -1   38.66    8.90
  -6   8   1   41.55    2.48
   6  -8   0   28.29    9.57
   6   8   0   29.53    5.04
  -6  -8   0   26.85    4.45
   6  -8   0   45.10    9.40
  -6   8   0   30.48    1.72
   6  -8   1   46.67   19.26
   6   8   1   34.74    4.82
  -6  -8  -1   41.25    6.72
   6  -8   1   45.29   17.58
  -6   8  -1   34.61    1.51
   6  -8   2  138.54   16.11
   6   8   2  123.80   11.60
  -6  -8  -2  243.02   18.85
   6  -8   2  127.23   15.76
   6  -8   3  334.46   24.48
   6   8   3  343.26   23.55
  -6  -8  -3  542.66   34.49
   6  -8   3  378.96   22.42
  -6   8  -3  318.85   18.12
   6  -8   4  246.27   18.01
   6   8   4  251.88   18.54
  -6  -8  -4  243.31   18.14
   6  -8   4  226.94   15.83
  -6   8  -4  209.80   15.51
  -6   8  -4  241.10   13.96
   6  -8   5   46.98    7.48
   6   8   5   45.35   20.06
  -6  -8  -5   54.08    6.76
   6  -8   6  121.58   18.32
   6   8   6  113.14   14.94
  -6  -8  -6  115.60   13.64
   6  -8   6  110.87   13.35
   6  -8   7   63.99   11.60
   6   8   7   81.45   13.26
  -6  -8  -7   70.31   15.24
   6  -8   7   86.83   11.11
   6  -8   8  294.08   22.82
   6   8   8  292.92   22.33
  -6  -8  -8  300.67   21.62
   6  -8   8  288.20   19.66
   6  -8   9  316.51   25.58
   6   8   9  342.07   20.36
  -6  -8  -9  329.26   19.25
   6  -8  10   91.33   14.12
   6   8  10   87.12   12.25
  -6  -8 -10   82.93   10.83
   6  -8  11   17.75   10.60
   6   8  11   17.73   12.68
   6  -8  12   47.10    7.96
   6   8  12   45.69    8.36
  -6  -8 -12   36.48   12.31
   6  -8  13   28.31   13.94
   6   8  13   25.19   22.55
  -6  -8 -13   22.46    7.92
   6  -8  14   27.10   17.16
   6   8  14   28.16   10.69
   6  -8  15   43.93   19.07
   6   8  15   47.63   10.17
   6  -8  16   60.90    9.82
   6   8  16   69.20   20.98
   6   8  17   27.68   14.58
   6  -9 -16   39.72   19.55
  -6  -9  16   54.87    8.29
   6  -9 -15   25.22   16.39
  -6  -9  15   22.01   11.02
   6  -9 -14   17.52    8.22
  -6  -9  14   19.74   12.49
   6  -9 -13   35.81   23.66
  -6  -9  13   33.12   15.79
   6  -9 -12  221.84   19.69
  -6  -9  12  206.74   23.50
   6   9 -11   87.74    6.91
  -6   9  11   81.92    9.43
   6  -9 -11   82.65   17.20
  -6  -9  11   81.57    6.79
   6   9 -10  213.03   22.18
  -6   9  10  199.07   16.12
   6  -9 -10  202.46   19.40
  -6  -9  10  198.25   23.04
   6   9  -9    9.05    7.40
  -6   9   9   14.06   10.82
   6  -9  -9   32.21   16.86
  -6  -9   9   15.58   15.78
   6   9  -8  503.10   26.32
  -6   9   8  481.40   29.78
  -6  -9   8  488.10   24.78
   6  -9  -8  486.89   27.92
  -6  -9   8  440.15   24.17
   6   9  -7  382.80   27.60
  -6   9   7  376.91   27.20
  -6  -9   7  363.14   26.03
   6  -9  -7  381.09   30.66
  -6  -9   7  356.53   24.61
   6  -9  -6   19.26    9.54
   6   9  -6   19.95   11.40
  -6  -9   6   17.87    8.76
   6  -9  -6   13.90    7.42
  -6  -9   6   14.38    9.90
   6  -9  -5  261.19   16.19
   6   9  -5  267.70   12.85
  -6  -9   5  272.55   15.84
   6  -9  -5  306.66   17.05
  -6  -9   5  291.48   13.25
   6  -9  -4  626.10   29.95
   6   9  -4  556.29   24.09
  -6  -9   4  582.77   23.81
   6  -9  -4  646.20   27.42
  -6  -9   4  628.61   23.90
   6  -9  -3   61.18   10.14
   6   9  -3   40.74   17.56
  -6  -9   3   35.77   11.12
   6  -9  -3   38.12   18.90
  -6  -9   3   29.84    5.87
   6  -9  -2  111.30   14.76
   6   9  -2  139.31   13.60
  -6  -9   2  126.22   14.19
   6  -9  -2  116.70   13.59
  -6  -9   2  120.37   13.10
   6  -9  -1  213.72   25.08
   6   9  -1  184.42   17.13
  -6  -9   1  206.44   18.92
   6  -9  -1  222.25   19.77
  -6  -9   1  215.14   22.51
   6  -9   0  108.52   14.55
   6  -9   0   97.71   17.68
   6  -9   1  209.31   21.03
   6   9   1  207.44   20.07
  -6  -9  -1  261.08   20.43
   6  -9   1  194.17   21.64
   6  -9   2  144.44   14.61
   6   9   2  108.70   13.95
   6  -9   2  136.60   15.17
   6  -9   3   61.58   17.88
   6   9   3   40.96   22.42
  -6  -9  -3   44.07   14.83
   6  -9   3   41.03   12.62
   6  -9   4  545.05   41.56
   6   9   4  562.72   27.01
  -6  -9  -4  536.55   29.76
   6  -9   4  566.88   21.75
   6  -9   5  292.09   20.36
   6   9   5  287.06   17.69
  -6  -9  -5  268.86   13.96
   6  -9   5  294.94   13.17
   6  -9   6   23.75   16.18
   6   9   6   16.89    5.30
  -6  -9  -6   22.42    7.49
   6  -9   6   26.08    3.57
   6  -9   7  388.60   29.90
   6   9   7  351.45   25.81
  -6  -9  -7  339.52   33.24
   6  -9   7  446.08   34.26
   6  -9   8  509.88   30.00
   6   9   8  448.79   24.82
   6  -9   8  463.81   25.72
   6  -9   9   15.44   12.59
   6   9   9   21.35   14.37
   6  -9   9   12.35    8.96
  -6  -9  -9    8.04    8.68
   6  -9  10  197.21   19.82
   6   9  10  203.91   18.75
  -6  -9 -10  194.63   16.63
   6  -9  11   82.82   18.58
   6   9  11   68.08    8.77
  -6  -9 -11   80.76    6.93
   6  -9  12  217.91   24.88
   6   9  12  228.01   19.59
  -6  -9 -12  205.97   15.97
   6  -9  13   30.64   20.36
   6   9  13   35.46    8.55
  -6  -9 -13   25.58   11.36
   6  -9  14   29.45   12.70
   6   9  14   14.67   14.58
   6  -9  15   22.67   14.47
   6   9  15   15.81   15.60
   6  -9  16   48.37   21.37
   6   9  16   55.74    9.03
   6 -10 -16    9.44   10.03
  -6 -10  16    6.62    9.56
   6 -10 -15   11.69   17.94
  -6 -10  15   15.18   11.10
   6 -10 -14   12.94   12.40
  -6 -10  14   16.52    7.73
   6 -10 -13   97.34   20.38
  -6 -10  13   99.13    8.41
   6 -10 -12  272.15   24.95
  -6 -10  12  239.31   19.64
   6  10 -11   90.28    9.36
  -6  10  11   85.60    9.50
   6 -10 -11   86.16   29.66
  -6 -10  11   75.77   11.09
   6  10 -10   52.71    6.53
  -6  10  10   46.40   10.38
   6 -10 -10   56.77   11.01
  -6 -10  10   55.82    5.79
   6  10  -9   83.06    9.16
  -6  10   9   85.57    8.76
  -6 -10   9   79.73   13.04
   6 -10  -9   80.85   11.67
  -6 -10   9   70.08   10.15
   6  10  -8   43.38    5.74
  -6  10   8   37.35    8.74
  -6 -10   8   41.55   12.32
   6 -10  -8   41.15   20.79
  -6 -10   8   38.17    4.74
   6  10  -7   22.86   15.31
  -6  10   7   24.05   10.07
  -6 -10   7   21.98   12.94
   6 -10  -7   21.17   16.40
  -6 -10   7   18.45    3.20
   6  10  -6   11.85    3.11
  -6 -10   6   15.51    9.77
   6 -10  -6   12.16   12.19
  -6 -10   6    8.86    6.63
   6 -10  -5  130.33   11.85
   6  10  -5  122.98   13.13
  -6 -10   5  130.87   11.40
   6 -10  -5  117.47   14.34
  -6 -10   5  125.21   12.29
   6 -10  -4  212.26   19.43
   6  10  -4  168.70   16.12
  -6 -10   4  195.90   18.84
   6 -10  -4  211.50   20.13
  -6 -10   4  198.77   21.63
   6 -10  -3  107.84   14.02
   6  10  -3  114.07   13.04
  -6 -10   3   61.23    7.36
   6 -10  -3  118.21   13.82
  -6 -10   3  101.65    9.39
   6 -10  -2  169.59   17.21
   6  10  -2  140.42   18.19
  -6 -10   2  140.35   16.65
   6 -10  -2  164.29   14.51
  -6 -10   2  140.10    7.53
   6 -10  -1  335.82   16.64
   6  10  -1  285.01   14.97
  -6 -10   1  288.40   19.80
   6 -10  -1  295.35   14.32
  -6 -10   1  272.94   12.36
   6 -10   0  308.25   22.78
   6  10   0  309.36   21.39
  -6 -10   0  330.20   24.45
   6 -10   0  299.41   14.18
   6 -10   1  287.82   15.16
   6  10   1  297.88   25.78
   6 -10   1  291.27   15.00
   6 -10   2  163.94   11.49
   6  10   2  148.26   19.33
  -6 -10  -2  205.82   12.35
   6 -10   2  160.93    9.48
   6 -10   3  105.09   11.25
   6  10   3   92.05    9.56
  -6 -10  -3  107.73   10.46
   6 -10   3  109.30   15.85
   6 -10   4  192.20   18.67
   6  10   4  209.64   19.52
  -6 -10  -4  161.51   14.86
   6 -10   4  190.83   17.31
   6 -10   5  124.82   14.09
   6  10   5  121.03   15.91
  -6 -10  -5  112.73   11.69
   6 -10   5  120.15   12.52
   6 -10   6   24.53   18.56
   6  10   6   13.42    5.40
  -6 -10  -6   15.82    7.59
   6 -10   6   18.55   13.27
   6 -10   7   24.15   12.87
   6  10   7   19.45   11.72
  -6 -10  -7   23.05   11.37
   6 -10   7   22.32    9.99
   6 -10   8   42.59   18.53
   6  10   8   33.15   20.68
  -6 -10  -8   40.02    7.78
   6 -10   8   41.63    6.88
   6 -10   9   86.72    9.85
   6  10   9   69.34    8.81
   6 -10   9   82.03    6.93
  -6 -10  -9   80.49   12.74
   6 -10  10   47.57   14.02
   6  10  10   54.94   10.76
  -6 -10 -10   48.44   11.19
   6 -10  11   92.61   11.40
   6  10  11   75.43   10.82
  -6 -10 -11   92.43    9.52
   6 -10  12  244.64   23.13
   6  10  12  247.08   22.57
  -6 -10 -12  221.26   34.68
   6 -10  13  111.10   17.95
   6  10  13   98.97   10.07
  -6 -10 -13   96.02    6.79
   6 -10  14   22.23   14.17
   6  10  14   15.75   15.53
   6 -10  15   10.62    6.53
   6  10  15   10.77   19.31
   6 -10  16    7.62    6.31
   6  10  16    9.23   10.37
   6 -11 -15    3.20    3.00
  -6 -11  15    1.49    2.66
   6 -11 -14   24.28   23.51
  -6 -11  14   24.98   15.78
   6 -11 -13   17.89   19.21
  -6 -11  13   21.56   12.08
   6 -11 -12   57.24   15.35
  -6 -11  12   57.24    6.32
   6  11 -11   60.15    8.10
  -6  11  11   55.09    5.89
  -6 -11  11   54.40    8.03
   6  11 -10   75.12    7.09
  -6  11  10   84.10    8.41
  -6 -11  10   75.51    7.53
   6  11  -9   19.63    5.65
  -6  11   9   19.45   15.24
  -6 -11   9   34.68   16.65
   6 -11  -9   34.32   16.80
  -6 -11   9   31.51   15.78
   6  11  -8  187.27   13.88
  -6  11   8  178.34   17.85
  -6 -11   8  200.80   19.12
   6 -11  -8  197.34   20.16
  -6 -11   8  193.85   13.16
   6  11  -7   32.03    9.10
  -6  11   7   38.21   20.23
  -6 -11   7   26.32   12.81
   6 -11  -7   30.82   16.33
  -6 -11   7   30.04   12.44
   6  11  -6  189.61   17.51
  -6  11   6  192.60   17.88
  -6 -11   6  202.17   19.66
   6 -11  -6  211.86   12.81
  -6 -11   6  187.40   20.90
   6  11  -5    7.73    8.19
  -6 -11   5    6.90    3.86
   6 -11  -5    9.23    7.74
  -6 -11   5    6.92    3.25
   6 -11  -4   89.58   11.22
   6  11  -4   90.91   11.83
  -6 -11   4   76.73    9.39
   6 -11  -4   79.15   21.29
  -6 -11   4   86.42    9.74
   6 -11  -3   27.60   13.20
   6  11  -3   22.38   20.79
  -6 -11   3   26.67   14.36
   6 -11  -3   27.25   15.73
  -6 -11   3   29.31    4.00
   6 -11  -2  229.38   15.98
   6  11  -2  197.01   15.66
  -6 -11   2  229.81   14.70
   6 -11  -2  233.42   15.66
  -6 -11   2  232.65   13.98
   6 -11  -1   45.24   16.48
   6  11  -1   49.06   22.82
  -6 -11   1   45.48    8.46
   6 -11  -1   41.57   17.27
  -6 -11   1   36.72    4.21
   6 -11   0  109.14   16.64
   6  11   0  104.88   14.61
  -6 -11   0  114.27   12.66
   6 -11   0  105.74   13.22
   6 -11   1   50.23   21.55
   6  11   1   39.69   17.69
  -6 -11  -1  242.30   62.00
   6 -11   1   42.42   17.03
   6 -11   2  209.54   18.83
   6  11   2  229.74   15.21
  -6 -11  -2  244.54   15.73
   6 -11   2  195.85   19.27
   6 -11   3   23.45   15.33
   6  11   3   24.92   14.73
  -6 -11  -3   24.45   11.96
   6 -11   3   20.03   10.24
   6 -11   4   84.24   12.77
   6  11   4   78.55   11.91
  -6 -11  -4   80.65   11.49
   6 -11   4   89.78   11.41
   6 -11   5    9.83    6.13
   6  11   5    8.92    6.61
  -6 -11  -5    8.89    7.55
   6 -11   5   10.89    5.36
   6 -11   6  200.73   26.83
   6  11   6  192.35   23.73
  -6 -11  -6  179.51   21.79
   6 -11   6  203.77   18.18
   6 -11   7   32.25   13.35
   6  11   7   33.25   19.55
  -6 -11  -7   29.62   15.94
   6 -11   7   25.63   16.38
   6 -11   8  189.54   19.74
   6  11   8  201.92   18.05
  -6 -11  -8  160.09   12.02
   6 -11   8  174.07   11.33
   6 -11   9   31.34   15.21
   6  11   9   23.03   15.20
  -6 -11  -9   27.99    6.46
   6 -11  10   81.95   15.09
   6  11  10   67.92    9.45
  -6 -11 -10   77.12    7.90
   6 -11  11   63.33   25.87
   6  11  11   62.38    8.51
  -6 -11 -11   60.74   21.54
   6 -11  12   61.42   30.18
   6  11  12   60.93    8.66
  -6 -11 -12   52.32   16.69
   6 -11  13   24.10   12.91
   6  11  13   19.16   14.07
  -6 -11 -13   18.93   13.90
   6 -11  14   24.75   20.01
   6  11  14   28.12    7.69
   6 -11  15    5.10    3.63
   6  11  15    2.13    3.54
   6 -12 -14   11.93    8.65
  -6 -12  14    4.81    4.04
   6 -12 -13    8.76   13.02
  -6 -12  13    6.90    5.51
   6 -12 -12   12.12    9.24
  -6 -12  12    8.13    7.13
   6  12 -11    3.32    4.48
  -6  12  11    4.56    3.58
   6 -12 -11    7.34    8.66
  -6 -12  11    5.13    3.68
   6  12 -10   32.64    7.31
  -6  12  10   25.92   18.18
  -6 -12  10   32.03   20.96
   6 -12 -10   31.41    8.30
  -6 -12  10   37.38   11.79
   6  12  -9   92.97   13.12
  -6  12   9   95.81   16.84
  -6 -12   9   96.65   11.84
   6 -12  -9  103.31   15.01
  -6 -12   9  102.08    7.60
   6  12  -8    6.19    3.21
  -6  12   8    5.63    3.48
  -6 -12   8    7.11    4.61
   6 -12  -8    9.95    8.62
  -6 -12   8    7.98    6.97
   6  12  -7  119.19   12.67
  -6  12   7  105.29   13.77
  -6 -12   7  112.00   11.70
   6 -12  -7  118.60   13.29
  -6 -12   7  114.69   10.44
   6  12  -6  160.68   13.06
  -6  12   6  169.05   20.43
  -6 -12   6  128.64   15.42
   6 -12  -6  134.59   17.29
  -6 -12   6  137.87   15.87
   6  12  -5   12.06   10.68
  -6  12   5   10.43    6.98
  -6 -12   5   18.54    8.43
   6 -12  -5   19.99   12.49
  -6 -12   5   20.76    9.19
   6  12  -4    8.08    4.58
  -6 -12   4    5.80    7.65
   6 -12  -4    8.15    4.93
  -6 -12   4    8.66    4.11
   6 -12  -3  229.88   20.30
   6  12  -3  220.25   19.79
  -6 -12   3  201.84   21.98
   6 -12  -3  210.05   13.46
  -6 -12   3  209.79   12.74
   6 -12  -2   52.10   20.14
   6  12  -2   41.71   15.99
  -6 -12   2   47.59   23.65
   6 -12  -2   44.29   15.14
  -6 -12   2   44.59    9.77
   6 -12  -1    9.30    6.35
   6  12  -1    1.86    3.55
  -6 -12   1    2.72    3.62
   6 -12  -1    3.99    3.53
  -6 -12   1    2.06    2.61
   6 -12   0   59.25   22.44
   6  12   0   54.40    7.45
  -6 -12   0   73.50   19.41
   6 -12   0   60.22   10.00
  -6 -12   0   55.96    5.46
   6 -12   1   -0.10    4.41
   6  12   1    4.37    8.11
  -6 -12  -1   10.06   23.11
   6 -12   1    5.89    6.59
   6 -12   2   53.25   22.13
   6  12   2   53.72   27.86
  -6 -12  -2   58.73   23.99
   6 -12   2   38.72   21.04
   6 -12   3  243.91   20.84
   6  12   3  208.75   13.46
  -6 -12  -3  242.09   17.00
   6 -12   3  235.61   16.53
   6 -12   4    8.82    6.23
   6  12   4    5.20    7.28
  -6 -12  -4    3.87    3.73
   6 -12   4    9.56    6.61
   6 -12   5   13.56   14.91
   6  12   5   20.20   18.11
  -6 -12  -5   15.37    7.80
   6 -12   5   16.32   13.34
   6 -12   6  155.74   13.66
   6  12   6  122.72   17.99
  -6 -12  -6  155.71   15.64
   6 -12   6  191.90   17.38
   6 -12   7  114.09   11.81
   6  12   7  107.46   20.67
  -6 -12  -7  107.43   19.18
   6 -12   7  115.98    9.72
   6 -12   8    7.45    9.33
   6  12   8    4.47    4.91
  -6 -12  -8    7.39    3.34
   6 -12   8    4.08    3.62
   6 -12   9   93.75   12.06
   6  12   9   99.33   19.72
  -6 -12  -9   93.48    8.44
   6 -12  10   41.55   19.29
   6  12  10   36.17   22.43
  -6 -12 -10   27.81   16.04
   6 -12  11    2.45    6.23
   6  12  11    4.69    4.82
  -6 -12 -11    6.60    4.46
   6 -12  12   13.25   18.42
   6  12  12    9.02   18.13
  -6 -12 -12   11.17    9.25
   6 -12  13    7.91    5.76
   6  12  13    7.61    7.89
  -6 -12 -13    6.91    4.32
   6 -12  14    0.42    4.31
   6  12  14    5.78    5.37
   6 -13 -13   12.85   16.56
   6 -13 -12    9.58   10.21
  -6 -13  12    8.17    8.94
   6  13 -11   32.02    6.61
   6 -13 -11   48.52   14.90
  -6 -13  11   43.57    6.31
   6  13 -10   22.95    9.22
  -6  13  10   27.33    5.79
  -6 -13  10   35.31   19.39
   6 -13 -10   29.49   20.92
  -6 -13  10   24.74   10.17
   6  13  -9   76.56    7.97
  -6  13   9   68.41   17.44
  -6 -13   9   83.61   28.31
   6 -13  -9   82.36    9.91
  -6 -13   9   70.25    6.53
   6  13  -8   53.51   10.57
  -6  13   8   46.27    6.08
  -6 -13   8   54.80   22.45
   6 -13  -8   46.26   12.72
  -6 -13   8   46.53    5.75
   6  13  -7   89.05    9.33
  -6  13   7   72.31   16.12
  -6 -13   7   80.35   12.12
   6 -13  -7   95.71   10.71
  -6 -13   7   79.70    6.60
   6  13  -6  175.12   13.75
  -6  13   6  196.43   12.82
  -6 -13   6  174.46   13.34
   6 -13  -6  160.78   25.61
  -6 -13   6  169.75    8.99
   6  13  -5   48.56    7.43
  -6  13   5   36.59   23.63
  -6 -13   5   44.15   17.74
   6 -13  -5   38.74   20.50
  -6 -13   5   39.84    9.55
   6  13  -4   73.19   15.83
  -6  13   4   69.21   17.97
  -6 -13   4   66.36    7.22
   6 -13  -4   55.68   12.85
  -6 -13   4   70.65   10.15
   6  13  -3   84.16    9.03
  -6 -13   3   72.89   12.95
   6 -13  -3   92.43   13.03
  -6 -13   3   85.96    6.61
   6 -13  -2   65.21   14.78
   6  13  -2   81.97   12.29
  -6 -13   2   66.58    7.75
   6 -13  -2   70.66   10.86
  -6 -13   2   73.90    8.08
   6 -13  -1   87.07   13.34
   6  13  -1  102.49   13.93
  -6 -13   1  105.07   16.62
   6 -13  -1  104.72   16.76
  -6 -13   1  103.84   12.17
   6 -13   0   29.66   13.73
   6  13   0   25.79   14.57
  -6 -13   0   31.98   22.25
   6 -13   0   21.68   10.65
  -6 -13   0   21.92   12.25
   6 -13   1   90.25   14.31
   6  13   1  101.39   15.07
  -6 -13  -1  258.27   24.88
   6 -13   1   95.71   18.01
   6 -13   2  102.90   15.59
   6  13   2   82.91    9.46
  -6 -13  -2  108.14   17.43
   6 -13   2   94.49   12.24
   6 -13   3   78.67   24.41
   6  13   3   79.37    9.48
  -6 -13  -3   82.28   17.93
   6 -13   3   82.22    8.30
   6 -13   4   76.07   23.44
   6  13   4   68.45    8.73
  -6 -13  -4   72.17   20.91
   6 -13   4   75.92    7.05
   6 -13   5   48.62   21.06
   6  13   5   43.32   23.84
  -6 -13  -5   35.33   15.50
   6 -13   5   40.82   10.96
   6 -13   6  178.28   18.56
   6  13   6  197.93   13.38
  -6 -13  -6  168.87   10.07
   6 -13   6  195.19   11.89
   6 -13   7   92.93   14.14
   6  13   7   85.24   10.67
  -6 -13  -7   78.86   13.57
   6 -13   7   83.21   15.29
   6 -13   8   59.00   29.70
   6  13   8   47.11   26.46
  -6 -13  -8   45.34   10.97
   6 -13   8   40.58    4.75
   6 -13   9   79.57   10.31
   6  13   9   68.82   11.97
  -6 -13  -9   73.77   20.24
   6 -13  10   29.25   16.84
   6  13  10   23.78   15.39
  -6 -13 -10   22.89   14.64
   6 -13  11   42.01   18.56
   6  13  11   42.34    9.10
  -6 -13 -11   33.45   13.73
   6 -13  12   14.14    9.54
   6  13  12   11.74   11.46
  -6 -13 -12   11.32    6.99
   6 -13  13   19.06   10.82
   6  13  13   18.27   15.97
  -6 -13 -13   17.22    7.70
   6  14 -11    7.52   16.14
  -6 -14  11   11.30   15.46
   6 -14 -11   14.78   10.74
   6  14 -10   13.69   15.51
  -6  14  10   21.96    5.99
  -6 -14  10   22.44   10.08
   6 -14 -10   23.04   20.57
   6  14  -9   32.11   15.86
  -6  14   9   46.12    6.53
  -6 -14   9   49.91    9.81
   6 -14  -9   43.22    8.33
   6  14  -8    4.64    6.04
  -6  14   8    3.69    3.80
  -6 -14   8    6.11    6.04
   6 -14  -8    7.27    7.80
  -6 -14   8    7.46    3.93
   6  14  -7   11.73    6.88
  -6  14   7   10.21    9.53
  -6 -14   7   15.28    9.45
   6 -14  -7   15.97   10.50
   6  14  -6    3.22    3.15
  -6  14   6    3.37    2.61
  -6 -14   6    4.12    4.11
   6 -14  -6    6.81    7.67
  -6 -14   6    1.02    2.22
   6  14  -5    9.56    6.17
  -6  14   5   11.99    6.54
  -6 -14   5    8.23    4.07
   6 -14  -5   13.31    6.87
  -6 -14   5    9.74    3.99
   6  14  -4   10.81    7.01
  -6  14   4    5.21    6.81
  -6 -14   4    5.57    3.89
   6 -14  -4    1.96    3.06
  -6 -14   4    4.80    7.01
   6  14  -3   62.00   13.73
  -6  14   3   73.23   10.65
  -6 -14   3   59.99   14.85
   6 -14  -3   66.27   25.76
  -6 -14   3   66.20    6.46
   6  14  -2   92.50   10.06
  -6  14   2   78.88   16.34
  -6 -14   2  103.51   11.07
   6 -14  -2   97.74   17.54
  -6 -14   2   99.30    7.05
   6 -14  -1  155.55   23.10
   6  14  -1  157.25   12.03
  -6 -14   1  165.15   12.13
   6 -14  -1  149.37   16.54
  -6 -14   1  153.09    7.91
   6 -14   0    5.03    4.55
   6  14   0    4.20    4.71
  -6 -14   0   11.94    8.81
   6 -14   0    1.45    4.97
  -6 -14   0    5.51    3.46
   6 -14   1  152.39   10.67
   6 -14   2   97.24   11.04
   6  14   2  100.84   12.43
  -6 -14  -2  116.64   18.55
   6 -14   2   93.54    9.78
   6 -14   3   70.98   10.27
   6  14   3   63.75   26.80
  -6 -14  -3   73.97   10.67
   6 -14   3   64.40    6.89
   6 -14   4    5.44    4.53
   6  14   4    3.23    5.68
  -6 -14  -4    5.85    4.81
   6 -14   4    3.35    5.76
   6 -14   5    9.85    4.79
   6  14   5   14.57   10.41
  -6 -14  -5    8.65    5.51
   6 -14   5   15.04   10.23
   6 -14   6    2.80    4.52
   6  14   6    3.87    4.55
  -6 -14  -6    3.01    3.14
   6 -14   6    0.55    3.01
   6 -14   7   13.67    7.37
   6  14   7   14.35   13.34
  -6 -14  -7   10.31    5.70
   6 -14   7   10.96    5.36
   6 -14   8    2.31    6.57
   6  14   8    4.36    7.01
  -6 -14  -8    4.65    3.19
   6 -14   8    4.00    2.99
   6 -14   9   45.15   21.80
   6  14   9   49.58   24.07
  -6 -14  -9   43.73   21.77
   6 -14  10   27.35   26.07
   6  14  10   24.40    5.81
  -6 -14 -10   28.28   10.53
   6 -14  11   19.70   15.11
   6  14  11   13.22    7.81
  -6 -14 -11   18.94   12.37
   6  15 -10    1.93    2.95
  -6  15  10    1.20    2.96
  -6 -15  10   -0.27    3.66
   6 -15 -10    1.43    3.77
   6  15  -9    3.83    4.35
  -6  15   9    1.72    3.52
  -6 -15   9    4.14    4.32
   6 -15  -9    3.56    2.58
   6  15  -8   11.66   17.84
  -6  15   8   12.76   10.71
  -6 -15   8   19.27   10.64
   6 -15  -8   12.23   18.65
   6  15  -7   63.82   13.91
  -6  15   7   59.86   14.30
  -6 -15   7   76.56   27.80
   6 -15  -7   73.09   10.98
   6  15  -6    3.10    3.92
  -6  15   6    5.14    6.63
  -6 -15   6    5.00    3.42
   6 -15  -6    2.64    2.69
   6  15  -5  110.22   21.80
  -6  15   5  114.94   12.77
  -6 -15   5  105.85   11.89
   6 -15  -5  136.29   16.97
   6  15  -4   25.89   22.20
  -6  15   4   28.69   20.05
  -6 -15   4   26.82   12.10
   6 -15  -4   20.96   14.02
   6  15  -3    1.41    4.00
  -6  15   3    4.73    7.10
  -6 -15   3    3.61    4.16
   6 -15  -3    1.45    4.80
  -6 -15   3    6.38    3.45
   6  15  -2    4.27    6.07
  -6  15   2    1.06    3.14
  -6 -15   2    2.58    2.66
   6 -15  -2    2.64    4.99
  -6 -15   2    1.25    1.85
   6  15  -1  131.69   15.27
  -6  15   1  135.49   18.82
  -6 -15   1  136.04   15.01
   6 -15  -1  142.56   17.97
  -6 -15   1  124.28   13.68
   6  15   0   41.11   16.87
  -6 -15   0   51.63   21.05
   6 -15   0   40.61   10.66
  -6 -15   0   49.75   14.29
   6 -15   1  152.34   16.86
   6  15   1  140.34   15.79
  -6 -15  -1  784.65  124.26
   6 -15   1  140.00   14.78
  -6 -15  -1  130.92   12.63
   6 -15   2    1.25    1.94
   6  15   2    2.77    4.71
  -6 -15  -2    4.30    4.33
   6 -15   2    2.77    3.17
   6 -15   3    0.88    3.32
   6  15   3    4.89    4.59
  -6 -15  -3    7.13    5.07
   6 -15   3    2.76    4.91
   6 -15   4   24.47   20.22
   6  15   4   21.97   15.68
  -6 -15  -4   22.98   19.02
   6 -15   4   19.63   13.48
   6 -15   5  115.20   15.67
   6  15   5  136.71   15.70
  -6 -15  -5  113.52   14.01
   6 -15   5  126.28   15.86
   6 -15   6    4.12    6.31
   6  15   6    4.29    6.97
  -6 -15  -6    3.72    2.65
   6 -15   6    2.28    3.32
   6 -15   7   69.83   30.70
   6  15   7   80.86   15.61
  -6 -15  -7   66.71   26.03
   6 -15   7   65.67    9.39
   6 -15   8   14.14   11.44
   6  15   8   14.34   23.77
  -6 -15  -8   16.69    6.59
   6 -15   9    4.58    7.65
   6  15   9    1.85    5.19
  -6 -15  -9    3.95    5.64
   6 -15  10   -0.09    4.30
   6  15  10    0.91    4.05
  -6 -15 -10    1.13    1.23
   6  16  -8   42.55   17.29
  -6  16   8   56.73   14.58
  -6 -16   8   48.65   15.75
   6 -16  -8   38.94   14.59
   6  16  -7   43.52    8.63
  -6  16   7   41.87    7.60
  -6 -16   7   35.39   14.29
   6 -16  -7   40.57    9.23
   6  16  -6   10.46    7.99
  -6  16   6    6.45    7.58
  -6 -16   6    8.64    4.80
   6 -16  -6    9.03    8.77
   6  16  -5   68.81    8.67
  -6  16   5   61.20    8.50
  -6 -16   5   61.15   24.67
   6 -16  -5   65.97   12.26
   6  16  -4   67.96   20.33
  -6  16   4   93.02   10.64
  -6 -16   4   78.77    8.85
   6 -16  -4   80.25   10.06
   6  16  -3   63.99   17.67
  -6  16   3   75.99   15.12
  -6 -16   3   74.43   10.89
   6 -16  -3   68.09   11.38
   6  16  -2    3.01    2.79
  -6  16   2    0.89    3.07
  -6 -16   2    1.45    1.96
   6 -16  -2    4.22    8.31
   6  16  -1    7.03    7.39
  -6 -16   1    9.72    5.19
   6 -16  -1   12.89    6.63
   6  16   0    4.45    5.34
  -6  16   0    1.19    2.90
  -6 -16   0    0.96    3.58
   6 -16   0    3.61    3.55
   6  16   1    5.77    6.76
  -6  16  -1    9.26    6.29
  -6 -16  -1   23.38   17.95
   6 -16   1    8.48    6.96
   6  16   2    3.41    5.43
  -6  16  -2    4.80    6.59
  -6 -16  -2    9.22    8.70
   6 -16   2    3.33    4.60
   6  16   3   87.44   12.85
  -6 -16  -3   88.78   12.02
   6 -16   3   71.29   13.56
   6 -16   4   78.55   24.81
   6  16   4   73.96   11.81
  -6 -16  -4   80.91   19.28
   6 -16   4  127.27   11.80
   6 -16   5   47.74    9.45
   6  16   5   63.92   10.37
  -6 -16  -5   53.27   16.14
   6 -16   5   48.49   15.96
   6 -16   6   13.64    8.05
   6  16   6    8.58    9.65
  -6 -16  -6   10.68    6.93
   6 -16   6    6.60    3.81
   6 -16   7   46.27   19.80
   6  16   7   38.62   26.02
  -6 -16  -7   41.87   14.55
   6 -16   7   46.47    6.11
   6 -16   8   58.72   11.50
   6  16   8   48.39   10.26
  -6 -16  -8   56.83    8.68
   6  17  -4   18.71   15.93
  -6  17   4   13.68   18.12
  -6 -17   4   24.95   12.95
   6 -17  -4   18.06   24.32
   6  17  -3    3.99    3.95
  -6  17   3    2.45    4.80
  -6 -17   3    1.84    2.14
   6 -17  -3    4.37    7.27
   6  17  -2    4.68    4.91
  -6  17   2    4.12    8.01
  -6 -17   2    3.64    3.48
   6 -17  -2    5.70    5.93
   6  17  -1   14.34   16.85
  -6  17   1   17.09   12.35
  -6 -17   1   15.11   12.95
   6 -17  -1   12.50    8.53
   6  17   0   16.63   11.36
  -6  17   0   12.56   15.35
  -6 -17   0   11.93    8.29
   6 -17   0    9.20   13.63
   6  17   1   16.67    8.49
  -6  17  -1    9.79   11.15
  -6 -17  -1   27.89   22.59
   6 -17   1   15.47   10.84
   6  17   2    9.98    7.27
  -6  17  -2    8.93   12.32
  -6 -17  -2   24.64   15.06
   6 -17   2    4.53    5.83
   6  17   3    3.90    6.44
  -6  17  -3    0.56    4.74
  -6 -17  -3    4.31    3.62
   6 -17   3    0.89    4.61
   6  17   4   19.16   23.76
  -6  17  -4   18.76   24.36
  -6 -17  -4   25.37   12.51
   6 -17   4   13.46   15.91
   7   0 -19   -0.82    4.63
  -7   0  19    2.20    2.46
   7   0 -18    2.11    3.78
  -7   0  18    2.23    4.80
   7   0 -17   42.37    8.72
  -7   0  17   52.09    7.60
   7   0 -16   77.87    9.55
  -7   0  16   89.58    9.75
   7   0 -15  131.63   19.38
  -7   0  15  138.64   12.97
   7   0 -14   92.55   24.79
  -7   0  14   89.83   12.73
   7   0 -13   63.12   23.60
  -7   0  13   59.85   23.84
   7   0 -12    2.47    5.44
  -7   0  12    0.29    2.82
   7   0 -11  421.03   30.62
  -7   0  11  416.38   29.00
   7   0 -10   20.35   10.72
  -7   0  10   20.89   12.58
   7   0  -9  128.21   12.05
  -7   0   9  148.89   13.53
   7   0  -8  374.07   19.75
  -7   0   8  377.81   21.50
   7   0  -7  158.85   10.97
  -7   0   7  168.58   16.29
   7   0  -6   55.91    8.29
  -7   0   6   57.80    7.76
   7   0  -5   22.03    4.44
  -7   0   5   21.92    3.72
   7   0  -4   87.23    8.26
  -7   0   4   80.60    7.65
   7   0  -3  682.19   27.11
  -7   0   3  673.05   25.40
   7   0  -2  108.04    7.19
  -7   0   2  103.62    8.78
   7   0  -1   91.55    6.97
  -7   0   1   84.55    7.18
   7   0   0    1.40    2.61
   7   0   1   88.50   11.32
   7   0   2  108.95    8.00
   7   0   3  681.36   27.24
   7   0   4   82.63   10.29
   7   0   5   35.82   16.70
   7   0   6   59.36    9.02
   7   0   7  153.39   19.02
   7   0   7  156.47    9.59
   7   0   8  395.50   23.78
   7   0   9  137.61   14.52
   7   0  10   25.08   12.56
   7   0  11  400.51   28.95
   7   0  12    1.92    3.71
   7   0  13   59.67   13.08
   7   0  14  102.84   14.48
   7   0  15  144.42   13.65
   7   0  16   87.65    9.48
   7   0  17   47.22   11.74
   7  -1 -19   15.94   22.99
   7   1 -19   16.45   17.58
  -7  -1  19   20.94   21.18
   7  -1 -18   17.50   21.90
   7   1 -18   18.79   10.62
  -7   1  18   19.58   12.83
  -7  -1  18   20.33    9.29
   7  -1 -17  102.96   12.45
   7   1 -17  116.70   16.51
  -7   1  17  108.98   12.18
  -7  -1  17  114.14   12.79
   7  -1 -16   26.71   17.50
   7   1 -16   33.20   11.41
  -7   1  16   35.97   17.67
  -7  -1  16   37.51   23.51
   7  -1 -15   48.18   11.16
   7   1 -15   47.85   14.42
  -7   1  15   47.32   22.40
  -7  -1  15   45.70   20.41
   7  -1 -14  281.02   20.16
   7   1 -14  252.11   26.19
  -7   1  14  266.38   18.21
  -7  -1  14  275.66   18.74
   7  -1 -13  143.26   15.26
   7   1 -13  151.93   19.23
  -7   1  13  135.04   15.03
  -7  -1  13  143.92   14.56
   7  -1 -12   14.73    8.29
  -7   1  12   20.64   10.74
  -7  -1  12   10.90    8.91
   7  -1 -11  237.26   24.30
  -7   1  11  230.14   29.26
  -7  -1  11  265.73   22.82
   7  -1 -10  393.82   21.44
  -7   1  10  395.13   16.00
  -7  -1  10  425.73   18.01
   7  -1  -9   62.92    5.24
   7   1  -9   68.70    5.83
   7  -1  -9   66.57    9.95
  -7   1   9   75.13    8.93
  -7  -1   9   68.88    8.09
   7  -1  -8  153.80   10.56
   7   1  -8  187.16   12.56
   7  -1  -8  166.24   14.51
  -7   1   8  153.73   14.84
  -7  -1   8  166.48   13.36
   7  -1  -7  692.47   24.87
   7   1  -7  701.70   26.24
   7  -1  -7  727.24   31.01
  -7   1   7  689.26   26.29
  -7  -1   7  689.00   28.53
   7  -1  -6   52.43    6.90
   7   1  -6   61.73    6.18
   7  -1  -6   62.74   10.90
  -7   1   6   57.85    8.19
  -7  -1   6   54.71   10.07
   7  -1  -5 1184.84   33.48
   7   1  -5 1226.97   34.26
  -7   1   5 1182.11   33.86
  -7  -1   5 1203.68   34.81
   7  -1  -4  174.21   10.51
   7   1  -4  157.91   13.74
  -7   1   4  153.91   13.93
  -7  -1   4  175.06   10.39
   7  -1  -3   84.26    8.09
   7   1  -3   76.07    6.94
  -7   1   3   79.42    6.95
  -7  -1   3   75.40    8.13
   7  -1  -2  705.40   27.31
   7   1  -2  726.73   81.11
  -7   1   2  758.96   83.80
  -7  -1   2  688.15   26.05
   7  -1  -1  674.75   26.61
   7   1  -1  752.63   83.46
  -7   1   1  775.09   20.24
  -7  -1   1  692.51   26.16
   7  -1   0   89.28   11.28
   7   1   0   86.79    8.30
  -7   1   0   85.76    7.18
   7  -1   1  777.10   20.88
   7   1   1  697.71   30.28
   7  -1   2  739.39   82.93
   7   1   2  696.69   27.92
   7  -1   3   77.46    9.32
   7   1   3   77.26    8.02
   7  -1   3   71.36    6.59
   7  -1   4  158.68   17.39
   7   1   4  171.94   11.52
   7  -1   4  154.21   12.84
   7  -1   5 1203.91   44.14
   7   1   5 1228.62   39.36
   7  -1   5 1192.24   32.80
   7  -1   6   60.20    7.45
   7   1   6   60.54    8.33
   7  -1   6   58.52    6.93
   7  -1   7  681.48   35.14
   7   1   7  691.68   28.32
   7  -1   8  185.01   14.72
   7   1   8  168.70   13.50
   7   1   8  156.69    9.34
   7  -1   9   74.33    9.75
   7   1   9   73.06   10.28
   7  -1  10  420.68   19.36
   7   1  10  437.28   20.85
   7  -1  11  236.62   21.73
   7   1  11  246.06   22.81
   7  -1  12   19.07    9.82
   7   1  12   16.82    9.01
   7  -1  13  148.15   14.84
   7   1  13  141.14   11.72
   7  -1  14  241.64   24.61
   7   1  14  276.85   20.98
   7  -1  15   47.66    8.70
   7   1  15   49.02    6.91
   7  -1  16   39.19    7.73
   7   1  16   30.95   22.64
   7  -1  17  103.34   15.24
   7   1  17  119.90   13.37
   7  -2 -19   53.01   11.29
   7   2 -19   45.92   21.50
  -7  -2  19   53.61    7.72
   7  -2 -18   16.03   24.29
   7   2 -18   15.02   21.45
  -7   2  18   17.56   17.06
  -7  -2  18   22.63   24.98
   7  -2 -17   39.83   15.19
   7   2 -17   27.43   29.85
  -7   2  17   41.71    7.89
  -7  -2  17   46.11   11.05
   7  -2 -16    6.92    7.77
   7   2 -16    7.49    6.82
  -7   2  16    8.83    7.15
  -7  -2  16   13.48    5.78
   7  -2 -15   20.96   14.54
   7   2 -15   22.73   14.75
  -7   2  15   26.94    9.40
  -7  -2  15   19.37   14.06
   7  -2 -14   85.67   13.62
  -7   2  14  107.56   13.83
  -7  -2  14   77.84    7.79
   7  -2 -13   14.97    9.59
  -7   2  13    8.07    7.04
  -7  -2  13    8.28    4.68
   7  -2 -12  121.74   19.66
  -7   2  12  109.85   12.94
  -7  -2  12  113.72   15.98
   7  -2 -11    2.65    5.41
  -7   2  11   10.30    4.10
  -7  -2  11    4.61    3.27
   7   2 -10  105.75   11.49
   7  -2 -10  100.81   13.87
  -7   2  10  104.29   14.04
  -7  -2  10  102.42   14.51
   7  -2  -9  379.78   17.15
   7   2  -9  387.50   17.96
   7  -2  -9  408.56   23.03
  -7   2   9  382.87   21.22
  -7  -2   9  390.99   20.48
   7  -2  -8  260.37   16.31
   7   2  -8  240.76   16.01
   7  -2  -8  266.38   19.34
  -7   2   8  224.33   16.10
  -7  -2   8  256.53   21.93
   7  -2  -7  494.87   18.46
   7   2  -7  489.23   19.39
   7  -2  -7  533.88   26.47
  -7   2   7  517.68   20.90
  -7  -2   7  515.22   20.77
   7   2  -6  895.56   27.02
   7  -2  -6  919.26   30.43
  -7   2   6  897.05   30.15
   7  -2  -5  973.44   31.30
   7   2  -5 1025.37   30.37
   7  -2  -5  988.05   30.98
  -7   2   5 1030.20   30.74
  -7  -2   5  999.98   30.80
   7  -2  -4   92.78    8.63
   7   2  -4  100.21    9.42
   7  -2  -4   91.23    9.41
  -7   2   4  104.04   12.55
  -7  -2   4   97.99    9.21
   7  -2  -3  643.85   25.34
   7   2  -3  665.12   25.55
   7  -2  -3  596.00   24.36
  -7   2   3  670.26   25.45
  -7  -2   3  624.24   24.37
   7  -2  -2  408.46   17.53
   7   2  -2  369.62   16.05
   7  -2  -2  413.08   19.25
  -7   2   2  391.50   15.94
  -7  -2   2  431.01   17.41
   7  -2  -1   35.73    4.96
   7   2  -1   32.62    6.93
   7  -2  -1   33.49    5.26
  -7   2   1   34.65    4.57
  -7  -2   1   42.60    4.87
   7  -2   0  215.23   13.61
   7   2   0  215.41   11.76
   7  -2   0  211.81   11.83
  -7   2   0  212.88   13.53
   7  -2   1   37.39   16.30
   7   2   1   37.59   10.55
   7  -2   1   28.47    3.98
   7  -2   2  378.33   20.82
   7   2   2  421.47   18.62
   7  -2   2  371.54   15.13
   7  -2   3  688.90   27.52
   7   2   3  630.02   25.59
   7  -2   3  665.97   24.80
   7  -2   4   96.75   10.78
   7   2   4   90.82    9.72
   7  -2   4   96.18    8.19
   7  -2   5 1004.39   32.00
   7   2   5  999.58   32.40
   7  -2   5 1007.68   27.78
   7  -2   6  899.88   29.54
   7   2   6  891.54   36.47
   7  -2   6  850.26   23.44
   7  -2   7  511.15   22.54
   7   2   7  498.57   27.01
   7  -2   8  237.23   20.46
   7   2   8  267.44   19.55
   7  -2   9  369.63   27.82
   7   2   9  405.72   25.23
   7  -2  10  114.37   14.84
   7   2  10   96.90   14.05
   7  -2  11   10.01    5.21
   7   2  11    3.26    4.20
   7  -2  12  113.95   14.25
   7   2  12  124.17   14.44
   7  -2  13   10.33    6.69
   7   2  13   12.11    9.09
   7  -2  14   94.55   12.36
   7   2  14   86.72    8.32
   7  -2  15   20.28   20.59
   7   2  15   15.99   14.92
   7  -2  16    6.56    7.46
   7   2  16    9.89   12.52
   7  -2  17   25.80   21.66
   7   2  17   43.70    6.63
   7  -3 -18    2.64    3.64
   7   3 -18    5.12    9.32
  -7  -3  18    2.92    2.42
   7  -3 -17   30.36    8.19
   7   3 -17   16.06   21.12
  -7   3  17   27.84    8.07
  -7  -3  17   25.87   16.39
   7  -3 -16  134.59   17.33
   7   3 -16  142.58   24.78
  -7   3  16  138.54   14.80
  -7  -3  16  126.25   25.70
   7  -3 -15  101.26   12.61
  -7   3  15  112.09   10.69
  -7  -3  15  104.04   11.14
   7  -3 -14   18.52   15.28
  -7   3  14   21.61   11.17
  -7  -3  14   16.57   10.41
   7  -3 -13  153.28   16.31
  -7   3  13  202.47   17.87
  -7  -3  13  138.40   15.85
   7  -3 -12   43.11   19.99
  -7   3  12   39.98    6.89
  -7  -3  12   36.26   11.64
   7  -3 -11  128.08   16.19
  -7   3  11  131.42   11.86
  -7  -3  11  120.90   11.14
   7   3 -10   44.77    6.64
  -7   3  10   43.47    5.81
   7  -3 -10   49.66   10.56
  -7   3  10   49.25   13.99
  -7  -3  10   49.62    8.28
   7  -3  -9  118.94   13.59
   7   3  -9  136.47    5.86
   7  -3  -9  140.93   11.20
  -7   3   9  128.67    7.21
  -7  -3   9  120.08   15.49
   7  -3  -8  529.54   25.14
   7   3  -8  552.79   24.92
   7  -3  -8  572.43   29.44
  -7   3   8  561.01   27.14
  -7  -3   8  550.82   26.70
   7  -3  -7  152.01   11.37
   7   3  -7  152.99   10.67
   7  -3  -7  165.56   14.19
  -7   3   7  146.68   11.79
  -7  -3   7  153.52   11.43
   7  -3  -6   34.04    4.72
   7   3  -6   21.57    3.58
   7  -3  -6   40.43    6.90
  -7   3   6   27.48   11.04
  -7  -3   6   39.15    4.53
   7  -3  -5  166.07   14.25
   7   3  -5  202.22   12.32
   7  -3  -5  172.82   12.16
  -7   3   5  206.99   11.69
  -7  -3   5  169.22    9.06
   7   3  -4 1073.12   33.11
   7  -3  -4 1127.60   34.72
  -7   3   4 1071.43   30.44
  -7  -3   4 1118.43   33.98
   7  -3  -3  128.97   13.11
   7   3  -3  159.75   13.35
   7  -3  -3  137.85   12.47
  -7   3   3  168.79    6.20
  -7  -3   3  146.89   13.06
   7  -3  -2  236.22   14.43
   7   3  -2  256.48   14.25
   7  -3  -2  255.71   17.80
  -7   3   2  251.20   15.08
  -7  -3   2  245.08   13.49
   7  -3  -1  411.57   17.81
   7   3  -1  439.91   18.55
   7  -3  -1  408.36   23.21
  -7   3   1  439.31   17.61
  -7  -3   1  436.16   18.00
   7  -3   0  365.93   16.48
   7   3   0  369.48   16.49
   7  -3   0  349.75   15.33
  -7   3   0  361.11   14.94
   7  -3   1  478.43   20.84
   7   3   1  429.84   20.83
   7  -3   1  453.27   18.58
  -7   3  -1  426.55   17.81
   7  -3   2  271.52   16.49
   7   3   2  243.43   14.85
   7  -3   2  248.65   14.38
   7  -3   3  156.90   13.76
   7   3   3  144.39   15.17
  -7  -3  -3  157.28   14.23
   7  -3   3  161.12   13.40
   7  -3   4 1112.16   35.14
   7   3   4 1163.05   37.90
  -7  -3  -4 1078.30   29.60
   7  -3   4 1074.22   30.16
   7  -3   5  212.05   13.66
   7   3   5  179.69   12.39
  -7  -3  -5  208.15   10.99
   7  -3   5  193.82   11.82
   7  -3   6   24.51   11.66
   7   3   6   35.04    5.79
  -7  -3  -6   22.30    4.33
   7  -3   6   21.66    2.73
   7  -3   7  157.15   12.78
   7   3   7  170.62   13.66
   7  -3   7  131.15    7.80
  -7  -3  -7  148.86   10.30
   7  -3   8  566.42   28.97
   7   3   8  531.51   33.35
  -7  -3  -8  554.62   24.77
   7  -3   9  146.22    9.96
   7   3   9  127.11   10.26
  -7  -3  -9  121.72   13.57
   7  -3  10   50.90    9.06
   7   3  10   45.54    8.31
  -7  -3 -10   44.87    5.88
   7  -3  11  133.32   12.47
   7   3  11  128.08   12.61
   7  -3  12   30.73   16.21
   7   3  12   36.22    8.44
   7  -3  13  172.62   16.61
   7   3  13  156.49   14.89
   7  -3  14   20.13   16.62
   7   3  14   19.99   11.69
   7  -3  15  101.88    9.37
   7   3  15  115.31   10.08
   7  -3  16  141.37   15.32
   7   3  16  128.71   14.43
   7  -3  17   37.86   20.69
   7   3  17   20.02   18.30
   7  -4 -18    2.85    5.44
   7   4 -18    3.32    7.63
  -7  -4  18    5.83    6.04
   7  -4 -17    0.56    4.29
  -7  -4  17    3.20    3.67
   7  -4 -16  164.96   17.88
  -7   4  16  163.85   21.93
  -7  -4  16  167.92   23.13
   7  -4 -15   42.21    9.00
  -7   4  15   53.58   22.05
  -7  -4  15   51.21   23.66
   7  -4 -14    3.81    5.44
  -7   4  14    4.07    5.50
  -7  -4  14    3.44    3.78
   7  -4 -13   56.95   17.39
  -7   4  13   54.72   19.96
  -7  -4  13   61.15   10.47
   7  -4 -12  130.70   16.79
  -7   4  12  150.67   14.53
  -7  -4  12  139.52   10.66
   7  -4 -11    8.57    7.22
  -7   4  11   18.95   12.34
   7   4 -10   10.31    4.83
  -7   4  10    9.39    3.81
   7  -4 -10    8.64    6.30
  -7   4  10   15.45    6.47
  -7  -4  10   11.10    6.40
   7  -4  -9   24.39    4.56
   7   4  -9   21.96    5.54
   7  -4  -9   28.32   20.58
  -7   4   9   22.13    5.77
  -7  -4   9   25.69    8.14
   7  -4  -8  212.78   17.63
   7   4  -8  214.30   17.37
   7  -4  -8  219.31   20.17
  -7   4   8  208.84   20.62
  -7  -4   8  201.06   22.46
   7  -4  -7    0.43    1.78
   7   4  -7    1.37    4.20
   7  -4  -7    3.10    4.85
  -7   4   7    2.56    8.48
  -7  -4   7    1.45    6.10
   7  -4  -6   35.94   10.15
   7   4  -6   38.67    6.08
   7  -4  -6   44.10   19.86
  -7   4   6   40.72    7.46
  -7  -4   6   32.64    4.36
   7  -4  -5   89.85   11.85
   7   4  -5   84.73   12.32
   7  -4  -5   79.62   11.59
  -7   4   5   88.59   15.58
  -7  -4   5  127.06   10.58
   7  -4  -4  868.85   28.54
   7   4  -4  981.85   29.44
   7  -4  -4  847.73   33.78
  -7   4   4  997.03   28.74
  -7  -4   4  890.30   28.10
   7  -4  -3  252.35   15.72
   7   4  -3  266.63   15.24
   7  -4  -3  261.54   15.45
  -7   4   3  267.50   14.49
  -7  -4   3  254.46   14.64
   7  -4  -2   41.72   26.28
   7   4  -2   13.93    8.13
   7  -4  -2    9.16    5.50
  -7   4   2   11.27    5.55
  -7  -4   2    8.28    5.35
   7  -4  -1  163.16   15.03
   7   4  -1  142.12   13.19
   7  -4  -1  156.54   17.06
  -7   4   1  147.32   11.94
  -7  -4   1  177.66   14.87
   7  -4   0 1180.06   38.93
   7   4   0 1161.23   34.78
  -7  -4   0 1242.88   35.06
   7  -4   0 1154.92   33.85
  -7   4   0 1192.54   32.63
   7  -4   1  137.65   14.64
   7   4   1  168.17    8.31
  -7  -4  -1  147.10   12.44
   7  -4   1  152.28   13.80
  -7   4  -1  166.62   13.01
   7  -4   2   12.23    6.14
   7   4   2   10.62    6.82
  -7  -4  -2    9.90    4.77
   7  -4   2   15.04    7.25
   7  -4   3  250.09   15.00
   7   4   3  243.65   14.75
  -7  -4  -3  272.69   14.37
   7  -4   3  268.78   16.16
   7  -4   4  941.81   30.93
   7   4   4  903.30   29.66
  -7  -4  -4  947.38   27.33
   7  -4   4  948.12   28.18
   7  -4   5   76.61   16.54
   7   4   5   83.74   10.48
   7  -4   5   74.43    7.94
   7  -4   6   39.51    5.23
   7   4   6   41.84    6.96
   7  -4   6   37.85    3.52
   7  -4   7   -0.81    4.42
   7   4   7    2.45    4.52
  -7  -4  -7    0.67    2.44
   7  -4   7    1.06    0.75
   7  -4   8  202.47   24.39
   7   4   8  210.89   19.00
  -7  -4  -8  211.41   16.89
   7  -4   8  229.31   13.19
   7  -4   9   21.27   10.42
   7   4   9   31.75   19.33
  -7  -4  -9   19.95    4.11
   7  -4  10   13.99    6.31
   7   4  10    9.49    5.19
  -7  -4 -10    9.76    3.94
   7  -4  11   21.93   11.20
   7   4  11    6.48    3.73
  -7  -4 -11   13.19    3.70
   7  -4  12  139.14   10.28
   7   4  12  147.43   17.37
   7  -4  13   60.53    9.29
   7   4  13   65.98   10.18
   7  -4  14    2.86    4.27
   7   4  14    3.67    4.50
   7  -4  15   94.54   35.27
   7   4  15   40.42   16.69
   7  -4  16  252.00   26.13
   7   4  16  177.38   19.27
   7  -4  17    1.58    3.69
   7   4  17    2.30    2.52
   7  -5 -18   25.98    6.60
  -7  -5  18   34.69   18.27
   7  -5 -17    6.65    6.05
  -7  -5  17   11.89    7.50
   7  -5 -16   81.31   11.27
  -7  -5  16   81.64    8.56
   7  -5 -15   66.96   31.98
  -7   5  15   60.51    7.47
  -7  -5  15   61.66    7.74
   7  -5 -14  213.80   19.64
  -7   5  14  254.21   19.52
  -7  -5  14  206.10   16.52
   7  -5 -13   13.71   13.78
  -7   5  13   13.27    8.25
  -7  -5  13   17.36   10.73
   7  -5 -12   14.59    9.00
  -7  -5  12   15.47    9.06
   7  -5 -11   31.97   20.63
  -7   5  11   39.76   13.88
  -7  -5  11   31.82   15.68
   7   5 -10  109.23    9.11
  -7   5  10  102.92    8.70
   7  -5 -10   93.57    9.82
  -7   5  10  116.26   13.27
  -7  -5  10  108.14   10.19
   7  -5  -9  421.61   17.15
   7   5  -9  464.32   18.86
   7  -5  -9  401.53   20.93
  -7   5   9  434.40   18.34
  -7  -5   9  425.96   18.83
   7  -5  -8   19.89   15.58
  -7   5   8   27.56    5.73
  -7  -5   8   29.33    8.03
   7  -5  -7   67.38    6.93
   7   5  -7   68.56    9.27
   7  -5  -7   59.84   17.95
  -7   5   7   63.47   19.18
  -7  -5   7   65.90    7.47
   7  -5  -6   97.80   10.64
   7   5  -6   91.48   10.38
   7  -5  -6   97.01   13.23
  -7   5   6   99.65   10.67
  -7  -5   6   98.09   10.96
   7  -5  -5   68.56   11.52
   7   5  -5   66.56    8.53
   7  -5  -5   74.06   26.63
  -7   5   5   60.43    7.61
  -7  -5   5   66.87    8.28
   7  -5  -4  398.46   22.88
   7   5  -4  420.74   24.60
   7  -5  -4  404.68   24.34
  -7   5   4  432.01   24.62
  -7  -5   4  408.17   23.03
   7  -5  -3  719.05   25.30
   7   5  -3  711.34   23.22
   7  -5  -3  718.62   25.99
  -7   5   3  703.55   20.94
  -7  -5   3  698.09   22.28
   7  -5  -2  715.26   24.67
   7   5  -2  683.02   19.81
  -7  -5   2  741.62   25.11
   7  -5  -2  693.19   24.42
  -7   5   2  658.07   11.59
  -7  -5   2  709.20   22.80
   7  -5  -1  209.06   12.98
   7   5  -1  200.22   13.91
  -7  -5   1  208.61   14.70
   7  -5  -1  188.81   12.72
  -7   5   1  171.57    9.43
  -7  -5   1  204.59   14.75
   7  -5   0  157.90   15.47
   7   5   0  142.36   14.41
  -7  -5   0  137.18   13.26
   7  -5   0  133.91   14.42
  -7   5   0  145.12   11.89
   7   5   1  236.20   14.80
  -7  -5  -1  192.35   11.19
   7  -5   1  170.02    9.07
  -7   5  -1  208.20   10.74
   7   5   2  744.97   25.43
  -7  -5  -2  675.53   13.19
   7  -5   2  655.14   15.86
  -7   5  -2  724.70   20.75
   7  -5   3  795.90   38.49
   7   5   3  748.60   26.39
  -7  -5  -3  671.35   12.77
   7  -5   3  690.58   23.63
   7  -5   4  452.70   21.21
   7   5   4  419.00   35.18
  -7  -5  -4  427.48   24.45
   7  -5   4  425.71   22.98
   7  -5   5   62.34   11.83
   7   5   5   63.97   11.74
  -7  -5  -5   62.59   10.02
   7  -5   5   57.63    6.96
   7  -5   6  101.12   12.61
   7   5   6   99.74   13.12
  -7  -5  -6   89.54   10.62
   7  -5   6   87.67    9.06
   7  -5   7   66.50    8.48
   7   5   7   74.40   11.68
  -7  -5  -7   75.36   15.84
   7  -5   7   63.32    5.87
   7  -5   8   25.73   11.43
   7   5   8   41.07   10.68
  -7  -5  -8   31.31    5.05
   7  -5   8   19.39    3.65
   7  -5   9  462.41   29.07
   7   5   9  429.96   28.97
  -7  -5  -9  479.83   17.92
   7  -5  10  125.54   18.53
   7   5  10  112.01   11.57
  -7  -5 -10  123.59   11.22
   7  -5  11   49.18   10.36
   7   5  11   37.11   23.39
  -7  -5 -11   43.97    4.44
   7  -5  12   40.21   28.91
   7   5  12   15.07   12.00
   7  -5  13   24.80   12.74
   7   5  13   12.97    7.33
   7  -5  14  245.44   20.63
   7   5  14  209.14   18.76
   7  -5  15   67.09   22.67
   7   5  15   63.04    8.01
   7  -5  16   89.07   32.19
   7   5  16   91.09   10.68
   7  -5  17    7.63    8.60
   7   5  17    9.69   10.36
   7  -6 -18  159.92   21.15
  -7  -6  18  184.97   12.79
   7  -6 -17    2.92    6.37
   7  -6 -16    9.68   11.47
  -7  -6  16   12.93   10.28
   7  -6 -15   77.04   13.62
  -7  -6  15   78.25    8.45
   7  -6 -14    5.27    9.12
  -7  -6  14    4.19    4.39
   7  -6 -13   80.48   10.95
  -7   6  13   70.53   14.82
  -7  -6  13   77.58    7.75
   7  -6 -12    9.10    7.63
  -7   6  12   16.15    7.14
  -7  -6  12   12.49    9.28
   7  -6 -11   12.49    9.34
  -7   6  11   10.46    6.13
  -7  -6  11   12.15    7.47
   7   6 -10  221.87   13.02
   7  -6 -10  229.20   16.43
  -7   6  10  240.02   13.97
  -7  -6  10  230.30   14.35
   7   6  -9   40.87    5.72
   7  -6  -9   50.55   23.29
  -7   6   9   46.14   12.88
  -7  -6   9   53.36   10.06
   7  -6  -8   10.49    5.89
   7   6  -8   11.51    6.76
   7  -6  -8   17.17    9.40
  -7   6   8    9.77    6.25
  -7  -6   8   15.58    9.39
   7  -6  -7   47.48    7.81
   7   6  -7   59.15   10.03
   7  -6  -7   52.20   30.77
  -7   6   7   39.19    8.79
  -7  -6   7   52.23    9.71
   7  -6  -6  872.94   41.38
   7   6  -6  912.36   44.13
   7  -6  -6  847.97   54.59
  -7   6   6  868.31   40.52
  -7  -6   6  902.79   41.29
   7  -6  -5  315.29   21.07
   7   6  -5  315.32   20.78
   7  -6  -5  278.39   22.68
  -7   6   5  280.93   17.85
  -7  -6   5  265.12   22.46
   7  -6  -4   30.03   11.20
   7   6  -4   35.75    4.53
  -7  -6   4   36.55   15.59
   7  -6  -4   29.63   12.44
  -7   6   4   30.63    9.41
  -7  -6   4   27.83   13.85
   7  -6  -3  124.34   10.76
   7   6  -3  138.07   12.77
  -7  -6   3  140.60   10.81
   7  -6  -3  119.38   11.26
  -7   6   3  149.15   10.13
  -7  -6   3  121.99    9.51
   7  -6  -2  278.92   19.18
   7   6  -2  326.88   20.97
  -7  -6   2  286.29   17.18
   7  -6  -2  278.01   17.87
  -7   6   2  297.33   17.46
  -7  -6   2  303.70   17.91
   7  -6  -1  211.13   17.48
   7   6  -1  235.90   15.03
  -7  -6   1  228.68   14.19
   7  -6  -1  223.58   16.31
  -7   6   1  218.21   13.84
  -7  -6   1  228.38   20.57
   7  -6   0  173.42   13.71
   7   6   0  173.86   13.20
  -7  -6   0  180.28   15.45
   7  -6   0  173.43   17.08
  -7   6   0  181.35   11.51
   7  -6   1  220.94   15.95
   7   6   1  244.49   16.22
  -7  -6  -1  223.62   15.61
   7  -6   1  210.32   16.91
  -7   6  -1  224.58   14.21
   7  -6   2  293.90   18.16
   7   6   2  305.02   19.14
  -7  -6  -2  301.85   17.50
   7  -6   2  306.22   21.49
  -7   6  -2  288.79   15.57
   7  -6   3  136.26   11.64
   7   6   3  140.18   12.36
  -7  -6  -3  142.99   10.71
   7  -6   3  144.29   10.76
  -7   6  -3  132.68    8.61
   7  -6   4   36.44   16.57
   7   6   4   39.30   12.46
  -7  -6  -4   34.18   11.76
   7  -6   4   31.29    6.79
   7  -6   5  282.06   27.85
   7   6   5  313.18   22.18
  -7  -6  -5  307.95   19.73
   7  -6   5  280.64   17.69
   7  -6   6 1019.09   49.38
   7   6   6  877.62   48.89
  -7  -6  -6  963.96   44.67
   7  -6   6  908.37   39.90
   7  -6   7   49.27   25.23
   7   6   7   62.53   11.53
  -7  -6  -7   64.84   12.30
   7  -6   7   41.54    7.48
   7  -6   8   13.42    6.87
   7   6   8   21.86   11.18
  -7  -6  -8   26.85   13.44
   7  -6   8    5.96    4.13
   7  -6   9   38.42   16.29
   7   6   9   55.51    7.22
  -7  -6  -9  275.75   66.24
   7  -6  10  211.63   15.94
   7   6  10  245.64   18.39
   7  -6  11   10.18    5.12
   7   6  11   16.40   12.91
  -7  -6 -11   21.09   13.27
   7  -6  12   17.30   11.29
   7   6  12   13.78    8.77
   7  -6  13   72.82   28.74
   7   6  13   70.29    9.49
   7  -6  14    4.03    4.53
   7   6  14    8.79    6.40
   7  -6  15   67.15   10.95
   7   6  15   82.01    9.07
   7  -6  16    8.36    5.93
   7   6  16    7.33    8.04
   7  -6  17    1.72    3.47
   7   6  17    4.26    6.31
   7  -7 -17   38.72   16.93
  -7  -7  17   46.44   16.79
   7  -7 -16   11.50   17.12
  -7  -7  16   19.04   11.37
   7  -7 -15   72.73    9.75
  -7  -7  15   77.72    7.72
   7  -7 -14  204.64   24.97
  -7  -7  14  207.70   18.62
   7  -7 -13   13.89    9.83
  -7  -7  13   11.30    5.52
   7  -7 -12  123.28   16.73
  -7  -7  12  107.12   16.00
   7  -7 -11   15.76    7.21
  -7   7  11   12.32    7.19
  -7  -7  11    9.57    5.72
   7   7 -10  282.48   20.80
  -7   7  10  254.52   15.24
   7  -7 -10  278.06   32.79
  -7   7  10  264.27   17.32
  -7  -7  10  272.46   19.25
   7   7  -9  225.75   13.00
  -7   7   9  200.68   17.19
   7  -7  -9  200.15   22.24
  -7   7   9  215.99   13.58
  -7  -7   9  223.44   13.79
   7  -7  -8   39.11    8.41
   7   7  -8   23.19   12.40
   7  -7  -8   29.67   13.19
  -7   7   8   27.27   12.46
  -7  -7   8   22.35    5.10
   7  -7  -7   71.87   12.87
   7   7  -7   72.87   10.57
   7  -7  -7   73.70   11.51
  -7   7   7   77.73   17.92
  -7  -7   7   72.88   11.67
   7  -7  -6   98.01   21.77
   7   7  -6   99.26   12.47
   7  -7  -6   71.15   11.83
  -7   7   6   92.75   11.14
  -7  -7   6   88.76   11.38
   7  -7  -5  116.28   18.10
   7   7  -5  100.75   11.16
  -7  -7   5  123.08   13.88
   7  -7  -5  114.44   14.57
  -7   7   5  100.80   10.98
  -7  -7   5  113.38   12.40
   7  -7  -4   66.28   17.12
   7   7  -4   53.72    6.33
  -7  -7   4   66.12    9.24
   7  -7  -4   70.84    8.21
  -7   7   4   46.47    7.21
  -7  -7   4   68.98    8.95
   7  -7  -3  393.85   26.66
   7   7  -3  402.05   21.12
  -7  -7   3  403.06   22.86
   7  -7  -3  390.38   22.25
  -7   7   3  394.09   18.37
  -7  -7   3  407.28   20.53
   7  -7  -2  625.78   26.91
   7   7  -2  668.25   28.31
  -7  -7   2  647.65   26.54
   7  -7  -2  635.86   28.39
  -7   7   2  658.65   24.02
  -7  -7   2  638.54   25.42
   7  -7  -1   23.49    8.82
   7   7  -1   32.11   11.19
  -7  -7   1   28.49   13.83
   7  -7  -1   35.09   16.18
  -7   7   1   28.66    4.94
  -7  -7   1   31.03    5.01
   7  -7   0  139.13   27.56
   7   7   0  146.16   12.18
  -7  -7   0  133.72   13.17
   7  -7   0  139.27   11.49
  -7   7   0  140.09    9.67
   7  -7   1   28.08   13.55
   7   7   1   30.05   16.28
  -7  -7  -1   29.49   12.22
   7  -7   1   34.58    6.08
  -7   7  -1   23.64    1.92
   7  -7   2  645.40   29.07
   7   7   2  591.86   25.96
  -7  -7  -2  649.01   26.29
   7  -7   2  632.51   28.60
  -7   7  -2  623.52   22.35
   7  -7   3  380.35   25.25
   7   7   3  384.90   21.21
  -7  -7  -3  400.10   21.05
   7  -7   3  427.80   22.64
  -7   7  -3  381.54   17.35
   7  -7   4   55.83   11.20
   7   7   4   67.32    9.89
  -7  -7  -4   54.41    8.97
   7  -7   4   51.17    8.20
   7  -7   5   91.89   13.17
   7   7   5  118.01   14.18
  -7  -7  -5  120.05   17.61
   7  -7   5   98.75   10.74
   7  -7   6   78.06   16.91
   7   7   6   91.46   12.62
  -7  -7  -6  181.76   12.13
   7  -7   6   90.69   11.17
   7  -7   7   70.08   11.68
   7   7   7   79.81   11.75
   7  -7   7   67.21    8.97
   7  -7   8   20.76   11.37
   7   7   8   20.23   13.38
  -7  -7  -8   34.27    6.87
   7  -7   8   26.52    4.29
   7  -7   9  212.14   19.34
   7   7   9  214.30   20.11
  -7  -7  -9  241.25   13.48
   7  -7  10  266.66   30.69
   7   7  10  283.85   20.28
  -7  -7 -10  242.81   14.94
   7  -7  11   12.82   10.56
   7   7  11    5.66    8.93
  -7  -7 -11    9.33    4.44
   7  -7  12  107.09   15.29
   7   7  12  112.13   16.84
   7  -7  13   18.29    9.95
   7   7  13   12.73    8.80
   7  -7  14  212.50   21.96
   7   7  14  224.30   20.46
   7  -7  15   78.01   18.66
   7   7  15   71.25   11.35
   7  -7  16   24.34    9.66
   7   7  16   13.21   13.79
   7  -7  17   32.72   19.82
   7   7  17   44.13    7.43
   7  -8 -17    5.22    7.07
  -7  -8  17    4.34    2.39
   7  -8 -16   48.50   17.03
  -7  -8  16   48.00   23.27
   7  -8 -15  140.22   16.44
  -7  -8  15  151.51   16.78
   7  -8 -14   15.32   12.95
  -7  -8  14   18.05   11.86
   7  -8 -13  112.22   15.72
  -7  -8  13  105.89   21.42
   7  -8 -12  266.23   22.60
  -7  -8  12  257.68   19.81
   7  -8 -11   84.97   11.93
  -7  -8  11   72.69   10.38
   7   8 -10  181.54   18.01
  -7   8  10  177.96   15.98
   7  -8 -10  199.89   21.94
  -7  -8  10  181.57   15.64
   7   8  -9  193.46   18.40
  -7   8   9  182.81   15.86
   7  -8  -9  174.27   18.32
  -7   8   9  186.11   18.04
  -7  -8   9  154.41   15.68
   7  -8  -8  337.02   17.91
   7   8  -8  308.03   20.62
   7  -8  -8  286.41   22.19
  -7   8   8  278.37   18.69
  -7  -8   8  304.05   18.23
   7  -8  -7  153.70   19.47
   7   8  -7  154.91    8.74
   7  -8  -7  159.53   19.63
  -7   8   7  147.47   14.22
   7  -8  -6   32.48    7.54
   7   8  -6   31.54    8.94
  -7  -8   6   35.05    6.60
   7  -8  -6   27.71    9.63
  -7   8   6   29.58    4.83
  -7  -8   6   26.33    6.88
   7  -8  -5   76.40   11.15
   7   8  -5   89.39   19.34
  -7  -8   5   80.94   15.16
   7  -8  -5   68.95   14.32
  -7   8   5   74.34   10.11
  -7  -8   5   82.38   11.02
   7  -8  -4  413.66   28.37
   7   8  -4  432.40   20.56
  -7  -8   4  428.18   19.33
   7  -8  -4  413.59   20.31
  -7  -8   4  426.47   18.07
   7  -8  -3  431.90   22.45
   7   8  -3  399.88   22.01
  -7  -8   3  467.44   24.67
   7  -8  -3  446.12   24.43
  -7   8   3  427.24   19.78
  -7  -8   3  419.96   27.71
   7  -8  -2  115.46   14.97
   7   8  -2   91.72   16.10
  -7  -8   2  117.06   12.83
   7  -8  -2  112.35   14.74
  -7   8   2   90.70   10.04
  -7  -8   2  109.93   12.16
   7  -8  -1  163.65   17.07
   7   8  -1  154.02   15.29
  -7  -8   1  155.81   14.19
   7  -8  -1  155.68   15.52
  -7   8   1  139.25   11.45
  -7  -8   1  159.50   16.30
   7  -8   0  340.26   23.12
   7   8   0  309.16   24.04
  -7  -8   0  311.65   25.23
   7  -8   0  333.46   26.66
  -7   8   0  304.39   18.31
   7  -8   1  155.43   18.62
   7   8   1  166.44   15.59
  -7  -8  -1  154.91   14.00
   7  -8   1  154.49   19.14
  -7   8  -1  151.85   12.19
   7  -8   2  103.53   14.10
   7   8   2  102.61   14.81
  -7  -8  -2   94.00   11.73
   7  -8   2  102.40   13.17
  -7   8  -2  105.92   10.00
   7  -8   3  437.53   27.43
   7   8   3  450.27   24.50
  -7  -8  -3  392.22   29.82
   7  -8   3  431.31   22.31
  -7   8  -3  427.66   18.27
   7  -8   4  412.82   31.60
   7   8   4  405.27   15.79
  -7  -8  -4  502.23   24.12
   7  -8   4  426.11   17.19
  -7   8  -4  391.02   11.23
   7  -8   5   73.98   11.81
   7   8   5   75.32   11.74
  -7  -8  -5  140.76   36.50
   7  -8   5   78.62   10.09
   7  -8   6   31.71   15.37
   7   8   6   34.31   14.49
  -7  -8  -6   78.81   19.48
   7  -8   6   30.93    7.21
   7  -8   7  159.36   18.23
   7   8   7  172.14   16.89
  -7  -8  -7  189.54   31.40
   7  -8   7  165.56   14.06
   7  -8   8  288.84   23.78
   7   8   8  312.77   19.95
  -7  -8  -8  316.47   18.63
   7  -8   9  171.14   18.00
   7   8   9  161.86   21.52
  -7  -8  -9  182.21   17.24
   7  -8  10  184.53   23.16
   7   8  10  199.71   18.55
   7  -8  11   68.05   11.61
   7   8  11   74.63    9.62
  -7  -8 -11   60.85   12.92
   7  -8  12  276.00   25.50
   7   8  12  264.56   22.81
  -7  -8 -12  205.49   15.15
   7  -8  13  119.69   14.56
   7   8  13  118.54   10.59
   7  -8  14   20.36   11.05
   7   8  14   16.30   16.45
   7  -8  15  145.37   19.55
   7   8  15  142.57   23.27
   7  -8  16   33.59   25.41
   7   8  16   31.80   23.83
   7  -8  17    5.11    5.72
   7   8  17    2.59    4.95
   7  -9 -16    5.61    6.57
  -7  -9  16    8.76    4.07
   7  -9 -15   12.61   15.44
  -7  -9  15   15.59   10.10
   7  -9 -14    7.65   13.07
  -7  -9  14   16.28   10.55
   7  -9 -13  142.48   16.46
  -7  -9  13  140.35   15.12
   7  -9 -12   47.85   29.84
  -7  -9  12   41.03   21.54
   7  -9 -11  325.07   25.40
  -7  -9  11  308.60   28.45
  -7   9  10    4.50    3.88
   7  -9 -10    6.55    8.08
  -7  -9  10    9.17    7.87
   7   9  -9   30.20   10.43
  -7   9   9   37.41    4.98
   7  -9  -9   20.40   22.50
  -7  -9   9   24.35   12.10
   7   9  -8  191.28   18.35
  -7   9   8  162.07   18.41
   7  -9  -8  189.11   19.35
  -7  -9   8  183.90   16.63
   7  -9  -7    4.68    2.69
   7   9  -7    8.35    6.37
  -7  -9   7    3.84    5.48
   7  -9  -7    2.39    6.34
  -7  -9   7    6.37    4.75
   7  -9  -6  237.88   23.24
   7   9  -6  240.05   14.69
  -7  -9   6  230.67   14.20
   7  -9  -6  235.83   20.28
  -7  -9   6  244.95   13.98
   7  -9  -5   93.22   10.81
   7   9  -5   91.80    7.81
  -7  -9   5   98.67   14.23
   7  -9  -5   98.26   12.99
  -7   9   5   92.15    7.23
  -7  -9   5   91.70    9.61
   7  -9  -4   17.99   17.72
  -7  -9   4   22.88    8.16
   7  -9  -4   19.84   23.39
   7  -9  -3  344.05   17.44
   7   9  -3  350.17   16.02
  -7  -9   3  314.50   24.08
   7  -9  -3  354.04   17.73
  -7   9   3  312.05   13.16
  -7  -9   3  315.94   19.22
   7  -9  -2   32.81    9.60
   7   9  -2   37.83   14.32
  -7  -9   2   34.93   12.84
   7  -9  -2   33.30   13.90
  -7   9   2   30.86    4.32
  -7  -9   2   37.84    8.31
   7  -9  -1  570.63   25.78
   7   9  -1  524.95   22.40
  -7  -9   1  522.45   22.25
   7  -9  -1  555.77   23.37
  -7   9   1  450.62   14.47
  -7  -9   1  553.22   21.75
   7  -9   0  141.84   15.82
   7   9   0  123.68   16.31
  -7  -9   0  119.85   15.32
   7  -9   0  120.22   25.28
  -7   9   0   86.02    9.29
   7  -9   1  559.01   27.92
   7   9   1  492.09   26.87
  -7  -9  -1  501.77   21.63
   7  -9   1  472.73   21.76
   7  -9   2   41.32   23.93
   7   9   2   22.80   27.56
  -7  -9  -2   43.80   10.37
   7  -9   2   48.40    9.87
   7  -9   3  354.62   17.89
   7   9   3  329.87   17.15
  -7  -9  -3  398.87   21.89
   7  -9   4   11.70   12.47
   7  -9   4   20.43    4.79
   7  -9   5   98.79   11.15
   7   9   5   88.99   12.91
  -7  -9  -5  241.21   33.73
   7  -9   5   93.31    8.95
   7  -9   6  241.39   15.59
   7   9   6  231.00   18.35
  -7  -9  -6  296.87   26.55
   7  -9   6  231.48   13.45
   7  -9   7    5.53    5.50
   7   9   7    5.68    3.63
   7  -9   7    3.93    4.88
   7  -9   8  193.17   18.54
   7   9   8  176.75   21.52
  -7  -9  -8  195.02   18.58
   7  -9   8  172.44   14.14
   7  -9   9   34.08   14.44
   7   9   9   24.32   14.78
  -7  -9  -9   36.37   15.23
   7  -9  10    6.33    4.61
   7   9  10    5.92    6.64
  -7  -9 -10    5.69    5.57
   7   9  11  328.31   26.13
  -7  -9 -11  299.78   23.99
   7  -9  12   61.88   13.53
   7   9  12   42.87   11.01
  -7  -9 -12   36.46   10.62
   7  -9  13  142.75   16.72
   7   9  13  133.23   16.85
   7  -9  14   11.27    7.25
   7   9  14   13.76    8.76
   7  -9  15   12.17   12.02
   7   9  15   14.35   13.33
   7  -9  16    8.37    6.92
   7   9  16    4.20    9.40
   7 -10 -15   17.96    9.33
  -7 -10  15   19.94   11.95
   7 -10 -14    3.17    6.56
  -7 -10  14    6.26    3.87
   7 -10 -13    6.44    6.36
  -7 -10  13    2.40    3.39
   7 -10 -12   12.73    7.13
  -7 -10  12   10.14    7.06
   7 -10 -11   17.77   14.45
  -7 -10  11   20.03   13.31
   7  10 -10   42.72    6.24
  -7  10  10   49.69    5.29
   7 -10 -10   58.79   34.13
  -7 -10  10   50.67    5.66
   7  10  -9  106.02   13.17
  -7  10   9   99.09   12.89
   7 -10  -9  121.34   35.88
  -7 -10   9  100.92   12.20
   7  10  -8   39.83    8.51
  -7  10   8   52.38   15.45
  -7 -10   8   48.22   23.04
   7 -10  -8   58.49   21.58
  -7 -10   8   44.41   15.80
   7  10  -7  339.64   28.56
  -7 -10   7  328.82   25.98
   7 -10  -7  336.49   28.22
  -7 -10   7  305.17   23.75
   7 -10  -6   64.51   11.09
   7  10  -6   54.43    8.45
  -7 -10   6   61.78    8.83
   7 -10  -6   59.15   17.74
  -7 -10   6   60.77    8.02
   7 -10  -5  159.34   14.24
   7  10  -5  165.65   13.45
  -7 -10   5  162.03   13.24
   7 -10  -5  162.70   14.71
  -7 -10   5  152.55   14.07
   7 -10  -4   24.43    9.68
   7  10  -4   11.40    8.36
  -7 -10   4   20.72   12.14
   7 -10  -4   25.40   12.12
  -7 -10   4   17.76   11.26
   7 -10  -3   74.69   15.25
   7  10  -3   43.50    5.49
  -7 -10   3   73.50   26.75
   7 -10  -3   76.80   12.33
  -7 -10   3   72.25    6.06
   7 -10  -2    8.03    3.32
   7  10  -2   12.16    6.11
  -7 -10   2   10.92    8.75
   7 -10  -2   10.16    4.83
  -7 -10   2    7.40    5.32
   7 -10  -1   16.01    7.46
   7  10  -1   23.26   18.78
  -7 -10   1   17.70    9.77
   7 -10  -1   16.41   10.67
  -7 -10   1   17.07    9.42
   7 -10   0   88.14    8.86
   7  10   0   90.41   11.17
  -7 -10   0   84.81    8.53
   7 -10   0   83.40   10.39
   7 -10   1   23.35   11.68
   7  10   1   24.87   15.25
  -7 -10  -1   21.83   11.22
   7 -10   1   24.50   11.73
   7 -10   2    9.23    5.50
   7  10   2    8.99    4.69
  -7 -10  -2    8.84    5.98
   7 -10   2   10.20    6.74
   7 -10   3   53.54   24.36
   7  10   3   78.41   12.28
  -7 -10  -3   59.49    9.78
   7 -10   3   43.88    7.32
   7 -10   4   18.18    8.62
   7  10   4   19.51   10.52
  -7 -10  -4   42.99   41.70
   7 -10   4   15.14    9.10
   7 -10   5  168.75   15.16
   7  10   5  150.53   13.87
  -7 -10  -5  216.45   18.06
   7 -10   5  167.75   13.41
   7 -10   6   67.73    9.67
   7  10   6   52.16    8.04
  -7 -10  -6   68.19   17.75
   7 -10   6   59.61    7.93
   7 -10   7  326.67   35.89
   7  10   7  287.38   29.31
  -7 -10  -7  326.11   36.40
   7 -10   7  379.76   28.26
   7 -10   8   59.77   27.69
   7  10   8   39.52    7.44
  -7 -10  -8   46.35   21.53
   7 -10   8   47.14    6.09
   7 -10   9  106.00   14.37
   7  10   9  103.87   15.26
  -7 -10  -9   96.44   15.40
   7 -10  10   50.58   27.00
   7  10  10   55.50    8.79
  -7 -10 -10   52.35   11.46
   7 -10  11   19.01   11.87
   7  10  11   18.00   14.22
  -7 -10 -11   17.89    5.70
   7 -10  12   12.00    9.85
   7  10  12    7.44    8.49
  -7 -10 -12    9.47    6.06
   7 -10  13    3.41    5.22
   7  10  13    1.01    4.82
   7 -10  14    5.88    9.30
   7  10  14   13.26    8.85
   7 -10  15   10.83    6.03
   7  10  15   14.70   15.46
   7 -11 -14   12.86   22.66
  -7 -11  14   13.66    9.10
   7 -11 -13   19.25   26.57
  -7 -11  13   27.75   13.90
   7 -11 -12   16.98   19.79
  -7 -11  12   21.06   12.68
   7 -11 -11   89.81   13.50
  -7 -11  11   82.57   14.67
   7  11 -10    4.01    5.15
  -7  11  10    4.15    5.00
   7 -11 -10    6.92    6.59
  -7 -11  10    7.14    5.06
   7  11  -9    5.86    6.72
  -7  11   9    6.95    6.18
   7 -11  -9   14.19    9.89
  -7 -11   9   10.27    5.82
   7  11  -8   66.31    6.78
  -7  11   8   59.02    6.12
  -7 -11   8   56.22   16.29
   7 -11  -8   62.50   11.71
  -7 -11   8   61.51    6.06
   7  11  -7  230.28   16.21
  -7  11   7  209.99   16.84
  -7 -11   7  198.07   14.46
   7 -11  -7  200.99   18.45
  -7 -11   7  197.70   14.89
   7  11  -6    5.76    7.82
  -7 -11   6    8.21    7.57
   7 -11  -6   12.67    9.69
  -7 -11   6    6.92    3.83
   7 -11  -5  181.05   18.21
   7  11  -5  179.62   22.33
  -7 -11   5  170.84   10.04
   7 -11  -5  168.23   16.11
  -7 -11   5  183.28   15.49
   7 -11  -4   35.42   19.42
   7  11  -4   17.74   13.25
  -7 -11   4   27.00   12.72
   7 -11  -4   37.99    9.83
  -7 -11   4   30.44   13.01
   7 -11  -3   22.92   14.34
   7  11  -3   22.95   17.75
  -7 -11   3   20.72   12.08
   7 -11  -3   22.87   13.05
  -7 -11   3   18.88    8.75
   7 -11  -2   90.20   13.45
   7  11  -2   91.55    9.48
  -7 -11   2   97.56   19.53
   7 -11  -2   94.44   11.15
  -7 -11   2   90.92    9.95
   7 -11  -1  146.41   19.82
   7  11  -1  158.69   16.07
   7 -11  -1  154.87   22.14
  -7 -11   1  162.82   14.82
   7 -11   0   -0.42    4.05
   7  11   0    1.82    3.35
  -7 -11   0    2.96    4.26
   7 -11   0    1.67    3.04
  -7 -11  -1  155.87   16.05
   7 -11   1  150.79   23.21
   7 -11   2  106.58   26.10
   7  11   2   94.05   10.66
  -7 -11  -2  101.01   22.30
   7 -11   2   89.99    9.85
   7 -11   3   25.87   16.29
   7  11   3   20.18   18.93
  -7 -11  -3   42.65   23.49
   7 -11   3   27.09   15.45
   7 -11   4   22.14    9.48
   7  11   4   27.32   15.22
  -7 -11  -4   55.66   33.22
   7 -11   4   21.36   14.44
   7 -11   5  159.14   23.95
   7  11   5  174.80   12.65
  -7 -11  -5  212.11   26.27
   7 -11   6    8.82    6.69
   7  11   6    9.43    6.12
  -7 -11  -6    6.45    7.81
   7 -11   6    4.74    7.26
   7 -11   7  218.93   18.13
   7  11   7  174.38   14.28
  -7 -11  -7  217.33   17.19
   7 -11   7  282.80   24.97
   7 -11   8   65.18   10.01
   7  11   8   62.23    8.11
  -7 -11  -8   61.66   12.70
   7 -11   8   53.17    4.74
   7 -11   9   14.44    7.67
   7  11   9   11.93    6.96
  -7 -11  -9    8.54    4.55
   7 -11  10    6.74    6.34
   7  11  10    6.13    9.97
  -7 -11 -10    2.15    1.91
   7 -11  11   87.40   14.35
   7  11  11   92.31   10.38
  -7 -11 -11   80.46    6.81
   7 -11  12   22.85   13.95
   7  11  12   24.46   19.35
  -7 -11 -12   18.13    5.95
   7 -11  13   34.45   17.29
   7  11  13   25.23   24.33
   7 -11  14   20.64   10.86
   7  11  14   14.22   17.16
   7 -12 -13   26.99   28.29
  -7 -12  13   30.36   13.84
   7 -12 -12   15.91   16.40
  -7 -12  12   23.24   13.46
   7 -12 -11  117.51   17.65
  -7 -12  11  102.35   11.06
   7  12 -10   21.17   11.61
  -7  12  10   22.83   13.34
   7 -12 -10   30.00   22.52
  -7 -12  10   27.36   13.66
   7  12  -9  102.46    8.77
  -7  12   9   93.05    9.71
  -7 -12   9  112.96   12.24
   7 -12  -9   99.31   13.56
  -7 -12   9  104.19    9.76
   7  12  -8   72.31    7.79
  -7  12   8   63.13    6.76
  -7 -12   8   63.44    7.66
   7 -12  -8   65.62   12.00
  -7 -12   8   60.92    6.99
   7  12  -7   13.90   11.99
  -7  12   7   10.63    9.79
  -7 -12   7   16.63    6.15
   7 -12  -7   13.06   12.33
  -7 -12   7   10.94    9.53
   7  12  -6   12.14    8.88
  -7  12   6   13.55   12.33
  -7 -12   6   16.58    6.51
   7 -12  -6   14.21    9.01
  -7 -12   6   13.07    9.21
   7 -12  -5    7.58    8.06
   7  12  -5    6.23    8.03
  -7 -12   5    9.17    4.82
   7 -12  -5    6.28    8.17
  -7 -12   5    7.74    5.85
   7 -12  -4   38.75   10.50
   7  12  -4   29.40   21.35
  -7 -12   4   45.71   13.02
   7 -12  -4   50.75   23.97
  -7 -12   4   39.43    5.11
   7 -12  -3  190.42   24.01
   7  12  -3  196.58   17.91
  -7 -12   3  190.22   22.85
   7 -12  -3  192.70   18.05
  -7 -12   3  187.90   20.23
   7 -12  -2   29.05   11.38
   7  12  -2   40.08   25.58
  -7 -12   2   26.23   15.32
   7 -12  -2   23.95   12.67
  -7 -12   2   26.00   14.04
   7 -12  -1  173.84   34.12
   7  12  -1  209.27   19.28
  -7 -12   1  167.05   15.34
   7 -12  -1  167.32   18.85
  -7 -12   1  175.07    9.22
   7 -12   0   65.73   20.55
   7  12   0   73.98    9.50
  -7 -12   0   66.46   11.54
   7 -12   0   73.96    9.14
  -7 -12   0   63.77   15.01
   7 -12   1  210.52   22.30
   7  12   1  182.00   17.22
  -7 -12  -1  214.89   23.60
   7 -12   1  188.22   26.54
   7 -12   2   37.37   17.83
   7  12   2   33.34   17.50
  -7 -12  -2   49.71   11.83
   7 -12   2   38.94    8.61
   7 -12   3  214.51   21.86
   7  12   3  207.42   23.22
   7 -12   3  199.60   18.17
   7 -12   4   44.65   23.43
   7  12   4   46.80   23.21
  -7 -12  -4   58.10   15.81
   7 -12   4   40.05   17.18
   7 -12   5    8.07    5.54
   7  12   5    9.84   10.26
  -7 -12  -5    4.78    5.60
   7 -12   5    5.74    4.23
   7 -12   6   14.30    6.71
   7  12   6   21.23   10.29
  -7 -12  -6   19.11    7.64
   7 -12   6   12.13   10.35
   7 -12   7   11.45    6.65
   7  12   7   15.52    7.33
  -7 -12  -7   17.18    6.59
   7 -12   7    8.67    6.86
   7 -12   8   56.95   10.05
   7  12   8   58.22    9.93
  -7 -12  -8   73.72   25.24
   7 -12   9   95.65   14.49
   7  12   9   88.78   14.61
  -7 -12  -9   88.82   22.70
   7 -12  10   29.67   16.13
   7  12  10   19.45   23.10
  -7 -12 -10   25.16   16.39
   7 -12  11  104.50   17.20
   7  12  11  114.30   14.32
  -7 -12 -11   90.77   17.16
   7 -12  12   29.56   18.10
   7  12  12   17.70   20.57
  -7 -12 -12   20.59   14.70
   7 -12  13   38.89   20.82
   7  12  13   26.41   22.71
   7 -13 -12    9.39   15.22
  -7 -13  12    8.78    5.91
   7 -13 -11   25.95   28.15
  -7 -13  11   38.91   17.29
   7  13 -10   59.97    8.88
  -7  13  10   52.17    7.98
   7 -13 -10   78.69   16.64
  -7 -13  10   71.84   14.90
   7  13  -9   15.14    3.90
  -7  13   9    8.08   15.20
  -7 -13   9   16.37   14.43
   7 -13  -9   14.80   12.15
  -7 -13   9   21.80    9.51
   7  13  -8    0.77    2.18
  -7  13   8    2.13    2.90
  -7 -13   8    2.81    3.21
   7 -13  -8   -0.42    4.98
  -7 -13   8    2.03    3.45
   7  13  -7   15.50   16.63
  -7  13   7   15.88   15.25
  -7 -13   7   22.24    8.40
   7 -13  -7   16.10   15.17
  -7 -13   7   17.88   11.15
   7  13  -6   38.63   11.47
  -7  13   6   26.95   15.62
  -7 -13   6   31.22   11.53
   7 -13  -6   25.85   22.20
  -7 -13   6   32.40   16.22
   7  13  -5   32.85    8.51
  -7  13   5   31.35   19.91
  -7 -13   5   41.60   21.15
   7 -13  -5   30.60   16.40
  -7 -13   5   36.18    6.73
   7  13  -4    2.27    3.07
  -7 -13   4    3.22    3.34
   7 -13  -4    1.66    3.28
  -7 -13   4    2.10    3.02
   7 -13  -3   54.88   18.83
   7  13  -3   58.58   26.27
  -7 -13   3   50.39   19.75
   7 -13  -3   53.56   25.16
  -7 -13   3   54.02    7.57
   7 -13  -2  195.19   18.36
   7  13  -2  202.35   20.44
  -7 -13   2  190.81   15.96
   7 -13  -2  199.15   16.85
  -7 -13   2  209.49   15.86
   7 -13  -1   84.55   13.70
   7  13  -1   86.88   10.52
  -7 -13   1   80.30    7.68
   7 -13  -1   83.63    9.61
  -7 -13   1   82.53    6.52
   7 -13   0  105.09   20.92
   7  13   0  111.47   12.46
  -7 -13   0  100.25   13.28
   7 -13   0  107.56   13.29
  -7 -13   0  109.99   10.27
   7 -13   1   80.04   11.35
   7  13   1   81.71    9.55
  -7 -13  -1   91.76   10.40
   7 -13   1   90.29   12.89
   7 -13   2  209.86   18.59
   7  13   2  188.04   28.04
  -7 -13  -2  250.16   24.43
   7 -13   2  196.90   17.28
   7 -13   3   58.39   19.63
   7  13   3   52.05   21.54
  -7 -13  -3  140.33   21.19
   7 -13   3   56.69    7.85
   7 -13   4    2.34    5.16
   7  13   4    2.22    3.94
  -7 -13  -4    3.45    7.52
   7 -13   4    1.58    2.17
   7 -13   5   36.05   11.99
   7  13   5   28.27   23.55
  -7 -13  -5   44.96   19.76
   7 -13   5   25.80   12.22
   7 -13   6   30.52   18.60
   7  13   6   26.07   20.65
  -7 -13  -6   29.00   20.80
   7 -13   6   34.39    5.08
   7 -13   7   23.68   19.56
   7  13   7   20.86   17.69
  -7 -13  -7   21.41   10.41
   7 -13   7   15.51   11.54
   7 -13   8    2.51    6.19
   7  13   8    2.53    4.70
  -7 -13  -8    2.44    3.18
   7 -13   9   14.65   15.07
   7  13   9   11.48   13.04
  -7 -13  -9   13.65    8.22
   7 -13  10   67.07   11.72
   7  13  10   71.36   11.46
  -7 -13 -10   61.08   12.90
   7 -13  11   32.95   20.91
   7  13  11   42.17   10.44
  -7 -13 -11   26.80    9.40
   7 -13  12   11.45    7.26
   7  13  12    8.32   14.63
  -7 -13 -12    7.89    4.44
   7 -14 -11   11.02   13.43
   7  14 -10   57.31    7.57
  -7 -14  10   52.54    9.27
   7 -14 -10   52.28   23.17
  -7 -14  10   46.88   23.11
   7  14  -9   30.42   13.21
  -7  14   9   32.00    5.06
  -7 -14   9   36.50   22.30
   7 -14  -9   28.14   29.11
  -7 -14   9   34.94    4.73
   7  14  -8    3.57    4.87
  -7  14   8    3.49    4.94
  -7 -14   8    1.18    2.76
   7 -14  -8    3.77    5.38
  -7 -14   8    0.15    2.41
   7  14  -7   68.36    7.89
  -7  14   7   61.29   11.51
   7 -14  -7   85.99   13.26
  -7 -14   7   62.51    6.60
   7  14  -6  156.26   16.47
  -7  14   6  178.76   19.83
  -7 -14   6  172.44   17.26
   7 -14  -6  168.70   17.77
  -7 -14   6  188.92   17.88
   7  14  -5   59.93    7.86
  -7  14   5   46.67    6.43
  -7 -14   5   57.10    6.68
   7 -14  -5   63.69    9.86
  -7 -14   5   63.61   16.87
   7  14  -4    1.01    2.77
  -7  14   4    4.88    4.06
  -7 -14   4    0.39    2.76
   7 -14  -4    1.82    3.57
  -7 -14   4    0.44    2.06
   7  14  -3   66.64    9.71
  -7 -14   3   56.09    8.31
   7 -14  -3   76.03    9.24
  -7 -14   3   64.48    7.12
   7 -14  -2   36.05   26.54
   7  14  -2   63.68    8.78
  -7 -14   2   44.71   23.93
   7 -14  -2   52.17    9.85
  -7 -14   2   53.41    5.70
   7 -14  -1    5.46    3.78
   7  14  -1    8.42    6.52
  -7 -14   1    5.22    2.78
   7 -14  -1    5.76    6.91
  -7 -14   1    7.07    5.01
   7 -14   0   26.71   15.19
   7  14   0   23.44   17.52
  -7 -14   0   22.09   13.51
   7 -14   0   21.75   15.90
  -7 -14   0   18.87   15.19
   7 -14   1    5.25    5.82
   7  14   1    4.18    4.22
  -7 -14  -1    9.77    5.40
   7 -14   1    9.69    7.70
  -7 -14  -1    7.72    8.77
   7 -14   2   55.02   22.26
   7  14   2   57.41    8.22
  -7 -14  -2   78.52   10.65
   7 -14   2   54.94    6.85
   7 -14   3   70.81   28.75
   7  14   3   63.22   22.85
  -7 -14  -3  183.04   32.33
   7 -14   3   78.54    8.92
   7 -14   4    4.19    4.40
   7  14   4    4.00    6.52
  -7 -14  -4    5.35    6.20
   7 -14   4    1.87    3.41
   7 -14   5   51.13   18.53
   7  14   5   67.26   12.30
  -7 -14  -5   75.47   32.67
   7 -14   5   61.77    6.80
   7 -14   6  185.63   19.10
   7  14   6  169.64   25.76
  -7 -14  -6  175.67   22.81
   7 -14   6  212.96   20.24
   7 -14   7   59.86   10.70
   7  14   7   65.88    9.92
  -7 -14  -7   71.68   24.07
   7 -14   7   67.79    6.42
   7 -14   8    2.79    4.94
   7  14   8    4.73    4.97
  -7 -14  -8    2.72    1.84
   7 -14   9   35.53   22.49
   7  14   9   33.47   26.38
  -7 -14  -9   35.74   14.73
   7 -14  10   50.88   19.65
   7  14  10   54.23   32.00
  -7 -14 -10   46.04    9.91
   7 -14  11    6.86    4.38
   7  14  11   11.54   15.80
  -7 -14 -11   10.24    4.60
   7  15  -9    1.85    3.49
  -7  15   9    1.80    2.63
  -7 -15   9    3.56    4.38
   7 -15  -9    7.39    7.03
   7  15  -8   93.52   11.72
  -7  15   8   93.61   11.01
  -7 -15   8   84.41   13.07
   7 -15  -8   79.81   27.53
   7  15  -7   13.03   12.88
  -7  15   7   23.54    7.65
  -7 -15   7   18.76   11.50
   7 -15  -7   13.12   16.61
   7  15  -6   17.31   15.16
  -7  15   6   16.82   19.29
  -7 -15   6   15.06   13.42
   7 -15  -6    7.66    9.51
   7  15  -5    3.96    3.49
  -7  15   5    7.03    7.33
  -7 -15   5    1.52    3.32
   7 -15  -5    8.10    4.94
  -7 -15   5    6.49    3.60
   7  15  -4  171.97   26.47
  -7  15   4  178.28   24.89
  -7 -15   4  199.20   18.73
   7 -15  -4  205.21   23.21
  -7 -15   4  191.07   18.05
   7  15  -3    7.68    9.37
  -7  15   3    8.88    8.91
  -7 -15   3   10.48    6.71
   7 -15  -3   14.05    6.78
  -7 -15   3    9.89    4.92
   7  15  -2   33.97   24.57
  -7  15   2   34.11   19.73
  -7 -15   2   33.60   16.39
   7 -15  -2   31.30    7.89
  -7 -15   2   34.95    4.85
   7 -15  -1   11.94   13.78
   7  15  -1   14.07   15.64
  -7 -15   1   21.17   10.00
   7 -15  -1   16.11    9.95
  -7 -15   1   14.35    9.85
   7 -15   0   34.57   14.62
   7  15   0   36.78   12.45
  -7 -15   0   41.96   22.11
   7 -15   0   41.76    7.48
  -7 -15   0   39.26   14.72
   7 -15   1   17.96   14.67
   7  15   1   13.67   11.26
  -7 -15  -1   17.13   16.74
   7 -15   1   15.88   11.92
  -7 -15  -1   16.31   10.97
   7 -15   2   32.87   17.29
   7  15   2   31.09   27.97
  -7 -15  -2   46.10   17.39
   7 -15   2   32.10   18.13
   7 -15   3    8.09   10.32
   7  15   3    9.85   11.91
  -7 -15  -3    7.24    8.12
   7 -15   3    9.02    5.43
   7 -15   4  168.05   24.59
   7  15   4  215.51   21.76
  -7 -15  -4  415.73   46.33
   7 -15   4  176.21   18.53
   7 -15   5    4.05    5.12
   7  15   5    8.29    7.32
  -7 -15  -5    5.54    7.20
   7 -15   5    2.72    4.98
   7 -15   6   27.54   11.31
   7  15   6    7.65   11.52
  -7 -15  -6   25.09    8.54
   7 -15   6   13.81   13.69
   7 -15   7   21.75   10.70
   7  15   7   19.82   18.59
  -7 -15  -7   17.61   17.46
   7 -15   8   87.55   11.99
   7  15   8   88.54   13.06
  -7 -15  -8   95.19   11.65
   7 -15   9    1.72    3.53
   7  15   9    1.08    3.79
  -7 -15  -9    1.88    1.85
   7  16  -6    2.24    3.65
  -7  16   6    1.90    3.79
  -7 -16   6    3.43    3.35
   7 -16  -6    0.01    2.57
   7  16  -5    5.63    7.51
  -7  16   5    4.52    6.61
   7 -16  -5   10.11    7.08
   7  16  -4   78.04   11.04
  -7  16   4   73.35   12.13
  -7 -16   4   64.43   16.63
   7 -16  -4   58.28   17.29
   7  16  -3   27.09    9.01
  -7  16   3   17.58   17.05
  -7 -16   3   30.68   19.20
   7 -16  -3   28.50   23.50
   7  16  -2    0.36    5.39
  -7  16   2    3.97    5.57
  -7 -16   2    1.14    2.95
   7 -16  -2    3.24    6.52
   7  16  -1    3.51    4.27
  -7  16   1   -0.34    4.68
  -7 -16   1    1.17    2.61
   7 -16  -1    0.93    3.83
   7  16   0  168.33   13.67
  -7  16   0  168.14   17.98
  -7 -16   0  155.88   14.63
   7 -16   0  176.98   12.52
   7 -16   1    1.45    2.83
   7  16   1    2.19    3.32
  -7 -16  -1    0.56    2.84
   7 -16   1    1.95    2.59
  -7 -16  -1    1.56    3.13
   7 -16   2    3.02    3.27
   7  16   2    3.63    3.78
  -7 -16  -2    3.94    4.92
   7 -16   2    1.48    3.01
  -7 -16  -2    2.75    1.87
   7 -16   3   23.60   23.75
   7  16   3   19.40   26.56
  -7 -16  -3   44.43   31.28
   7 -16   3   22.79   20.06
   7 -16   4   67.11   11.53
   7  16   4   77.96   16.08
  -7 -16  -4  415.53   60.41
   7 -16   5   10.40    6.15
   7  16   5    3.86    3.22
  -7 -16  -5    9.42    8.66
   7 -16   5    6.81    6.53
   7 -16   6    1.93    6.50
   7  16   6    0.38    3.51
  -7 -16  -6    2.42    5.17
   7 -16   6    0.50    1.86
   7  17  -2   61.80   11.08
  -7  17   2   49.02   10.59
  -7 -17   2   57.74   13.38
   7 -17  -2   59.09    8.39
   7  17  -1   16.02   24.42
  -7  17   1   20.89   17.22
  -7 -17   1   20.79   18.45
   7 -17  -1   16.03   18.23
   7  17   0   17.74   24.94
  -7  17   0   20.99   21.03
  -7 -17   0   20.31    8.61
   7 -17   0   13.30   15.95
   7  17   1   19.00   25.05
  -7  17  -1   28.96    8.81
  -7 -17  -1   26.48    8.68
   7 -17   1   12.79   16.32
   7  17   2   53.50   25.56
  -7  17  -2   61.38   18.34
  -7 -17  -2   60.68   12.83
   7 -17   2   56.55    8.23
   8   0 -18    7.79    8.72
  -8   0  18    4.78    3.44
   8   0 -17   10.87   10.45
  -8   0  17   17.16   14.56
   8   0 -16  139.39   16.27
  -8   0  16  171.01   17.62
   8   0 -15   68.34   27.74
  -8   0  15   68.48    8.88
   8   0 -14    7.67    6.51
  -8   0  14    5.28    4.07
   8   0 -13    4.35    6.20
  -8   0  13    2.17    4.84
   8   0 -12  754.42   47.67
  -8   0  12  782.60   23.45
   8   0 -11    1.18    3.60
  -8   0  11    4.02    6.14
   8   0 -10    0.11    2.74
  -8   0  10    1.74    3.77
   8   0  -9   94.15   11.07
  -8   0   9   72.20   11.20
   8   0  -8   98.40   10.11
  -8   0   8  104.60   12.35
   8   0  -7  314.10   19.79
  -8   0   7  314.60   20.59
   8   0  -6    1.07    3.31
  -8   0   6    1.54    3.53
   8   0  -5  431.15   24.24
  -8   0   5  431.96   24.08
   8   0  -4  743.78   23.48
  -8   0   4  722.08   24.55
   8   0  -3  638.84   13.48
  -8   0   3  628.26   14.50
   8   0  -2   18.15    4.32
  -8   0   2   15.85    3.62
   8   0  -1  129.34   11.58
  -8   0   1  129.38   11.10
   8   0   0  798.73   26.75
  -8   0   0  845.94   25.42
   8   0   1  131.04   12.89
   8   0   2   25.29   11.92
   8   0   3  658.72   16.86
   8   0   4  639.87   23.23
   8   0   5  443.94   15.62
   8   0   6    1.34    3.51
   8   0   7  328.05   22.90
   8   0   7  299.52   18.41
   8   0   8  105.99   13.03
   8   0   8   93.51    8.51
   8   0   9   72.35   11.20
   8   0  10    1.49    3.16
   8   0  11    2.64    3.41
   8   0  12  753.24   46.93
   8   0  13    2.21    5.12
   8   0  14    4.97    4.50
   8   0  16  155.47   16.24
   8   0  17    5.40   11.44
   8   0  18    4.07    7.98
   8  -1 -18   21.37   27.41
   8   1 -18   17.88   24.12
  -8   1  18   29.75   14.70
  -8  -1  18   29.31   16.99
   8  -1 -17    2.72    3.90
   8   1 -17    2.20    3.04
  -8   1  17    0.91    3.48
  -8  -1  17    4.11    4.85
   8  -1 -16  135.30   15.68
   8   1 -16  122.97   26.85
  -8   1  16  139.33   15.37
  -8  -1  16  127.21   14.34
   8  -1 -15   75.38   13.67
   8   1 -15   88.12   12.87
  -8   1  15   87.26    8.90
  -8  -1  15   73.16    9.62
   8  -1 -14   19.13   20.16
   8   1 -14   20.10   22.17
  -8   1  14   24.83   13.50
  -8  -1  14   29.50   13.92
   8  -1 -13   55.83   16.99
   8   1 -13   62.76   22.44
  -8   1  13   58.28    6.90
  -8  -1  13   48.24    8.76
   8  -1 -12    2.50    6.85
  -8   1  12    1.65    2.76
  -8  -1  12    1.47    4.95
   8  -1 -11   42.84   22.34
  -8   1  11   42.22    9.54
  -8  -1  11   32.65    6.18
   8  -1 -10  132.80   16.44
  -8   1  10  149.04   12.99
  -8  -1  10  143.72   17.96
   8  -1  -9  306.92   11.17
   8   1  -9  296.78   10.86
   8  -1  -9  318.87   16.97
  -8   1   9  312.50   13.77
  -8  -1   9  339.46   14.96
   8   1  -8  626.33   28.49
   8  -1  -8  567.91   30.44
  -8   1   8  635.86   31.55
  -8  -1   8  618.58   29.47
   8  -1  -7    7.82    4.30
   8   1  -7    9.11    5.39
   8  -1  -7    6.64    3.88
  -8   1   7    9.39    5.50
  -8  -1   7    7.94    4.31
   8  -1  -6  217.18   15.59
   8   1  -6  229.15    8.72
   8  -1  -6  210.96   16.49
  -8   1   6  229.34    9.04
  -8  -1   6  212.25   14.58
   8  -1  -5   33.02    4.87
   8   1  -5   35.33    8.60
  -8   1   5   40.00   15.56
  -8  -1   5   33.44   11.07
   8  -1  -4  460.33   11.23
   8   1  -4  482.27   12.60
  -8   1   4  468.88   11.34
  -8  -1   4  486.32   11.85
   8  -1  -3  584.54   20.14
   8   1  -3  598.20   15.64
  -8   1   3  642.35   14.02
  -8  -1   3  605.96   12.54
   8  -1  -2  228.23   13.67
   8   1  -2  270.08   15.63
  -8   1   2  259.53   14.23
  -8  -1   2  218.85   16.28
   8  -1  -1   91.81    9.84
   8   1  -1   91.71    8.79
  -8   1   1   86.32    7.94
  -8  -1   1   82.99    8.30
   8  -1   0   10.68    5.04
   8   1   0   11.29    7.42
  -8   1   0   11.21    6.47
   8  -1   1   90.10   11.87
   8   1   1   91.61   13.33
   8  -1   2  258.87   16.25
   8   1   2  233.28   14.16
   8  -1   2  257.68   14.63
   8  -1   3  612.01   16.37
   8   1   3  591.82   15.05
   8  -1   3  563.58   14.76
   8  -1   4  420.44   13.58
   8   1   4  381.85   13.22
   8  -1   4  448.40    9.13
   8  -1   5   37.38    6.34
   8   1   5   36.98   19.43
   8  -1   5   37.94    3.46
   8  -1   6  213.04   17.24
   8   1   6  208.38   15.89
   8  -1   6  217.83   13.65
   8  -1   7    9.14    6.54
   8   1   7    6.20    3.89
   8  -1   8  603.01   38.73
   8   1   8  615.64   31.14
   8  -1   9  307.25   18.06
   8   1   9  334.04   16.61
   8  -1  10  143.41   13.74
   8   1  10  146.27   13.56
   8  -1  11   44.50   24.59
   8   1  11   40.12   19.20
   8  -1  12    3.90    4.90
   8   1  12    3.05    4.95
   8  -1  13   57.34    8.09
   8   1  13   54.52   15.63
   8  -1  14   19.93   14.14
   8   1  14   28.72   12.07
   8   1  15   87.93    9.12
   8  -1  16  133.66   21.18
   8   1  16  125.76   18.07
   8  -1  17    2.34    3.24
   8   1  17    2.44    5.87
   8  -1  18   27.46    6.04
   8   1  18   13.26   23.28
   8  -2 -18   57.62   32.62
   8   2 -18   80.28   15.83
  -8   2  18   84.61   10.85
   8  -2 -17   19.18   20.11
   8   2 -17   20.78   20.83
  -8   2  17   19.61   11.64
  -8  -2  17   25.99   14.77
   8   2 -16    1.81    5.22
  -8   2  16    2.41    3.51
  -8  -2  16    2.87    1.97
   8  -2 -15   73.09   10.40
   8   2 -15   81.92   10.45
  -8   2  15   78.91   15.59
  -8  -2  15   73.53   11.06
   8  -2 -14  135.63   13.98
  -8   2  14  150.20   14.65
  -8  -2  14  130.22   11.87
   8  -2 -13  148.03   19.94
  -8   2  13  146.95   16.89
  -8  -2  13  148.76    9.62
   8  -2 -12   37.66   10.27
  -8   2  12   38.14   14.42
  -8  -2  12   31.85    6.84
   8  -2 -11   16.13    8.83
  -8   2  11   11.15    7.25
  -8  -2  11   13.77   12.07
   8  -2 -10  213.61   20.51
  -8   2  10  236.76   20.51
  -8  -2  10  233.57   20.62
   8  -2  -9  154.51    5.82
   8   2  -9  162.60    5.76
   8  -2  -9  163.89   14.03
  -8   2   9  159.58    9.53
  -8  -2   9  118.07   16.69
   8  -2  -8   72.15   14.59
   8   2  -8   78.22   10.05
   8  -2  -8   73.18   14.92
  -8   2   8   81.43    9.60
  -8  -2   8   78.97   10.45
   8  -2  -7  101.75   10.64
   8   2  -7   93.39   10.12
   8  -2  -7  102.94   13.28
  -8   2   7   87.50    9.88
  -8  -2   7   88.54   12.23
   8  -2  -6  959.18   37.83
  -8   2   6  987.08   36.00
  -8  -2   6  988.71   38.27
   8  -2  -5  101.88   11.53
   8   2  -5  107.54   12.95
   8  -2  -5   97.29   13.26
  -8   2   5  110.65    5.83
  -8  -2   5  103.67   11.95
   8  -2  -4  134.36   12.15
   8   2  -4  133.64   11.88
   8  -2  -4  128.64   12.64
  -8   2   4  135.32   11.47
  -8  -2   4  139.64   12.23
   8  -2  -3  752.08   24.10
   8   2  -3  757.32   26.41
   8  -2  -3  723.81   25.10
  -8   2   3  762.48   24.79
  -8  -2   3  745.76   23.64
   8  -2  -2  899.54   29.11
   8   2  -2  958.56   29.26
   8  -2  -2  906.60   28.45
  -8   2   2  973.28   29.68
  -8  -2   2  932.14   28.03
   8  -2  -1  325.82   19.19
   8   2  -1  348.28   17.37
   8  -2  -1  320.27   17.57
  -8   2   1  350.04    8.74
  -8  -2   1  326.38   19.45
   8  -2   0    0.79    3.31
   8   2   0    2.06    2.66
   8  -2   0    3.74    2.65
  -8   2   0    2.39    1.88
   8  -2   1  353.19   11.61
   8   2   1  330.68   21.96
   8  -2   1  334.80   17.89
   8  -2   2  959.34   31.75
   8   2   2  910.14   35.53
   8  -2   2  938.34   31.00
   8  -2   3  766.94   25.76
   8   2   3  761.17   26.03
   8  -2   3  774.80   28.11
   8  -2   4  138.67   14.93
   8   2   4  104.21   12.31
   8  -2   4  123.72   10.69
   8  -2   5  117.55   10.98
   8   2   5  107.28   15.46
   8  -2   5  100.47   10.77
   8  -2   6  949.00   46.35
   8   2   6  973.74   39.09
   8  -2   7   86.88   14.31
   8   2   7   94.04   11.73
   8  -2   7   86.73    8.18
   8  -2   8   76.75   10.39
   8   2   8   68.97   13.29
   8  -2   9  153.76   10.36
   8   2   9  150.14   10.14
   8  -2  10  233.68   21.13
   8   2  10  221.76   26.41
   8  -2  11   13.61   10.02
   8   2  11   13.04    8.85
   8  -2  12   30.29   14.82
   8   2  12   37.21   15.35
   8  -2  13  145.89   20.01
   8   2  13  152.64   13.11
   8  -2  14  153.41   14.49
   8   2  14  135.80   12.92
   8  -2  15   77.20    8.29
   8   2  15   68.70   16.17
   8  -2  16    2.86    3.78
   8   2  16    1.28    5.11
   8  -2  17   18.72   18.77
   8   2  17   18.03   16.85
   8  -3 -18   10.29   19.90
   8   3 -18   14.68   18.29
  -8   3  18   18.67   18.76
  -8  -3  18   21.50   18.82
   8  -3 -17   61.76   14.02
   8   3 -17   68.03   13.06
  -8   3  17   60.79    7.68
  -8  -3  17   62.28   11.03
   8  -3 -16   43.12   11.03
   8   3 -16   50.41   19.33
  -8   3  16   43.40   19.39
  -8  -3  16   41.58   16.62
   8  -3 -15    3.33    4.28
  -8   3  15    2.75    3.57
  -8  -3  15    6.86    4.46
   8  -3 -14   85.84   11.24
  -8   3  14   88.14    9.65
  -8  -3  14   77.69    7.89
   8  -3 -13   50.85    8.88
  -8   3  13   50.18   17.71
  -8  -3  13   43.71   23.33
   8  -3 -12   38.94   22.22
  -8   3  12   44.62   17.60
  -8  -3  12   40.26    7.01
   8  -3 -11   16.15   10.47
  -8   3  11    9.74    4.39
  -8  -3  11   19.16    9.82
   8  -3 -10   55.03   23.62
  -8   3  10   28.56    8.36
  -8  -3  10   41.47    6.31
   8  -3  -9   61.70    6.25
   8   3  -9   53.32    5.38
   8  -3  -9   73.06   11.17
  -8   3   9   58.62    6.32
  -8  -3   9   64.04    7.15
   8  -3  -8  185.47    7.00
   8   3  -8  189.39    9.70
   8  -3  -8  195.20   13.09
  -8   3   8  183.73   13.24
  -8  -3   8  190.11    9.06
   8  -3  -7  418.31   20.54
   8   3  -7  430.71   20.97
   8  -3  -7  405.95   23.42
  -8   3   7  440.26   22.10
  -8  -3   7  402.54   23.17
   8  -3  -6    1.40    4.04
   8   3  -6    2.97    2.26
   8  -3  -6    2.21    5.33
  -8   3   6    3.61    2.37
  -8  -3   6    2.11    3.91
   8   3  -5  604.94   24.08
   8  -3  -5  584.02   26.34
  -8   3   5  588.17   22.71
  -8  -3   5  507.09   26.03
   8  -3  -4   97.32   13.28
   8   3  -4  118.71   12.30
   8  -3  -4  101.99   12.58
  -8   3   4  110.92    7.95
  -8  -3   4   99.74   11.28
   8  -3  -3  178.46   11.56
   8   3  -3  145.42   12.84
   8  -3  -3  188.21   13.50
  -8   3   3  151.31   12.59
  -8  -3   3  122.71   11.59
   8  -3  -2  477.67   12.22
   8   3  -2  554.17   14.96
   8  -3  -2  486.57   14.84
  -8   3   2  554.07   13.81
  -8  -3   2  494.04   19.39
   8  -3  -1  115.11   10.62
   8   3  -1  114.74   10.89
   8  -3  -1  109.55   12.06
  -8   3   1  115.40   12.02
  -8  -3   1  112.52   10.31
   8  -3   0   36.46    9.17
   8   3   0   33.15    6.28
   8  -3   0   40.92    7.20
  -8   3   0   33.36   11.31
   8  -3   1  117.46   12.04
   8   3   1  113.81   11.62
   8  -3   1  114.00   11.29
  -8   3  -1  119.53   10.41
   8  -3   2  548.24   24.69
   8   3   2  493.09   14.30
   8  -3   2  537.59   13.20
   8  -3   3  148.75   15.52
   8   3   3  178.81   12.39
   8  -3   3  148.07   14.76
   8  -3   4  104.34   12.57
   8   3   4   72.81   10.04
   8  -3   4  109.99    7.55
   8  -3   5  513.12   23.84
   8   3   5  497.80   22.68
   8  -3   5  597.13   22.42
   8  -3   6    2.74    4.02
   8   3   6    1.72    6.47
   8  -3   6    2.19    1.30
   8  -3   7  423.11   23.27
   8   3   7  417.55   23.31
   8  -3   7  395.94   17.07
   8  -3   8  189.52   11.31
   8   3   8  205.94   12.17
   8  -3   9   55.84    8.01
   8   3   9   66.51    8.87
   8  -3  10   34.21    5.70
   8   3  10   48.61   19.16
   8  -3  11    7.94    3.50
   8   3  11   18.39   13.32
   8  -3  12   37.17   24.14
   8   3  12   39.79   23.88
   8  -3  13   55.35   10.79
   8   3  13   46.04    8.42
   8  -3  14   88.70   16.15
   8   3  14   85.54   10.06
   8  -3  15    2.37    5.25
   8   3  15    3.75    7.96
   8  -3  16   39.69    8.37
   8   3  16   44.40    8.74
   8  -3  17   62.81    8.38
   8   3  17   59.28   11.65
   8  -4 -18   -0.19    5.52
   8   4 -18    2.66    2.58
  -8  -4  18   -0.22    4.42
   8  -4 -17    2.06    4.39
  -8   4  17    4.27    6.74
  -8  -4  17    3.05    3.54
   8  -4 -16   37.16   18.62
  -8   4  16   44.28   16.69
  -8  -4  16   39.74   20.32
   8  -4 -15  118.45   22.20
  -8   4  15  126.64   15.05
  -8  -4  15  113.27   11.27
   8  -4 -14    9.09    6.38
  -8   4  14   10.88    8.66
   8  -4 -13  221.95   18.57
  -8   4  13  247.42   17.27
  -8  -4  13  214.21   15.44
   8  -4 -12   44.47   12.84
  -8   4  12   56.64   17.39
  -8  -4  12   48.39   21.28
   8  -4 -11  197.11   19.60
  -8   4  11  232.05   16.10
  -8  -4  11  188.77   21.90
   8   4 -10   28.42    3.98
   8  -4 -10   32.35   18.93
  -8   4  10   32.17    7.44
  -8  -4  10   31.84   18.38
   8  -4  -9  117.74    9.87
   8   4  -9  136.34   11.89
   8  -4  -9  125.27   13.28
  -8   4   9  133.12   11.54
  -8  -4   9  122.01   11.13
   8  -4  -8  351.31   16.47
   8   4  -8  347.63   13.49
   8  -4  -8  260.58   16.06
  -8   4   8  332.63   20.24
  -8  -4   8  332.96   14.28
   8  -4  -7   36.32    7.68
   8   4  -7   28.30    5.81
   8  -4  -7   48.76   18.74
  -8   4   7   30.65    5.10
  -8  -4   7   41.66   13.73
   8  -4  -6  103.46   12.33
   8   4  -6  105.01   11.34
   8  -4  -6  104.92   13.95
  -8   4   6  106.98   11.95
  -8  -4   6   97.82   10.90
   8  -4  -5    9.64    3.36
   8   4  -5   15.24    8.19
   8  -4  -5   12.47    8.47
  -8   4   5   15.73    7.97
  -8  -4   5    9.08    6.27
   8  -4  -4  588.77   24.99
   8   4  -4  644.13   26.39
   8  -4  -4  603.91   26.41
  -8   4   4  633.12   24.16
  -8  -4   4  565.56   22.91
   8  -4  -3  197.06   23.45
   8   4  -3   94.15   12.60
   8  -4  -3   94.73   12.53
  -8   4   3   98.82   12.15
  -8  -4   3   97.54   12.16
   8  -4  -2    3.06    4.16
   8   4  -2    1.41    2.66
   8  -4  -2    5.38    3.46
  -8   4   2    2.03    1.34
  -8  -4   2    1.69    1.78
   8  -4  -1  684.11   17.99
   8   4  -1  695.42   30.81
   8  -4  -1  690.50   23.87
  -8   4   1  738.58   22.32
  -8  -4   1  733.46   23.93
   8  -4   0  255.13   15.15
   8   4   0  259.52   17.40
   8  -4   0  254.23   15.20
  -8   4   0  256.80   14.69
   8  -4   1  681.26   18.12
   8   4   1  700.77   25.00
   8  -4   1  683.36   17.15
  -8   4  -1  687.99   14.70
   8  -4   2    3.48    3.70
   8   4   2    3.05    5.62
  -8  -4  -2    1.49    2.52
   8  -4   2    2.92    4.32
   8  -4   3  102.98   13.99
   8   4   3   99.36   13.98
  -8  -4  -3   92.16   10.04
   8  -4   3   93.22   15.79
   8  -4   4  546.80   25.02
  -8  -4  -4  631.27   24.00
   8  -4   4  616.42   26.18
   8  -4   5   13.24    6.32
   8   4   5   10.96    6.19
  -8  -4  -5   15.22    8.24
   8  -4   5   13.17    6.24
   8  -4   6  102.54   12.34
   8   4   6  104.34   18.16
  -8  -4  -6  107.62   11.10
   8  -4   6  107.50   10.60
   8  -4   7   33.41   14.92
   8   4   7   39.45   16.31
  -8  -4  -7   30.01    6.53
   8  -4   7   28.37    2.63
   8  -4   8  320.63   19.11
   8   4   8  356.96   17.23
  -8  -4  -8  344.83   13.60
   8  -4   9  137.29   13.43
   8   4   9  123.23   12.35
  -8  -4  -9  138.50   10.04
   8  -4  10   36.61   13.87
   8   4  10   34.95   23.05
  -8  -4 -10   27.07    3.49
   8  -4  11  228.04   17.73
   8   4  11  196.87   18.64
   8  -4  12   54.87   12.91
   8   4  12   50.26    8.18
   8  -4  13  217.57   16.53
   8   4  13  212.61   22.07
   8  -4  14    6.71   10.10
   8   4  14    7.85    7.37
   8  -4  15  141.45   20.63
   8   4  15  129.21   14.38
   8  -4  16   81.70   47.69
   8   4  16   43.78    7.16
   8  -4  17    6.83    4.87
   8   4  17    5.24    5.74
   8  -4  18    1.37    2.83
   8   4  18    1.59    2.51
   8  -5 -17   29.20   28.71
  -8  -5  17   35.59   17.60
   8  -5 -16   17.63    9.93
  -8   5  16   14.77   17.12
  -8  -5  16   18.07   11.19
   8  -5 -15   33.29   28.80
  -8   5  15   49.11   20.56
  -8  -5  15   39.81    6.12
   8  -5 -14   41.47   22.32
  -8   5  14   41.96   12.98
  -8  -5  14   39.05    8.45
   8  -5 -13   91.90   29.11
  -8   5  13  109.20   13.85
  -8  -5  13   93.58   13.31
   8  -5 -12   23.12   11.80
  -8   5  12   23.50   16.48
  -8  -5  12   24.15    8.82
   8  -5 -11  143.55   28.57
  -8   5  11  159.09   14.81
  -8  -5  11  165.19   17.31
   8   5 -10   20.89    7.32
   8  -5 -10   21.51   11.03
  -8   5  10   32.46   14.44
  -8  -5  10   16.03   10.09
   8  -5  -9   25.92    3.60
   8   5  -9   23.34    4.24
   8  -5  -9   26.99   15.97
  -8   5   9   19.70   10.82
  -8  -5   9   22.02   12.16
   8  -5  -8  163.16   15.93
   8   5  -8  155.16    9.24
   8  -5  -8  167.47   17.64
  -8   5   8  163.52   26.53
  -8  -5   8  153.90   12.80
   8  -5  -7  126.72   11.06
   8   5  -7  131.31    8.06
   8  -5  -7  124.96   16.98
  -8   5   7  117.41   15.68
  -8  -5   7  129.33    8.27
   8  -5  -6   61.40   17.33
   8   5  -6   47.19    6.09
   8  -5  -6   63.86   23.81
  -8   5   6   53.18   15.61
  -8  -5   6   68.43    7.87
   8  -5  -5  396.42   24.30
   8   5  -5  474.59   23.37
   8  -5  -5  384.38   21.53
  -8   5   5  467.44   22.10
  -8  -5   5  413.06   21.15
   8  -5  -4  201.86   17.70
   8   5  -4  203.75   18.12
   8  -5  -4  192.58   17.84
  -8   5   4  198.80   16.43
  -8  -5   4  200.75   19.80
   8  -5  -3   11.07    6.73
   8   5  -3   15.32    9.77
   8  -5  -3   13.38    7.10
  -8   5   3   13.31    6.17
  -8  -5   3    9.21    4.79
   8  -5  -2  118.25   14.01
   8   5  -2  138.35   12.73
   8  -5  -2  113.89   10.32
  -8   5   2  125.79   11.72
  -8  -5   2  134.62   12.34
   8  -5  -1  323.01   20.22
   8   5  -1  272.19   18.18
   8  -5  -1  273.14   19.67
  -8   5   1  270.66   15.52
  -8  -5   1  294.68   17.60
   8  -5   0  462.01   72.98
   8   5   0  101.12   15.04
  -8  -5   0  111.57   11.62
   8  -5   0   79.79    9.85
   8  -5   1  335.17   23.63
   8   5   1  268.14   22.30
  -8  -5  -1  283.61   17.58
   8  -5   1  269.46   16.91
   8  -5   2  141.53   12.50
   8   5   2  120.55   11.43
  -8  -5  -2  145.16   10.60
   8  -5   2  135.01   10.46
  -8   5  -2  120.63   10.42
   8  -5   3   15.94    9.60
   8   5   3   14.00    7.06
  -8  -5  -3   16.39    7.26
   8  -5   3   12.14    5.55
   8  -5   4  195.83   18.20
   8   5   4  143.81   17.01
  -8  -5  -4  199.86   16.92
   8  -5   4  197.91   18.60
   8  -5   5  424.06   28.29
   8   5   5  426.44   23.83
  -8  -5  -5  456.64   21.66
   8  -5   5  450.29   21.60
   8  -5   6   63.68   14.38
   8   5   6   58.56    8.76
  -8  -5  -6   46.00    4.70
   8  -5   6   44.75    4.34
   8  -5   7  122.82   16.37
   8   5   7  127.31   16.56
  -8  -5  -7  125.34   14.66
   8  -5   8  155.06   12.02
   8   5   8  169.69   17.34
  -8  -5  -8  147.80   12.95
   8  -5   9   23.88    7.02
   8   5   9   32.15   18.80
  -8  -5  -9   18.08    6.24
   8  -5  10   32.46   14.57
   8   5  10   20.12   14.35
  -8  -5 -10   19.42    4.14
   8  -5  11  179.28   21.29
   8   5  11  149.29   15.64
   8  -5  12   31.31   16.21
   8   5  12   31.05   20.48
   8  -5  13  223.85   31.33
   8   5  13  109.27   12.21
   8  -5  14   59.23   23.88
   8   5  14   44.99    7.20
   8  -5  15   49.28   30.84
   8   5  15   30.36   24.64
   8  -5  16   13.26   10.68
   8   5  16   19.15   15.02
   8  -5  17   36.42   18.45
   8   5  17   30.14   19.89
   8  -6 -17  106.24   17.13
  -8  -6  17  107.24   10.84
   8  -6 -16    2.86    4.11
  -8  -6  16    6.25    8.01
   8  -6 -15   27.58   20.68
  -8  -6  15   26.44    8.77
   8  -6 -14  149.53   17.67
  -8   6  14  142.31   17.48
  -8  -6  14  137.86   15.77
   8  -6 -13    2.22    4.30
  -8   6  13    1.35    2.25
  -8  -6  13    2.14    2.56
   8  -6 -12    9.49    6.97
  -8   6  12    7.04    4.47
  -8  -6  12    5.14    3.20
   8  -6 -11   16.42    8.83
  -8   6  11   18.71    9.80
  -8  -6  11   16.62   10.88
   8   6 -10  112.60    8.16
   8  -6 -10  127.10   19.79
  -8   6  10  123.26   16.65
  -8  -6  10  121.87   13.87
   8  -6  -9  385.18   21.59
   8   6  -9  433.26   21.02
   8  -6  -9  430.50   24.75
  -8   6   9  424.72   21.07
  -8  -6   9  406.99   22.03
   8  -6  -8   79.37    6.91
   8   6  -8   73.06    6.07
   8  -6  -8   77.25   26.97
  -8   6   8   68.99   17.62
  -8  -6   8   84.38    9.12
   8  -6  -7  175.76   16.55
   8   6  -7  183.14   16.75
   8  -6  -7  182.97   19.11
  -8   6   7  180.91   16.42
  -8  -6   7  174.09   15.73
   8  -6  -6    3.07    4.82
  -8   6   6    6.31    3.39
   8  -6  -5  238.58   20.29
   8   6  -5  269.44   15.97
   8  -6  -5  235.91   18.19
  -8   6   5  260.16   10.53
  -8  -6   5  250.77   12.14
   8  -6  -4   14.29    7.98
  -8   6   4   19.17    9.13
  -8  -6   4   20.88    4.95
   8  -6  -3  419.28   26.03
   8   6  -3  438.22   23.23
   8  -6  -3  417.57   23.49
  -8   6   3  411.11   21.41
  -8  -6   3  385.00   26.12
   8  -6  -2  555.48   29.21
   8   6  -2  506.57   25.84
  -8  -6   2  589.80   29.29
   8  -6  -2  534.17   29.07
  -8  -6   2  553.03   27.19
   8  -6  -1    9.98    4.48
   8   6  -1   12.27    8.64
  -8  -6   1   12.05    7.25
   8  -6  -1    9.86    6.64
  -8   6   1   13.08    6.21
  -8  -6   1   10.91    7.29
   8  -6   0    2.67    3.66
   8   6   0    1.22    4.03
  -8  -6   0    1.35    2.00
   8  -6   0    2.97    5.44
  -8   6   0    0.18    1.19
   8  -6   1   12.47    5.74
   8   6   1   13.31    8.39
  -8  -6  -1   13.47    5.00
   8  -6   1   12.26    9.59
  -8   6  -1   11.75    3.14
   8  -6   2  517.63   30.37
   8   6   2  525.88   32.60
  -8  -6  -2  514.59   25.28
   8  -6   2  507.31   27.09
  -8   6  -2  545.06   24.43
   8  -6   3  489.32   31.26
   8   6   3  419.11   23.17
  -8  -6  -3  419.68   21.59
   8  -6   3  418.11   24.89
  -8   6  -3  412.44   18.82
   8  -6   4   28.26   18.70
   8  -6   4   25.70    3.97
   8   6   5  241.65   15.30
  -8  -6  -5  254.50   10.48
   8  -6   5  254.96   11.41
   8  -6   6   14.37   10.91
   8   6   6    2.53    3.66
   8  -6   7  373.85   34.53
   8   6   7  187.25   18.30
  -8  -6  -7  182.55   15.65
   8  -6   7  188.43   15.35
   8  -6   8  145.38   49.01
   8   6   8   90.95    9.96
  -8  -6  -8   67.36    6.54
   8  -6   9  593.88   34.34
   8   6   9  436.60   25.36
  -8  -6  -9  406.96   19.80
   8  -6  10  163.16   19.71
   8   6  10  125.69   14.84
  -8  -6 -10  110.28    9.45
   8  -6  11   26.45   12.70
   8   6  11   18.54   11.56
   8  -6  12    8.29    9.46
   8   6  12    6.86    5.82
   8  -6  13    5.72    6.99
   8   6  13    2.62    4.00
   8  -6  14  126.30   16.13
   8   6  14  143.01   14.87
   8  -6  15   29.55   16.27
   8   6  15   24.51   16.11
   8  -6  16    6.01    4.54
   8   6  16    5.31    7.63
   8  -6  17  108.42   10.52
   8   6  17  104.90   11.52
   8  -7 -16   61.87   25.19
  -8  -7  16   71.90    9.94
   8  -7 -15   38.67   33.00
  -8  -7  15   42.66    6.53
   8  -7 -14    8.35    9.52
  -8  -7  14    4.47    2.70
   8  -7 -13   99.72   18.20
  -8   7  13  109.75    8.57
  -8  -7  13   97.01    8.67
   8  -7 -12   35.38   19.80
  -8   7  12   28.76   17.38
  -8  -7  12   34.71   18.57
   8  -7 -11  220.27   22.86
  -8   7  11  221.47   15.12
  -8  -7  11  206.80   14.63
   8   7 -10   68.33    9.27
  -8   7  10   58.49    7.64
   8  -7 -10   71.32   24.63
  -8   7  10   67.23   10.67
  -8  -7  10   68.99    9.48
   8  -7  -9  252.40   18.81
   8   7  -9  269.54   18.14
   8  -7  -9  239.72   30.32
  -8   7   9  276.31   18.82
  -8  -7   9  254.32   16.98
   8  -7  -8  307.03   21.02
   8   7  -8  265.31   17.92
   8  -7  -8  319.27   21.21
  -8  -7   8  279.62   20.96
   8  -7  -7  174.77   18.35
   8   7  -7  162.20   15.36
   8  -7  -7  176.96   18.16
  -8   7   7  155.67   13.60
  -8  -7   7  168.34   15.59
   8  -7  -6   10.86    5.41
   8   7  -6    6.56    5.45
   8  -7  -6    9.61    5.82
  -8   7   6    5.36    2.85
  -8  -7   6   11.20    7.18
   8  -7  -5  325.23   16.75
   8   7  -5  285.93   25.27
   8  -7  -5  287.58   25.21
  -8   7   5  306.24   11.78
  -8  -7   5  296.80   21.08
   8  -7  -4  444.12   21.00
   8   7  -4  415.47   18.94
  -8  -7   4  419.70   18.36
   8  -7  -4  392.25   35.29
  -8   7   4  430.50   17.54
  -8  -7   4  417.54   17.86
   8  -7  -3  479.56   32.15
   8   7  -3  495.15   24.65
  -8  -7   3  542.35   22.54
   8  -7  -3  510.63   23.45
  -8   7   3  503.75   18.67
  -8  -7   3  501.72   20.41
   8  -7  -2   14.72    8.11
   8   7  -2   11.30    7.35
  -8  -7   2   11.92    6.32
   8  -7  -2    4.11    5.22
  -8   7   2    7.91    3.79
   8  -7  -1  279.93   21.84
   8   7  -1  318.64   22.67
  -8  -7   1  278.17   27.02
   8  -7  -1  293.59   22.52
  -8   7   1  333.39   21.78
  -8  -7   1  282.40   20.52
   8  -7   0   19.10   10.66
   8   7   0   33.19   14.98
  -8  -7   0   30.59   12.21
   8  -7   0   17.61   14.55
  -8   7   0   19.50    4.65
   8  -7   1  329.39   24.03
   8   7   1  291.46   25.86
  -8  -7  -1  316.05   21.45
   8  -7   1  330.98   26.22
  -8   7  -1  286.47   17.85
   8  -7   2   15.73    6.61
   8   7   2   12.56    9.96
  -8  -7  -2    8.99    8.04
   8  -7   2   11.85    7.83
   8  -7   3  496.67   24.11
   8   7   3  515.65   23.05
  -8  -7  -3  509.05   19.92
   8  -7   3  499.67   20.45
  -8   7  -3  499.88   17.03
   8  -7   4  412.64   28.41
  -8  -7  -4  433.51   17.75
  -8   7  -4  402.83   13.09
   8  -7   5  293.40   26.43
   8   7   5  308.28   16.89
  -8  -7  -5  303.96   16.51
   8  -7   5  295.21   17.59
   8  -7   6    9.68    6.00
   8   7   6   12.65    5.66
  -8  -7  -6    5.33    2.15
   8  -7   6    5.73    3.40
   8  -7   7  164.55   25.92
   8   7   7  175.93   18.31
  -8  -7  -7  154.55   14.44
   8  -7   7  159.43   14.36
   8  -7   8  286.22   21.39
   8   7   8  294.34   30.71
  -8  -7  -8  286.84   17.39
   8  -7   9  260.90   19.70
   8   7   9  250.08   20.99
  -8  -7  -9  257.31   19.77
   8  -7  10   79.88   13.55
   8   7  10   76.71   15.61
  -8  -7 -10   65.00   12.13
   8  -7  11  211.84   18.78
   8   7  11  221.89   17.64
   8  -7  12   35.20   22.54
   8   7  12   41.22   23.01
   8  -7  13  108.93   35.04
   8   7  13   99.96    9.88
   8  -7  14    9.79    6.92
   8   7  14    7.50    8.31
   8  -7  15   45.19   30.22
   8   7  15   42.53   23.47
   8  -7  16   72.50   32.26
   8   7  16   73.01   12.81
   8  -8 -16   11.10   14.30
  -8  -8  16   13.61    9.57
   8  -8 -15   16.16   14.42
  -8  -8  15   22.09   13.84
   8  -8 -14    5.16    4.69
  -8  -8  14    5.44    3.13
   8  -8 -13  130.12   16.50
  -8  -8  13  122.61   17.80
   8  -8 -12  319.23   17.48
  -8  -8  12  323.29   14.46
   8  -8 -11  164.15   19.81
  -8   8  11  150.99   12.61
   8   8 -10    8.72    7.78
  -8   8  10    8.10    5.17
   8  -8 -10    9.01    6.44
  -8   8  10    9.35    6.40
  -8  -8  10   10.50    6.42
   8   8  -9   65.28    6.56
   8  -8  -9   72.49   11.40
  -8   8   9   62.02    7.83
  -8  -8   9   71.15   11.20
   8  -8  -8   86.73   14.32
   8   8  -8   87.17    7.65
   8  -8  -8   80.80   13.42
  -8  -8   8   83.11   10.13
   8  -8  -7    3.03    3.49
   8   8  -7    5.78    6.63
   8  -8  -7    3.33    4.07
  -8   8   7    8.46    2.98
  -8  -8   7    1.65    2.88
   8  -8  -6  128.57   17.62
   8   8  -6  145.36   12.15
   8  -8  -6  142.20   22.61
  -8   8   6  145.03   10.93
  -8  -8   6  133.90   10.77
   8  -8  -5   93.61    9.14
   8   8  -5   81.65    7.31
  -8  -8   5  102.78   10.96
   8  -8  -5  100.76   11.73
  -8   8   5   75.02    5.66
  -8  -8   5   94.05    9.17
   8  -8  -4  103.81   16.62
   8   8  -4  129.90   12.33
  -8  -8   4  103.36   11.39
   8  -8  -4   97.63   10.85
  -8   8   4  127.04   12.13
  -8  -8   4   93.83    7.64
   8  -8  -3   91.71   13.14
   8   8  -3   70.30   13.28
  -8  -8   3   86.13   11.53
   8  -8  -3   85.66   19.95
  -8   8   3   72.54   11.17
  -8  -8   3   74.04   12.53
   8  -8  -2  119.27   16.07
   8   8  -2  120.88   16.31
  -8  -8   2  113.00   15.66
   8  -8  -2  118.35   15.52
  -8   8   2  123.00   13.81
  -8  -8   2  122.18   14.93
   8  -8  -1  473.21   23.52
   8   8  -1  453.49   20.72
  -8  -8   1  465.15   19.78
   8  -8  -1  481.10   22.19
  -8   8   1  461.54   16.52
  -8  -8   1  455.38   25.93
   8  -8   0  445.44   21.48
   8   8   0  452.01   21.41
  -8  -8   0  457.01   19.66
   8  -8   0  450.72   20.34
  -8   8   0  454.91   16.72
   8  -8   1  439.27   25.37
   8   8   1  416.76   20.85
  -8  -8  -1  460.24   19.73
   8  -8   1  489.53   21.28
  -8   8  -1  436.24   15.44
   8  -8   2  112.70   14.78
   8   8   2  118.34   15.47
  -8  -8  -2  121.79   24.45
   8  -8   2  124.72   15.78
  -8   8  -2  103.18   12.31
   8  -8   3   89.11   17.48
   8   8   3   82.77   12.39
  -8  -8  -3   68.39   12.13
   8  -8   3   88.75   14.36
  -8   8  -3   85.33    9.76
   8  -8   4  121.93   12.79
   8   8   4   75.44   10.54
  -8  -8  -4  131.98   11.46
   8  -8   4  119.27   10.48
  -8   8  -4   91.02    3.86
   8  -8   5   79.50    8.78
   8   8   5   96.70   13.56
  -8  -8  -5   85.53   19.93
   8  -8   5   77.43    6.53
  -8   8  -5   88.72    5.07
   8  -8   6  155.25   13.91
   8   8   6  149.57   13.78
  -8  -8  -6  139.93   11.65
   8  -8   6  147.99   10.95
   8  -8   7    3.27    5.82
   8   8   7    4.58    4.89
  -8  -8  -7    6.04    4.35
   8  -8   7    5.45    2.94
   8  -8   8   90.95   12.71
   8   8   8   89.24    9.16
  -8  -8  -8  104.62   18.55
   8  -8   9   66.61    9.04
   8   8   9   71.65    9.63
  -8  -8  -9   77.91    7.93
   8  -8  10   11.09    6.85
   8   8  10    8.39    7.51
  -8  -8 -10   13.14    9.76
   8  -8  11  159.50   18.61
  -8  -8 -11  213.84   18.13
   8  -8  12  291.25   15.81
   8   8  12  331.86   17.82
   8  -8  13  123.58   16.53
   8   8  13  128.51   16.49
   8  -8  14   10.01    6.77
   8   8  14    8.29    7.03
   8  -8  15   21.11   10.02
   8   8  15   14.44   20.75
   8  -8  16   11.97    7.60
   8   8  16   14.72   10.85
   8  -9 -15    2.80    4.57
  -8  -9  15    5.04    3.42
   8  -9 -14   70.66    9.61
  -8  -9  14   67.95    7.66
   8  -9 -13    4.64    6.41
  -8  -9  13    1.48    3.82
   8  -9 -12    8.47    8.57
  -8  -9  12    9.49    4.97
   8  -9 -11   23.88   17.65
  -8  -9  11   24.90   12.94
   8   9 -10  138.22   12.09
  -8   9  10  119.24    9.76
   8  -9 -10  166.26   16.41
  -8  -9  10  147.48   10.11
   8   9  -9   91.70   11.60
  -8   9   9   86.01   11.21
   8  -9  -9   68.62   32.71
  -8  -9   9   81.63   13.42
   8  -9  -8   47.73    8.89
   8   9  -8   55.33   17.42
   8  -9  -8   57.99   16.41
  -8   9   8   59.45    6.85
  -8  -9   8   64.53   17.93
   8  -9  -7  263.80   20.74
   8   9  -7  242.59   17.69
   8  -9  -7  247.73   32.79
  -8   9   7  251.41   17.79
  -8  -9   7  253.63   17.71
   8  -9  -6   30.17   10.28
   8   9  -6   30.07   11.97
  -8  -9   6   29.01   18.59
   8  -9  -6   28.12   22.90
  -8   9   6   27.95    7.69
  -8  -9   6   27.59   15.56
   8  -9  -5   56.78   13.74
   8   9  -5   50.03   15.41
  -8  -9   5   51.37    8.27
   8  -9  -5   55.26   14.94
  -8   9   5   50.00    6.65
  -8  -9   5   53.31    6.18
   8  -9  -4  125.16   14.30
   8   9  -4  129.99   11.61
  -8  -9   4  111.41   12.34
   8  -9  -4  113.55   13.42
  -8   9   4  129.60   10.97
  -8  -9   4  112.01   11.90
   8  -9  -3   37.15   13.89
   8   9  -3   25.56   19.20
  -8  -9   3   37.99    5.79
   8  -9  -3   41.50   19.85
  -8   9   3   17.40    6.81
  -8  -9   3   34.15    6.20
   8  -9  -2  156.53   29.58
   8   9  -2  143.05   14.02
  -8  -9   2  144.07   12.69
   8  -9  -2  155.85   10.76
  -8   9   2  143.87   11.68
  -8  -9   2  141.78   11.98
   8  -9  -1   21.61   10.17
   8   9  -1   26.29   13.19
  -8  -9   1   20.08    6.37
   8  -9  -1   26.36   12.51
  -8   9   1   19.72    4.74
  -8  -9   1   19.32   12.76
   8  -9   0  160.20   18.65
   8   9   0  145.41   14.07
  -8  -9   0  140.63   13.74
   8  -9   0  144.95   17.85
   8  -9   1   32.69   14.07
   8   9   1   22.23   16.97
  -8  -9  -1   26.07    9.38
   8  -9   1   27.82   13.19
   8  -9   2  146.72   21.09
   8   9   2  139.10   17.37
  -8  -9  -2  143.09   12.36
   8  -9   2  148.77   13.22
   8  -9   3   22.94   11.01
   8   9   3   33.80   15.14
  -8  -9  -3   19.15    7.27
   8  -9   3   23.13   12.59
   8  -9   4  130.58   13.02
   8   9   4   67.97   12.26
  -8  -9  -4  130.60   12.10
   8  -9   4  126.80   12.88
   8  -9   5   50.08    8.04
   8   9   5   60.63   19.27
  -8  -9  -5   53.98   13.78
   8  -9   5   52.97    6.60
   8  -9   6   30.87    9.50
   8   9   6   26.92   16.42
  -8  -9  -6   35.16   11.11
   8  -9   6   35.62    7.93
   8  -9   7  244.87   19.39
   8   9   7  227.25   23.03
  -8  -9  -7  304.22   21.65
   8  -9   7  250.34   15.50
   8  -9   8   54.43    7.45
   8   9   8   71.84   11.82
  -8  -9  -8   83.92   24.37
   8  -9   9   82.26   25.75
   8   9   9   89.85   12.43
  -8  -9  -9  169.40   26.76
   8  -9  10  149.64   20.65
   8   9  10  161.11   25.88
  -8  -9 -10  393.76   39.92
   8  -9  11   25.13   15.51
   8   9  11   24.08   19.79
  -8  -9 -11  111.44   58.53
   8  -9  12    5.42    4.93
   8   9  12    3.77    4.06
   8  -9  13    4.81    4.71
   8   9  13    3.14    3.92
   8  -9  14   58.95   24.20
   8   9  14   63.51   14.78
   8  -9  15    4.67    4.54
   8   9  15    6.54    7.54
   8 -10 -14   18.62   24.46
  -8 -10  14   19.08    9.01
   8 -10 -13   34.27   27.66
  -8 -10  13   28.25   12.14
   8 -10 -12    5.69    5.56
  -8 -10  12    4.23    6.06
   8 -10 -11   30.02   23.14
  -8 -10  11   22.83   11.60
   8  10 -10  144.36    8.88
   8 -10 -10  148.25   18.07
  -8 -10  10  147.02   12.98
   8  10  -9   41.87   18.97
   8 -10  -9   34.85   19.20
  -8 -10   9   30.84   10.67
   8  10  -8    4.32    2.99
  -8  10   8    3.91    3.95
   8 -10  -8    5.54    8.02
  -8 -10   8    1.54    3.31
   8 -10  -7   19.24   13.70
   8  10  -7   17.43   15.52
  -8 -10   7   13.14   13.70
   8 -10  -7   18.87   14.88
  -8 -10   7   14.20   15.93
   8 -10  -6  355.66   32.63
   8  10  -6  383.20   31.20
  -8 -10   6  373.45   39.36
   8 -10  -6  364.04   34.81
  -8 -10   6  362.88   28.30
   8 -10  -5   75.10   22.33
   8  10  -5   87.52    8.53
  -8 -10   5   72.80   16.48
   8 -10  -5   63.05   10.05
  -8 -10   5   69.98    9.25
   8 -10  -4   30.86   14.77
   8  10  -4   12.26   16.70
  -8 -10   4   23.16   18.52
   8 -10  -4   22.48   11.92
  -8 -10   4   22.55   13.54
   8 -10  -3   46.39   16.63
   8  10  -3   37.86    6.00
  -8 -10   3   38.55   10.55
   8 -10  -3   40.46    7.33
  -8 -10   3   41.56    5.80
   8 -10  -2  133.31   15.08
   8  10  -2  124.16   14.53
   8 -10  -2  135.54   16.36
  -8 -10   2  134.64   11.61
   8 -10  -1   71.72   17.92
   8  10  -1   77.92   12.97
  -8 -10   1   58.46    9.47
   8 -10  -1   54.12   25.39
  -8 -10   1   67.27    7.06
   8 -10   0    4.28    3.37
   8  10   0    6.96    5.79
  -8 -10   0    5.96    2.96
   8 -10   0    4.72    7.11
   8 -10   1   72.99   22.63
   8  10   1   72.33    8.84
  -8 -10  -1   73.36   10.41
   8 -10   1   69.74   14.75
   8 -10   2  145.77   18.00
   8  10   2  119.51   15.83
  -8 -10  -2  126.91   33.95
   8 -10   2  115.01   18.55
   8 -10   3   38.28   10.26
   8  10   3   42.10   11.93
  -8 -10  -3   39.11    8.41
   8 -10   3   37.02    5.93
   8 -10   4   15.49   16.33
   8  10   4   15.61   12.58
  -8 -10  -4   14.12    6.28
   8 -10   4   14.67    8.92
   8 -10   5   74.18   18.70
   8  10   5   64.90   21.78
  -8 -10  -5   87.58    8.93
   8 -10   5   78.14    9.87
   8 -10   6  375.10   34.98
   8  10   6  377.55   32.14
  -8 -10  -6  463.95   37.57
   8 -10   6  361.93   29.92
   8 -10   7   16.72    8.35
   8  10   7   18.72   14.17
  -8 -10  -7   32.96   13.75
   8 -10   7   17.24    5.65
   8 -10   8    4.80    4.55
   8  10   8    2.90    3.80
  -8 -10  -8   20.89    9.84
   8 -10   9   45.73   24.67
   8  10   9   31.96   22.73
  -8 -10  -9  251.80   50.31
   8 -10  10  142.65   14.95
   8  10  10  134.96   12.29
   8 -10  11   19.04   10.44
   8  10  11   15.10   16.72
  -8 -10 -11   19.24   11.46
   8 -10  12    4.41    6.24
   8  10  12    7.16    3.38
   8 -10  13   44.14   16.39
   8  10  13   31.05   23.28
   8 -10  14   23.47   13.05
   8  10  14   20.18   23.71
   8 -11 -14   12.91   21.80
  -8 -11  14   15.15    8.83
   8 -11 -13   15.32   19.42
  -8 -11  13   12.92    7.57
   8 -11 -12   51.50   11.63
  -8 -11  12   57.44    8.70
   8 -11 -11   10.43    9.49
  -8 -11  11   14.92   10.66
   8  11 -10   39.63    6.17
   8 -11 -10   44.09   30.85
  -8 -11  10   46.62    7.31
   8  11  -9   76.53    8.55
  -8  11   9   61.43   11.44
   8 -11  -9   80.22   15.67
  -8 -11   9   76.80    7.69
   8  11  -8  108.12    8.65
  -8  11   8   99.68    9.01
   8 -11  -8   83.57   34.14
  -8 -11   8  105.20    7.54
   8  11  -7   20.29   12.88
  -8 -11   7   28.16   17.56
   8 -11  -7   25.44   15.53
  -8 -11   7   29.58   14.91
   8 -11  -6    6.80    3.94
   8  11  -6    8.22    5.93
  -8 -11   6    7.21    4.91
   8 -11  -6   -1.77    4.84
  -8 -11   6    6.05    4.20
   8 -11  -5   22.01   14.37
   8  11  -5   18.07   18.81
  -8 -11   5   16.38   11.24
   8 -11  -5   20.96   14.23
  -8 -11   5   19.42    7.17
   8 -11  -4  132.02   14.62
   8  11  -4  130.16   14.16
  -8 -11   4  141.53   14.02
   8 -11  -4  125.58   14.42
  -8 -11   4  140.77   13.01
   8 -11  -3  101.85   11.17
   8  11  -3  118.45   31.29
  -8 -11   3  104.42    9.01
   8 -11  -3   98.79   12.83
  -8 -11   3   92.12    8.95
   8 -11  -2  148.41   14.52
   8  11  -2  134.09   19.37
  -8 -11   2  134.80   13.02
   8 -11  -2  150.66   14.74
  -8 -11   2  157.20   14.81
   8 -11  -1   75.64   24.61
   8  11  -1   80.04    9.98
  -8 -11   1   78.60    8.65
   8 -11  -1   76.95    9.21
  -8 -11   1   85.88    8.50
   8 -11   0  126.05   13.15
   8  11   0  128.99   13.48
  -8 -11   0  114.79   11.67
   8 -11   0  133.67   18.04
  -8 -11   0  137.97   18.86
   8 -11   1   78.23   19.43
   8  11   1   76.56    9.79
  -8 -11  -1   80.13   10.66
   8 -11   1   80.96    9.15
   8 -11   2  140.85   18.32
   8  11   2  156.82   17.11
  -8 -11  -2  125.39   12.41
   8 -11   2  138.65   13.25
   8 -11   3  117.60   17.04
   8  11   3  106.61   13.48
  -8 -11  -3  106.91   23.48
   8 -11   3  120.71   12.72
   8 -11   4  117.48   27.49
   8  11   4   96.40   15.77
  -8 -11  -4  138.41   29.83
   8 -11   4  127.03   16.21
   8 -11   5   20.93    8.25
   8  11   5   14.70   15.77
  -8 -11  -5   29.04    7.67
   8 -11   5   16.94   11.71
   8 -11   6    2.67    3.16
   8  11   6    7.96    7.44
  -8 -11  -6    7.24    5.21
   8 -11   6    2.81    2.26
   8 -11   7   20.01    8.56
   8  11   7   21.85   20.44
  -8 -11  -7   39.10   18.00
   8 -11   7   19.96    5.60
   8 -11   8  112.23   12.64
   8  11   8   92.15   10.84
   8 -11   9   76.28   24.29
   8  11   9   68.60   12.04
  -8 -11  -9  182.03   46.30
   8 -11  10   39.23   25.54
   8  11  10   45.10   11.52
  -8 -11 -10   72.52   22.78
   8 -11  11   12.29    8.41
   8  11  11   11.91    9.59
  -8 -11 -11   15.23    7.75
   8 -11  12   60.39   23.68
   8  11  12   54.24   10.06
   8 -11  13   12.11    7.30
   8  11  13   14.69   14.79
   8 -11  14   13.74   13.28
   8  11  14   11.66   22.05
   8 -12 -12   95.43   19.80
  -8 -12  12   96.80   10.63
   8 -12 -11   12.46   15.97
  -8 -12  11   10.48    8.05
   8  12 -10    2.21    2.65
   8 -12 -10    3.23    5.24
  -8 -12  10    1.15    3.47
   8  12  -9   33.59   13.73
  -8  12   9   35.96   12.06
   8 -12  -9   53.47   13.33
  -8 -12   9   48.39    6.17
   8  12  -8   17.70    7.79
  -8  12   8   14.50    9.48
  -8 -12   8   19.55   14.24
   8 -12  -8   14.21   12.36
  -8 -12   8   15.84   10.02
   8  12  -7   34.51   13.55
  -8  12   7   29.25   12.65
  -8 -12   7   26.66   15.45
   8 -12  -7   28.05   19.10
  -8 -12   7   27.83   15.23
   8 -12  -6    4.24    5.21
   8  12  -6    2.47    2.32
  -8 -12   6    3.46    4.27
   8 -12  -6    4.35    6.01
  -8 -12   6    2.15    4.44
   8 -12  -5   12.54    5.43
   8  12  -5   14.48    9.43
  -8 -12   5   12.90    6.39
   8 -12  -5   18.01   12.73
  -8 -12   5   14.78    8.92
   8 -12  -4   43.71   23.02
   8  12  -4   28.25   10.93
  -8 -12   4   47.42   26.71
   8 -12  -4   43.89    7.46
  -8 -12   4   45.98    5.47
   8 -12  -3   42.89   16.84
   8  12  -3   40.11   17.00
  -8 -12   3   47.39   13.76
   8 -12  -3   58.18    8.04
  -8 -12   3   52.71   14.36
   8 -12  -2   22.34   12.98
   8  12  -2   23.09   24.08
  -8 -12   2   16.10    9.29
   8 -12  -2   20.86   10.48
  -8 -12   2   20.90   11.53
   8 -12  -1   35.27   18.32
   8  12  -1   40.72   26.09
  -8 -12   1   39.76   15.92
   8 -12  -1   36.25   23.89
  -8 -12   1   35.44    5.23
   8 -12   0  511.04   22.65
   8  12   0  508.59   19.36
  -8 -12   0  470.25   42.63
   8 -12   0  502.06   18.27
  -8 -12   0  501.22   23.69
   8 -12   1   42.01   16.09
   8  12   1   37.28   19.08
  -8 -12  -1   37.52   18.49
   8 -12   1   29.10   14.79
   8 -12   2   25.69   12.57
   8  12   2   16.96   12.13
  -8 -12  -2   20.47    9.38
   8 -12   2   20.34   12.37
   8 -12   3   58.94   25.36
   8  12   3   51.66   10.43
  -8 -12  -3   55.67   19.32
   8 -12   3   50.15    6.82
   8 -12   4   37.69   20.67
   8  12   4   42.32   18.17
  -8 -12  -4   28.14   10.99
   8 -12   4   25.54    4.81
   8 -12   5   21.55   10.80
   8  12   5   13.13   12.56
  -8 -12  -5   18.30   12.07
   8 -12   5   12.95    8.37
   8 -12   6    6.13    4.72
   8  12   6    1.42    3.65
  -8 -12  -6    2.65    4.35
   8 -12   6    1.61    3.83
   8 -12   7   30.47   19.54
   8  12   7   24.98   19.51
  -8 -12  -7  102.27   37.60
   8 -12   8   23.13   12.49
   8  12   8   19.92   18.13
  -8 -12  -8   59.37   30.93
   8 -12   9   45.65   31.08
   8  12   9   44.11   35.68
  -8 -12  -9   67.08   30.45
   8 -12  10    1.86    3.48
   8  12  10    2.82    2.72
  -8 -12 -10    2.98    4.48
   8 -12  11    7.49    7.72
   8  12  11    8.83   11.67
  -8 -12 -11   13.61    6.45
   8 -12  12  115.98   40.50
   8  12  12  106.08   13.53
   8 -13 -11   59.02   28.73
  -8 -13  11   60.99    6.71
   8  13 -10   36.24    8.65
   8 -13 -10   57.90   11.69
  -8 -13  10   45.17   18.90
   8  13  -9   29.44   13.67
  -8  13   9   26.52   11.22
   8 -13  -9   27.05   26.65
  -8 -13   9   35.51   15.96
   8  13  -8   96.48   12.07
  -8  13   8   95.52   11.09
  -8 -13   8   97.22   18.90
   8 -13  -8  101.80   13.58
  -8 -13   8   96.79   11.07
   8  13  -7    6.46    4.52
  -8  13   7    8.95    8.78
  -8 -13   7    8.67    7.60
   8 -13  -7   12.14    6.77
  -8 -13   7    8.46    4.34
   8  13  -6  132.40   14.54
  -8  13   6  109.69    9.24
  -8 -13   6  118.00   14.42
   8 -13  -6  127.84   24.59
  -8 -13   6  123.73   12.94
   8 -13  -5    6.41    6.06
   8  13  -5    2.82    2.87
  -8 -13   5    6.12    4.48
   8 -13  -5    2.28    4.51
  -8 -13   5    9.80    7.31
   8 -13  -4  169.81   20.98
   8  13  -4  189.43   22.00
  -8 -13   4  174.78   16.47
   8 -13  -4  195.28   18.95
  -8 -13   4  185.30   16.37
   8 -13  -3   61.26   18.19
   8  13  -3   54.47    9.73
  -8 -13   3   60.34   18.09
   8 -13  -3   54.61   23.48
   8 -13  -2   41.82   17.15
   8  13  -2   43.09    7.38
  -8 -13   2   43.46   17.02
   8 -13  -2   43.42   27.24
   8 -13  -1   84.42   12.95
   8  13  -1   88.25   13.04
  -8 -13   1   78.43    9.69
   8 -13  -1   87.49   10.96
  -8 -13   1   76.33    7.20
   8 -13   0    1.86    3.81
   8  13   0    1.56    4.55
  -8 -13   0    1.60    2.60
   8 -13   0    5.69    5.71
  -8 -13   0    4.32    3.40
   8 -13   1   90.65   10.79
   8  13   1   83.54   11.88
  -8 -13  -1   96.72    9.57
   8 -13   1   94.71   11.30
   8  13   2   40.49    9.55
  -8 -13  -2   43.23   22.53
   8 -13   2   40.41    6.18
   8 -13   3   60.05   10.56
   8  13   3   66.76   10.23
  -8 -13  -3   61.11    7.66
   8 -13   3   54.99    6.44
   8 -13   4  191.65   19.18
   8  13   4  160.56   17.91
  -8 -13  -4  181.86   16.83
   8 -13   4  188.43   17.65
   8 -13   5    7.35    7.29
   8  13   5    6.12    6.75
  -8 -13  -5    9.05    7.71
   8 -13   5    4.01    5.96
   8 -13   6  118.01   13.93
   8  13   6  124.48   14.70
  -8 -13  -6  226.38   24.09
   8 -13   6  123.49   13.02
   8 -13   7    9.31    7.98
   8  13   7   10.11    8.49
  -8 -13  -7   24.08   19.28
   8 -13   8  104.08   17.79
   8  13   8   91.54   12.64
  -8 -13  -8  232.89   36.63
   8 -13   9   31.82   21.14
   8  13   9   42.05   11.15
  -8 -13  -9   59.73   27.75
   8 -13  10   42.16   10.27
   8  13  10   38.95   32.85
  -8 -13 -10   48.93   24.82
   8 -13  11   63.40   11.12
   8  13  11   59.88   21.54
  -8 -13 -11   66.80   20.96
   8 -14 -10   39.18   19.38
  -8 -14  10   64.30    7.69
   8  14  -9   47.99   17.66
  -8  14   9   53.95    7.06
  -8 -14   9   41.92    7.64
   8 -14  -9   35.22   28.50
  -8 -14   9   41.53   15.79
   8  14  -8    7.01    9.06
  -8  14   8    7.36    8.64
  -8 -14   8    7.80    7.46
   8 -14  -8   11.78   10.64
  -8 -14   8    9.09    5.28
   8  14  -7    7.78   12.80
  -8  14   7   10.57   10.39
  -8 -14   7    7.58    5.39
   8 -14  -7    5.53    6.70
  -8 -14   7    6.52    7.35
   8  14  -6   30.64   12.73
  -8  14   6   34.34   11.46
  -8 -14   6   33.51   20.50
   8 -14  -6   32.53   18.62
  -8 -14   6   35.80   11.50
   8  14  -5   35.42   12.85
  -8  14   5   37.93   13.19
  -8 -14   5   39.25   22.73
   8 -14  -5   35.26   16.28
  -8 -14   5   36.92   17.76
   8  14  -4   14.04   10.86
  -8 -14   4   18.38    9.90
   8 -14  -4   15.61   13.12
  -8 -14   4   19.54   17.47
   8 -14  -3  137.20   15.41
   8  14  -3  112.15   19.06
  -8 -14   3  133.90   14.55
   8 -14  -3  119.94   13.26
  -8 -14   3  131.62   13.28
   8 -14  -2   60.89   19.47
   8  14  -2   76.30   11.83
  -8 -14   2   61.75   23.12
   8 -14  -2   68.96    9.17
  -8 -14   2   64.06    6.56
   8 -14  -1    5.51    5.46
   8  14  -1    3.52    6.05
  -8 -14   1    8.24    5.72
   8 -14  -1    8.91    6.25
  -8 -14   1    9.51    4.61
   8 -14   0   12.03    9.53
   8  14   0    9.17   11.93
  -8 -14   0   11.62    7.03
   8 -14   0    7.67    9.11
  -8 -14   0    8.43    8.53
   8 -14   1    3.03    4.22
   8  14   1    5.68    6.91
  -8 -14  -1    7.34    3.60
   8 -14   1    4.74    6.79
  -8 -14  -1    6.93    7.08
   8 -14   2   74.40   27.01
   8  14   2   56.32   24.35
  -8 -14  -2   75.01   26.02
   8 -14   2   72.92    8.69
   8 -14   3  130.84   15.75
   8  14   3  121.28   18.41
  -8 -14  -3  114.60   15.91
   8 -14   3  117.26   11.34
   8 -14   4   23.40   10.37
   8  14   4   13.43   14.95
  -8 -14  -4   20.41    6.21
   8 -14   4    9.00   13.39
   8 -14   5   41.59   21.41
   8  14   5   39.97    9.33
  -8 -14  -5   45.53   17.85
   8 -14   5   31.04   12.57
   8 -14   6   30.52   23.79
   8  14   6   44.01    9.46
  -8 -14  -6   56.39   36.18
   8 -14   6   30.57   13.35
   8 -14   7   12.10    9.09
   8  14   7    3.65    6.10
  -8 -14  -7   26.30   15.00
   8 -14   8    9.51    7.76
   8  14   8   10.11    9.41
  -8 -14  -8   32.61   20.17
   8 -14   9   48.90   20.62
   8  14   9   47.13   10.59
  -8 -14  -9   82.55   18.57
   8 -14  10   41.56   24.88
   8  14  10   67.00   16.54
  -8 -14 -10   69.08   21.71
  -8  15   8    7.45   10.43
  -8 -15   8   10.24   11.44
   8 -15  -8    5.43    6.08
   8  15  -7   59.03   17.50
  -8  15   7   68.14    8.28
  -8 -15   7   59.53   28.31
   8 -15  -7   60.21    9.98
   8  15  -6    0.86    4.05
  -8  15   6    0.50    3.35
   8 -15  -6    4.60    4.85
  -8 -15   6    2.53    3.08
  -8  15   5   49.43    9.65
  -8 -15   5   63.47    7.80
   8 -15  -5   54.06   10.64
  -8 -15   5   59.54    5.99
   8  15  -4   11.15   12.90
  -8  15   4   10.82   10.46
  -8 -15   4   17.68   11.33
   8 -15  -4   13.92   15.52
  -8 -15   4   18.71    7.88
   8  15  -3    7.17    7.02
  -8  15   3    7.27    7.12
  -8 -15   3   10.66   10.74
   8 -15  -3    9.23    6.15
  -8 -15   3    8.22    7.98
   8 -15  -2   12.82   10.25
   8  15  -2   12.91   14.70
  -8 -15   2   12.84   10.73
   8 -15  -2    8.49   10.09
  -8 -15   2   11.32    8.84
   8 -15  -1   57.33   30.08
   8  15  -1   70.10    9.74
  -8 -15   1   57.53   10.18
   8 -15  -1   57.66   15.35
  -8 -15   1   52.73   19.23
   8 -15   0   57.03   19.33
   8  15   0   66.25   12.68
  -8 -15   0   55.33   20.67
   8 -15   0   55.45    9.56
  -8 -15   0   55.80   10.87
   8 -15   1   61.97   32.26
   8  15   1   45.51   33.96
  -8 -15  -1   59.74   17.99
   8 -15   1   64.98   13.46
  -8 -15  -1   65.95    9.20
   8 -15   2   16.61   14.09
   8  15   2   13.32    7.65
  -8 -15  -2    9.33    8.04
   8 -15   2   17.33   11.47
   8 -15   3   12.55    8.29
   8  15   3   11.53    8.98
  -8 -15  -3   16.66    7.18
   8 -15   3    4.34    9.00
   8 -15   4   21.55    9.77
   8  15   4   13.07   22.72
  -8 -15  -4   24.58    8.34
   8 -15   4   11.26   11.61
   8 -15   5   55.47   19.50
   8  15   5   53.79    8.57
  -8 -15  -5   53.76   22.93
   8 -15   5   54.84    6.95
  -8 -15  -6    3.55    9.37
   8 -15   6    1.47    2.48
   8 -15   7   73.66   14.79
   8  15   7   58.57   11.48
  -8 -15  -7  174.59   21.34
  -8 -15  -8   87.70   41.37
  -8 -16   5   -1.31    4.29
   8 -16  -5    3.42    4.20
   8  16  -4   17.85   22.15
  -8  16   4   15.15   20.87
  -8 -16   4   26.40   16.72
   8 -16  -4   17.61   22.13
   8  16  -3   65.54   15.72
  -8  16   3   60.26   13.45
  -8 -16   3   61.54    9.31
   8 -16  -3   67.28   26.74
   8  16  -2    4.89    6.48
  -8 -16   2    6.42    4.53
   8 -16  -2    1.81    3.25
   8  16  -1  104.45   13.46
  -8 -16   1   97.03   14.89
   8 -16  -1   91.96   16.86
  -8 -16   1   96.58   11.11
   8 -16   0    4.66    5.33
   8  16   0    4.35    3.08
  -8 -16   0    4.10    6.93
   8 -16   0    5.39    6.72
  -8 -16   0    4.85    2.99
   8 -16   1  103.54   13.21
   8  16   1  102.55   13.44
  -8 -16  -1  101.66   32.12
   8 -16   1  105.82   12.34
  -8 -16  -1   85.47   15.06
   8  16   2    3.17    6.27
  -8 -16  -2    2.42    4.86
   8 -16   2    7.65    4.39
  -8 -16  -2    3.63    6.68
   8 -16   3   52.66   29.03
   8  16   3   68.97   11.58
  -8 -16  -3   70.48   20.47
   8 -16   3   68.21    9.07
   8 -16   4   23.19   20.59
   8  16   4   12.55   22.59
  -8 -16  -4   28.84   13.16
   8 -16   4   20.44   12.53
  -8 -16  -5    2.94    2.36
   8 -16   5    2.37    3.55
   9   0 -18    1.70    3.14
  -9   0  18   -0.50    4.09
   9   0 -17   25.39   23.73
  -9   0  17   30.13   14.45
   9   0 -16   89.52   15.48
  -9   0  16   95.30   11.52
   9   0 -15   30.72   15.50
  -9   0  15   32.13   16.09
   9   0 -14    2.44    3.89
  -9   0  14    1.08    4.59
   9   0 -13   11.43    8.49
  -9   0  13    4.46    6.01
   9   0 -12    2.75    3.74
  -9   0  12    2.17    4.24
   9   0 -11   52.39   18.72
  -9   0  11   61.28   11.31
   9   0 -10   34.38   19.98
  -9   0  10   30.44   12.03
   9   0  -9  235.45   19.98
  -9   0   9  241.93   27.60
   9   0  -8  632.56   24.24
  -9   0   8  652.77   25.80
  -9   0   7  536.01   21.06
   9   0  -6   37.47    8.21
  -9   0   6   36.71   11.51
   9   0  -5   51.56    5.87
  -9   0   5   49.22   11.80
   9   0  -4  805.54   30.80
  -9   0   4  818.23   31.48
   9   0  -3   75.80   10.44
  -9   0   3   78.07   13.36
   9   0  -2   52.80    8.16
  -9   0   2   51.28    6.92
  -9   0   1   23.69   10.63
   9   0   0    0.01    2.79
  -9   0   0    1.69    1.83
   9   0   1   28.37    9.66
   9   0   2   55.11    8.18
   9   0   3   86.43   17.05
   9   0   4  828.00   40.50
   9   0   5   54.86    8.49
   9   0   6   44.49   21.43
   9   0   6   39.15    4.29
   9   0   7  531.01   29.98
   9   0   7  492.71   17.58
   9   0   8  616.22   32.39
   9   0   9  245.29   22.24
   9   0  10   31.24   14.69
   9   0  11   58.51   20.47
   9   0  12    4.64    6.12
   9   0  13    6.47    6.42
   9   0  14    3.23    4.15
   9   0  15   27.18   23.06
   9   0  16   94.75   12.22
   9   0  17   29.36    6.04
   9   0  18    3.92    6.57
  -9   1  18   19.65   12.63
  -9  -1  18   20.44   18.65
   9  -1 -17   57.37    9.47
   9   1 -17   47.42   10.85
  -9   1  17   44.93   28.23
  -9  -1  17   41.48    6.54
   9  -1 -16   65.00   12.27
   9   1 -16   47.00   12.10
  -9   1  16   65.43   12.34
  -9  -1  16   59.69   22.86
   9  -1 -15    2.86    3.35
   9   1 -15    1.09    2.56
  -9   1  15    3.83    4.23
  -9  -1  15   -0.95    3.67
   9  -1 -14   14.83    9.16
   9   1 -14   10.64    8.43
  -9   1  14   15.06    6.10
  -9  -1  14    8.62    6.16
   9  -1 -13   84.76   11.76
   9   1 -13  107.55   16.42
  -9   1  13  104.38   10.43
  -9  -1  13   91.00    9.60
   9  -1 -12  150.79   15.70
   9   1 -12  162.05   17.00
  -9   1  12  153.73   14.41
  -9  -1  12  135.30   18.90
   9  -1 -11  313.62   22.72
  -9   1  11  312.54   20.12
  -9  -1  11  316.63   21.15
   9  -1 -10   19.83   14.07
  -9   1  10   19.06    8.38
  -9  -1  10   23.05   12.49
   9  -1  -9   57.70    4.46
   9   1  -9   48.26    3.76
   9  -1  -9   55.77   10.40
  -9   1   9   51.16   15.18
  -9  -1   9   57.11    8.12
   9  -1  -8   70.01    9.62
   9   1  -8   69.63    9.93
   9  -1  -8   65.72   11.58
  -9   1   8   68.19   11.38
  -9  -1   8   63.36    9.76
   9  -1  -7  161.21   11.36
  -9   1   7  148.56   13.90
  -9  -1   7  167.99   15.11
   9  -1  -6  237.39   16.28
   9   1  -6  240.76   16.72
   9  -1  -6  230.51   21.73
  -9   1   6  237.88   16.15
  -9  -1   6  229.59   16.11
   9  -1  -5  344.63   23.06
   9   1  -5  385.88   19.40
   9  -1  -5  371.09   21.46
  -9   1   5  355.83   22.66
  -9  -1   5  364.11   11.21
   9  -1  -4  301.45   17.99
   9   1  -4  314.48   18.87
  -9   1   4  308.56   18.18
  -9  -1   4  296.92   17.68
   9  -1  -3  104.32   13.25
   9   1  -3  105.03   12.17
  -9   1   3  119.95    9.28
  -9  -1   3  110.33    6.67
   9  -1  -2   69.75    8.80
   9   1  -2   76.63    9.62
  -9   1   2   75.72   11.14
  -9  -1   2   67.86    8.35
   9  -1  -1  432.93   25.18
   9   1  -1  489.92   21.39
  -9   1   1  474.22   19.98
  -9  -1   1  440.86   12.15
   9  -1   0  342.60   21.02
   9   1   0  366.06   22.26
  -9   1   0  363.17   20.25
  -9  -1   0  361.83   20.58
   9  -1   1  469.73   25.07
   9   1   1  418.75   27.60
   9  -1   1  477.59   21.89
   9  -1   2   80.69   10.23
   9   1   2   68.85   10.12
   9  -1   2   81.98    9.85
   9  -1   3  107.75   13.06
   9   1   3  110.82    8.77
   9  -1   3  104.81   11.88
   9  -1   4  318.54   20.53
   9   1   4  314.57   22.23
   9  -1   4  295.31   17.68
   9  -1   5  356.51   27.30
   9   1   5  355.79   24.72
   9  -1   5  351.46   22.19
   9  -1   6  248.24   20.97
   9   1   6  225.92   14.84
   9  -1   6  235.64   15.24
   9  -1   7  137.81    9.67
   9   1   7  169.54   11.86
   9  -1   7  137.53    5.61
   9  -1   8   74.13   11.98
   9   1   8   67.95   21.88
   9  -1   9   53.21    7.71
   9   1   9   64.53    9.18
   9  -1  10   14.08    6.41
   9   1  10   24.24   14.39
   9  -1  11  309.76   22.79
   9   1  11  321.72   22.31
   9  -1  12  144.08   14.88
   9   1  12  140.42   16.69
   9  -1  13   96.33   10.85
   9   1  13   92.07   10.77
   9  -1  14    9.56    9.87
   9   1  14   10.66    6.93
   9  -1  15    2.05    4.99
   9   1  15    1.70    4.09
   9  -1  16   63.94   11.34
   9   1  16   60.11    9.96
   9  -1  17   41.80   13.60
   9   1  17   41.84   12.12
   9  -2 -17   23.93   16.45
   9   2 -17   21.33   26.00
  -9   2  17   25.55   18.84
  -9  -2  17   23.29   17.65
   9  -2 -16   19.72   14.83
   9   2 -16   14.42   13.30
  -9   2  16   17.30   10.76
  -9  -2  16   14.33    8.17
   9  -2 -15  157.14   22.42
   9   2 -15  160.38   17.88
  -9   2  15  158.18   16.53
  -9  -2  15  165.05   16.86
   9  -2 -14  145.43   17.88
   9   2 -14  151.26   13.29
  -9   2  14  142.96   18.32
  -9  -2  14  160.23   10.78
   9  -2 -13   27.31   23.40
  -9   2  13   33.53   17.28
  -9  -2  13   27.51   19.26
   9  -2 -12   48.06   28.91
  -9   2  12   48.09   18.17
  -9  -2  12   45.17    7.50
   9  -2 -11   10.31    8.25
  -9   2  11   20.19   10.58
   9  -2 -10  170.80   19.48
  -9   2  10  175.14   13.60
  -9  -2  10  179.14   14.03
   9  -2  -9  112.24    9.18
   9   2  -9  118.98    9.87
   9  -2  -9  131.96   18.62
  -9   2   9  127.12   11.75
  -9  -2   9  121.71   13.51
   9  -2  -8    2.33    2.88
   9   2  -8    5.27    3.31
   9  -2  -8    1.72    4.02
  -9   2   8    5.26    3.29
  -9  -2   8    2.10    4.48
   9   2  -7   20.16    8.11
   9  -2  -7   20.94    9.99
  -9   2   7   19.91    7.42
  -9  -2   7   17.17    9.44
   9  -2  -6   14.12   10.03
   9   2  -6   12.32    6.26
   9  -2  -6   15.79   10.53
  -9   2   6   10.55    5.84
  -9  -2   6   14.93    8.55
   9  -2  -5   62.61   10.14
   9   2  -5   64.74   10.84
   9  -2  -5   62.18    8.54
  -9   2   5   66.71    6.91
  -9  -2   5   62.99    7.07
   9  -2  -4  117.88   10.31
   9   2  -4  106.30   12.46
   9  -2  -4  100.59   13.40
  -9   2   4  109.61   14.32
  -9  -2   4  120.98   10.53
   9  -2  -3  278.66   17.12
   9   2  -3  323.26   19.92
   9  -2  -3  275.46   22.94
  -9   2   3  320.92   18.60
  -9  -2   3  262.45   18.37
   9  -2  -2  380.92   22.37
   9   2  -2  454.57   19.97
   9  -2  -2  365.25   22.45
  -9   2   2  468.25   19.38
  -9  -2   2  380.48   21.53
   9  -2  -1  246.33   17.73
   9   2  -1  286.06   18.04
   9  -2  -1  248.79   16.08
  -9   2   1  280.36   16.09
  -9  -2   1  272.89   16.36
   9  -2   0    4.00    4.38
   9   2   0    8.45    4.70
   9  -2   0    7.79    4.48
  -9   2   0    5.50    3.83
   9  -2   1  278.84   17.45
   9   2   1  246.82   16.16
   9  -2   1  261.91   16.00
  -9   2  -1  271.46   16.11
   9  -2   2  460.31   20.89
   9   2   2  391.80   27.38
   9  -2   2  411.65   24.38
   9  -2   3  269.73   21.80
   9   2   3  262.73   19.09
   9  -2   3  304.65   17.70
   9  -2   4  121.00   11.80
   9   2   4  113.87   21.33
   9  -2   4  111.74   11.80
   9  -2   5   62.86    9.52
   9   2   5   68.55    9.90
   9  -2   5   55.72    8.84
   9  -2   6   16.03    9.57
   9   2   6   22.08    8.76
   9  -2   6    9.73    6.76
   9  -2   7   21.48   14.21
   9   2   7   18.33   11.39
   9  -2   7   17.02    3.84
   9  -2   8    7.42    5.33
   9   2   8    5.55    4.26
   9  -2   9  116.52   11.90
   9   2   9  123.90   12.77
   9  -2  10  167.79   14.38
   9   2  10  173.83   15.54
   9  -2  11   23.39   17.48
   9   2  11   15.27    8.93
   9  -2  12   54.05    7.37
   9   2  12   51.24   21.86
   9  -2  13   35.18   16.00
   9   2  13   25.78    6.58
   9  -2  14  145.28   12.60
   9   2  14  148.46   11.10
   9  -2  15  172.72   19.15
   9   2  15  164.60   17.81
   9  -2  16   15.82   16.36
   9   2  16   14.12    9.45
   9  -2  17   15.43   19.21
   9   2  17   22.51   21.55
   9  -3 -17   15.45   20.43
   9   3 -17   21.26   23.37
  -9   3  17   23.65   17.06
  -9  -3  17   22.26   15.85
   9  -3 -16    9.89   14.82
   9   3 -16   11.49   10.83
  -9   3  16   14.41   12.40
  -9  -3  16   18.08    9.80
   9  -3 -15   60.93   14.23
  -9   3  15   79.14    8.74
  -9  -3  15   55.79   28.14
   9  -3 -14  134.46   15.96
  -9   3  14  121.16   12.87
  -9  -3  14  127.75   13.04
   9  -3 -13   90.84   18.08
  -9   3  13   77.69   15.92
  -9  -3  13   91.75    9.73
   9  -3 -12   13.26    8.35
  -9   3  12    8.90    4.51
  -9  -3  12   10.07    7.17
   9  -3 -11   80.27   14.41
  -9   3  11  109.81   13.75
  -9  -3  11   89.96   17.97
   9  -3 -10  302.40   26.91
  -9   3  10  312.13   30.59
  -9  -3  10  300.48   20.05
   9  -3  -9   42.76    3.65
   9   3  -9   30.83    3.86
   9  -3  -9   47.24   19.79
  -9   3   9   32.55   15.82
  -9  -3   9   45.46   19.96
   9  -3  -8   79.82    6.22
   9   3  -8   86.37    7.39
   9  -3  -8   86.80   13.80
  -9   3   8   90.90    7.05
  -9  -3   8   84.04   24.25
   9  -3  -7  100.82   12.12
   9   3  -7  114.43   14.96
   9  -3  -7  112.77   17.42
  -9   3   7  115.37   14.33
  -9  -3   7  110.80   14.14
   9  -3  -6  268.94   12.82
   9   3  -6  265.10   11.64
   9  -3  -6  248.07   13.09
  -9   3   6  257.10   18.79
  -9  -3   6  220.18   14.73
   9  -3  -5  151.73   14.77
   9   3  -5   96.59   11.27
   9  -3  -5  117.21   14.47
  -9   3   5  105.61   11.37
  -9  -3   5  120.79   16.79
   9  -3  -4   35.89    5.49
   9   3  -4   37.37    5.14
   9  -3  -4   41.43   19.25
  -9   3   4   35.96    5.72
  -9  -3   4   33.12    6.03
   9  -3  -3  364.67   21.31
   9   3  -3  382.88   22.93
   9  -3  -3  377.07   23.09
  -9   3   3  407.18   22.86
  -9  -3   3  377.95   21.83
   9  -3  -2  546.93   24.19
   9   3  -2  514.95   23.10
   9  -3  -2  532.01   23.35
  -9   3   2  533.59   24.19
  -9  -3   2  547.83   22.47
   9  -3  -1  609.31   26.49
   9   3  -1  595.60   26.26
   9  -3  -1  583.33   26.15
  -9   3   1  620.61   24.06
  -9  -3   1  544.44   22.72
   9  -3   0   14.92    8.05
   9   3   0   12.60    7.18
   9  -3   0   10.61    4.89
  -9   3   0    9.89    5.84
   9  -3   1  589.54   27.98
   9   3   1  591.76   25.00
   9  -3   1  578.12   24.07
  -9   3  -1  572.00   25.36
   9  -3   2  490.75   21.90
   9   3   2  530.33   23.92
   9  -3   2  493.45   20.24
   9  -3   3  405.50   24.30
   9   3   3  385.51   23.65
   9  -3   3  393.87   23.31
   9  -3   4   30.97    6.08
   9   3   4   30.84    9.14
   9  -3   4   32.70   10.64
   9  -3   5  103.18   15.93
   9   3   5  124.42   15.30
   9  -3   5   98.83   10.37
   9  -3   6  260.33   21.89
   9   3   6  238.14   12.91
   9  -3   7  106.43   15.91
   9   3   7  112.22   15.08
   9  -3   7  109.17   12.02
   9  -3   8   83.08    9.70
   9   3   8   81.18    9.69
   9  -3   9   36.35   18.18
   9   3   9   47.75   17.29
   9  -3  10  329.91   25.85
   9   3  10  301.63   21.00
   9  -3  11  122.74   16.18
   9   3  11   89.09   12.16
   9  -3  12    5.31    5.75
   9   3  12    7.10    7.73
   9  -3  13   78.44   11.14
   9   3  13   84.85   10.61
   9  -3  14  122.59   13.59
   9   3  14  122.98   13.58
   9  -3  15   63.09   12.06
   9   3  15   56.53    9.15
   9  -3  16   13.06    8.22
   9   3  16    9.27   19.13
   9  -3  17   22.56   20.08
   9   3  17   14.79   20.07
   9  -4 -17   14.68   19.58
   9   4 -17   14.03   20.44
  -9   4  17   22.56   16.36
  -9  -4  17   18.31   10.47
   9  -4 -16    5.71    6.92
  -9   4  16   14.98    7.33
  -9  -4  16    9.69    7.83
   9  -4 -15   10.02   17.03
  -9   4  15   16.68    8.47
  -9  -4  15   15.58   12.90
   9  -4 -14   24.57   21.31
  -9   4  14   20.32   12.87
  -9  -4  14   28.31   14.87
   9  -4 -13   15.18   13.20
  -9   4  13   14.88   11.87
  -9  -4  13   14.50    8.15
   9  -4 -12   23.70   15.78
  -9   4  12   24.69    8.34
  -9  -4  12   28.27   19.09
   9  -4 -11   77.06   25.34
  -9   4  11   82.78    8.63
  -9  -4  11   89.28    9.45
   9  -4 -10   48.86   26.92
  -9   4  10   44.07   16.47
  -9  -4  10   49.78    6.27
   9  -4  -9  158.23   11.21
   9   4  -9  154.56   14.05
   9  -4  -9  176.44   16.84
  -9   4   9  158.29   12.29
  -9  -4   9  162.25   12.73
   9  -4  -8   96.14    9.25
   9   4  -8  105.87    9.71
   9  -4  -8  109.66   25.85
  -9   4   8   98.25   10.11
  -9  -4   8   88.94   14.26
   9  -4  -7  299.58   22.02
   9   4  -7  297.73   23.66
   9  -4  -7  297.26   27.24
  -9   4   7  302.91   26.34
  -9  -4   7  301.35   21.69
   9  -4  -6  281.85   15.62
   9   4  -6  305.19   17.74
   9  -4  -6  257.55   14.55
  -9   4   6  313.56   13.69
  -9  -4   6  272.05   12.97
   9  -4  -5  374.66   20.39
   9   4  -5  434.84   23.19
   9  -4  -5  346.38   34.75
  -9   4   5  432.05   24.20
  -9  -4   5  382.99   20.16
   9  -4  -4   51.72    7.36
   9   4  -4   39.76   11.79
   9  -4  -4   41.34   14.04
  -9   4   4   30.69    3.87
  -9  -4   4   45.08    7.38
   9  -4  -3  532.48   27.04
   9   4  -3  421.77   21.70
   9  -4  -3  360.89   24.63
  -9   4   3  418.62   23.61
  -9  -4   3  417.18   21.17
   9  -4  -2   47.28   12.00
   9   4  -2   39.20   17.43
   9  -4  -2   36.83    6.60
  -9   4   2   35.08    7.49
  -9  -4   2   38.23    5.82
   9  -4  -1   23.36   11.56
   9   4  -1   30.70   15.59
   9  -4  -1   30.99   17.56
  -9   4   1   30.28    9.89
  -9  -4   1   30.46   14.69
   9  -4   0  211.78   15.33
   9   4   0  215.27   15.83
   9  -4   0  217.25   19.83
  -9   4   0  222.67   15.02
   9  -4   1   24.89    4.51
   9   4   1   29.61   17.62
   9  -4   1   26.12   11.94
  -9   4  -1   20.66    2.83
   9  -4   2   34.95   14.59
   9   4   2   47.02   20.23
   9  -4   2   36.31    5.58
  -9   4  -2   40.72    7.69
   9  -4   3  402.05   22.62
   9   4   3  416.52   22.55
   9  -4   3  385.14   21.30
   9  -4   4   37.42   20.97
   9   4   4   45.07   12.02
   9  -4   4   39.33    5.68
   9  -4   5  415.69   23.38
   9   4   5  378.01   22.45
   9  -4   5  417.96   20.10
   9  -4   6  299.60   16.07
   9   4   6  273.26   21.12
   9  -4   6  299.86   11.66
   9  -4   7  284.59   24.91
   9   4   7  306.28   27.64
   9  -4   8   95.43   14.43
   9   4   8   94.25    9.60
   9  -4   9  155.03   16.04
   9   4   9  165.17   19.86
   9  -4  10   43.27    6.87
   9   4  10   54.57   18.17
   9  -4  11   75.15   12.02
   9   4  11   88.00   10.44
   9  -4  12   23.71   15.38
   9   4  12   30.04   18.93
   9  -4  13   12.77   17.05
   9   4  13   15.20   13.14
   9  -4  14   17.97   20.00
   9   4  14   20.32   14.99
   9   4  15   13.53   17.56
   9  -4  16   12.28   16.06
   9   4  16   12.58    6.25
   9  -4  17   25.63   28.63
   9   4  17   10.25   21.88
   9  -5 -17   15.53   19.87
  -9   5  17   21.75   10.91
  -9  -5  17   17.96   13.18
   9  -5 -16   51.29   13.14
  -9   5  16   35.76   12.46
  -9  -5  16   45.59   20.17
   9  -5 -15   65.54   11.66
  -9   5  15   63.55   10.23
  -9  -5  15   57.16    9.66
   9  -5 -14   50.80   13.05
  -9   5  14   49.10    6.67
  -9  -5  14   49.17   24.27
   9  -5 -13   32.46   17.94
  -9   5  13   36.35   18.08
  -9  -5  13   34.32   15.33
   9  -5 -12  151.50   21.07
  -9   5  12  154.99   18.56
  -9  -5  12  144.30   12.50
   9  -5 -11    6.03    6.53
  -9   5  11    9.10    5.73
  -9  -5  11    5.75    3.22
   9  -5 -10   84.43   29.75
  -9   5  10   81.87    8.13
  -9  -5  10   91.46    9.45
   9  -5  -9  313.67   22.54
   9   5  -9  324.34   20.08
   9  -5  -9  253.74   20.23
  -9   5   9  339.46   21.42
  -9  -5   9  310.56   25.58
   9  -5  -8   37.36    7.68
   9   5  -8   26.13    5.10
   9  -5  -8   45.87   20.86
  -9   5   8   21.72    9.87
  -9  -5   8   35.53    5.84
   9  -5  -7   68.94   16.35
   9   5  -7   40.81    6.30
   9  -5  -7   56.27    8.12
  -9   5   7   46.41    9.45
  -9  -5   7   58.04    6.58
   9  -5  -6  128.22    8.10
   9   5  -6  131.64    9.72
   9  -5  -6  119.43   16.98
  -9   5   6  123.46   21.55
  -9  -5   6  127.88    9.18
   9  -5  -5   96.65   20.42
   9   5  -5   70.72   11.65
   9  -5  -5  104.64   23.94
  -9   5   5   68.69   16.63
  -9  -5   5   78.68   11.79
   9  -5  -4   82.90   12.98
   9   5  -4   70.07   12.89
   9  -5  -4   80.46   13.12
  -9   5   4   71.81   12.38
  -9  -5   4   68.83   12.61
   9  -5  -3  240.88   27.94
   9   5  -3  236.24   17.59
   9  -5  -3  233.07   21.18
  -9   5   3  229.31   15.97
  -9  -5   3  246.97   18.04
   9  -5  -2  230.75   17.86
   9   5  -2  232.61   21.73
   9  -5  -2  213.87   20.20
  -9   5   2  231.85   16.20
  -9  -5   2  196.03   20.93
   9  -5  -1  342.54   73.33
   9   5  -1   65.57    7.62
   9  -5  -1   59.98   11.94
  -9   5   1   60.90    7.20
  -9  -5   1   64.72    7.26
   9  -5   0  497.09   30.18
   9   5   0  396.36   21.95
   9  -5   0  394.66   22.81
  -9   5   0  415.37   22.86
   9  -5   1   70.75   16.80
   9   5   1   65.65   17.04
   9  -5   1   62.23    7.97
  -9   5  -1   68.23    7.02
   9  -5   2  237.93   23.35
   9   5   2  208.84   19.76
  -9  -5  -2  234.46   21.33
   9  -5   2  223.73   10.83
  -9   5  -2  196.90   15.72
   9  -5   3  251.02   20.07
   9   5   3  242.51   19.78
  -9  -5  -3  250.72   18.90
   9  -5   4   75.00   23.70
   9   5   4   81.24   13.45
  -9  -5  -4   67.51    9.31
   9  -5   4   64.02    9.79
   9  -5   5   77.00   18.84
   9   5   5   74.11   13.59
  -9  -5  -5   60.32    8.38
   9  -5   5   61.91   10.52
   9  -5   6  128.11    9.90
   9   5   6  146.33   14.37
  -9  -5  -6  119.67    9.45
   9  -5   6  119.47   15.08
   9  -5   7   45.98   11.38
   9   5   7   50.77    9.68
  -9  -5  -7   39.94    3.67
   9  -5   7   40.61    5.47
   9  -5   8   28.59   12.66
   9   5   8   42.96   21.51
  -9  -5  -8   23.79    7.13
   9  -5   9  340.36   23.19
   9   5   9  327.39   23.66
  -9  -5  -9  295.39   20.46
   9  -5  10   77.63    9.35
   9   5  10   89.48   10.55
   9  -5  11    5.11    5.33
   9   5  11    6.10    5.66
   9  -5  12  165.36   23.04
   9   5  12  140.84   21.25
   9  -5  13   26.37   24.95
   9   5  13   24.54   21.76
   9  -5  14  107.00   15.91
   9   5  14   42.35   18.57
   9  -5  15   85.84   38.51
   9   5  15   53.58   14.45
   9  -5  16   45.48   16.81
   9   5  16   36.58   10.68
   9  -5  17   25.64    8.73
   9   5  17    9.32   15.63
   9  -6 -16   23.71   19.77
  -9  -6  16   32.16   18.01
   9  -6 -15   64.27   15.84
  -9   6  15   78.26   10.37
  -9  -6  15   71.61    9.89
   9  -6 -14    9.95    9.25
  -9   6  14    9.31    6.07
  -9  -6  14    6.53    5.17
   9  -6 -13  121.39   14.99
  -9   6  13  115.16   29.15
  -9  -6  13  119.22   15.49
   9  -6 -12  175.08   16.60
  -9   6  12  186.26   20.36
  -9  -6  12  161.05   10.11
   9  -6 -11  158.17   23.33
  -9  -6  11  150.68   13.37
   9  -6 -10   14.77    9.73
  -9   6  10   12.80    6.80
  -9  -6  10   12.74   10.74
   9  -6  -9  282.33   20.15
   9   6  -9  233.13   15.72
   9  -6  -9  292.57   21.85
  -9   6   9  228.92   20.03
  -9  -6   9  288.31   18.94
   9  -6  -8  185.26   17.75
   9   6  -8  189.01   16.49
   9  -6  -8  178.60   25.23
  -9   6   8  192.25   17.97
  -9  -6   8  191.56   17.65
   9  -6  -7   86.44   16.67
   9   6  -7  102.22   14.32
   9  -6  -7   84.54   20.25
  -9   6   7   89.16   11.47
  -9  -6   7   79.51    9.50
   9  -6  -6   81.34   13.14
   9   6  -6   58.02    9.67
   9  -6  -6   75.14   25.95
  -9   6   6   66.11    5.46
  -9  -6   6   59.14    7.34
   9  -6  -5   87.06   14.71
   9   6  -5   94.41    8.75
   9  -6  -5   93.35   38.71
  -9   6   5   78.64    7.94
  -9  -6   5   80.66    7.99
   9  -6  -4  277.95   14.60
   9   6  -4  280.73   15.21
   9  -6  -4  245.43   26.83
  -9   6   4  282.82   12.69
  -9  -6   4  272.79   17.76
   9  -6  -3  516.29   29.27
   9   6  -3  502.25   22.46
   9  -6  -3  518.54   29.18
  -9   6   3  559.98   26.76
  -9  -6   3  508.76   21.22
   9  -6  -2  141.93    9.44
   9   6  -2  135.39    9.53
   9  -6  -2  130.28    9.24
  -9   6   2  137.41   10.76
  -9  -6   2  142.47    8.80
   9  -6  -1  184.22   22.17
   9   6  -1  157.56   13.78
   9  -6  -1  190.09   18.56
  -9   6   1  169.12    7.74
  -9  -6   1  177.22   16.21
   9  -6   0  923.87   35.57
   9   6   0  939.82   36.10
  -9  -6   0 1002.15   36.75
   9  -6   0  927.28   38.82
  -9   6   0  933.12   32.24
   9  -6   1  184.91   18.29
   9   6   1  189.06   13.39
  -9  -6  -1  152.34   15.97
   9  -6   1  172.14   10.05
  -9   6  -1  184.17    7.57
   9  -6   2  184.50   12.32
   9   6   2  134.71   10.15
  -9  -6  -2  145.22    7.76
   9  -6   2  145.51    9.07
   9   6   3  500.03   23.73
  -9  -6  -3  537.46   26.10
   9  -6   3  564.40   25.48
   9   6   4  269.72   33.32
  -9  -6  -4  292.94   12.33
   9  -6   4  281.54   12.91
   9  -6   5  188.07   34.19
   9   6   5   85.28    9.27
  -9  -6  -5   92.09   10.36
   9  -6   5   88.99    6.99
   9  -6   6   88.92   28.08
   9   6   6   60.41    8.58
  -9  -6  -6   60.25   10.96
   9  -6   6   57.89    5.47
   9  -6   7  135.81   31.65
   9   6   7   74.75   19.01
  -9  -6  -7   76.24   10.10
   9  -6   7   78.52    8.43
   9  -6   8  384.12   32.00
   9   6   8  229.60   18.87
  -9  -6  -8  198.91   18.79
   9   6   9  293.34   23.12
  -9  -6  -9  230.28   15.02
   9  -6  10   97.25   54.30
   9   6  10   12.33    8.65
   9  -6  11  278.49   24.96
   9   6  11  145.80   14.81
   9  -6  12  239.73   20.00
   9   6  12  183.19   14.01
   9  -6  13  121.09   21.16
   9   6  13  117.02   18.19
   9  -6  14    8.77    9.13
   9   6  14    6.65    5.19
   9  -6  15   82.02   26.95
   9   6  15   62.34    9.75
   9  -6  16   28.44   18.58
   9   6  16   23.21   22.31
   9  -7 -16   38.54   17.29
  -9  -7  16   42.16   26.57
   9  -7 -15   12.76    7.06
  -9  -7  15   15.52    7.26
   9  -7 -14    9.44   10.76
  -9   7  14   12.22   10.74
  -9  -7  14   14.40    7.75
   9  -7 -13   31.36   27.07
  -9   7  13   36.74   10.25
  -9  -7  13   37.54   17.47
   9  -7 -12  192.50   20.93
  -9   7  12  187.85   16.69
  -9  -7  12  168.94   15.95
   9  -7 -11   27.15    7.07
  -9   7  11   34.14   16.03
  -9  -7  11   28.33   20.68
   9  -7 -10   99.66   25.08
  -9   7  10  114.60   15.03
  -9  -7  10  106.32   13.13
   9  -7  -9   82.75    8.19
   9   7  -9   78.92    7.95
   9  -7  -9   85.80   12.74
  -9   7   9   79.25   15.92
  -9  -7   9   87.11    8.81
   9  -7  -8   59.17   12.97
   9   7  -8   54.53    9.71
   9  -7  -8   70.31   13.73
  -9   7   8   50.50    8.82
  -9  -7   8   61.77   24.90
   9  -7  -7   82.75   13.23
   9   7  -7   59.43    9.84
   9  -7  -7   70.03   10.88
  -9  -7   7   76.30    9.48
   9  -7  -6  132.79   12.59
   9   7  -6  129.33   13.00
   9  -7  -6  127.17   24.23
  -9   7   6  128.63   25.48
  -9  -7   6  125.95   16.88
   9  -7  -5   58.20   15.18
   9   7  -5   69.35    8.51
   9  -7  -5   46.63   17.39
  -9   7   5   70.14    4.75
  -9  -7   5   51.83    6.05
   9  -7  -4  308.85   22.61
   9   7  -4  336.87   25.08
   9  -7  -4  299.73   27.71
  -9   7   4  330.08   22.58
  -9  -7   4  323.18   23.30
   9  -7  -3  129.47   18.10
   9   7  -3  125.21   12.75
   9  -7  -3  131.51   13.39
  -9   7   3  106.24    8.94
  -9  -7   3  135.12   12.12
   9  -7  -2  220.80   12.47
   9   7  -2  230.50   12.36
  -9  -7   2  230.90   10.64
   9  -7  -2  214.47   12.00
  -9   7   2  225.87    9.64
  -9  -7   2  218.19   10.24
   9  -7  -1  116.13   33.38
   9   7  -1  138.46   16.23
  -9  -7   1  138.22    8.88
   9  -7  -1  135.08   11.46
  -9   7   1  127.02    6.66
  -9  -7   1  124.74   15.38
   9  -7   0  383.26   18.41
   9   7   0  374.31   19.40
  -9  -7   0  384.73   16.71
   9  -7   0  344.97   16.79
  -9   7   0  368.78   14.31
   9  -7   1  133.96   10.58
   9   7   1  134.52   12.02
  -9  -7  -1  131.89   14.09
   9  -7   1  135.83    9.53
  -9   7  -1  120.80   13.62
   9  -7   2  224.06   12.24
   9   7   2  199.26   16.15
  -9  -7  -2  236.86   17.53
  -9   7  -2  219.74    7.80
   9  -7   3  104.74   11.66
   9   7   3  137.57   17.83
  -9  -7  -3  112.86   12.12
   9  -7   3  100.15   21.92
  -9   7  -3  127.96    9.46
   9  -7   4  343.71   26.62
   9   7   4  311.49   23.98
  -9  -7  -4  326.71   24.11
   9  -7   4  320.84   26.81
  -9   7  -4  309.19   21.33
   9  -7   5   84.81   34.52
   9   7   5   60.97   23.16
  -9  -7  -5   67.81   13.55
   9  -7   5   70.61    7.58
   9  -7   6  121.78   14.53
   9   7   6  140.97   17.27
  -9  -7  -6  126.10   12.15
   9  -7   6  121.00   11.93
   9  -7   7   60.45   23.66
   9   7   7   75.41   10.77
  -9  -7  -7   58.36    7.25
   9  -7   8   50.68   26.59
   9   7   8   76.05   11.15
  -9  -7  -8   51.75   14.20
   9  -7   9   81.45   27.72
   9   7   9   89.97   12.48
  -9  -7  -9   69.68    6.44
   9  -7  10  103.88   14.99
   9   7  10   97.05   20.84
  -9  -7 -10   88.63    9.94
   9  -7  11   44.51   20.80
   9   7  11   29.64   24.06
   9  -7  12  178.00   17.66
   9   7  12  180.07   19.67
   9  -7  13   35.38   22.49
   9   7  13   29.63   22.84
   9  -7  14   18.39    8.52
   9   7  14   12.43   15.93
   9  -7  15    9.36    7.20
   9   7  15    9.76   12.14
   9  -7  16   36.43   15.20
   9   7  16   38.35    9.50
   9  -8 -15   10.27   13.87
  -9  -8  15   19.90   15.09
   9  -8 -14    1.97    3.27
  -9  -8  14    4.86    3.52
   9  -8 -13   14.92    7.56
  -9  -8  13    8.33   10.51
   9  -8 -12   11.94    8.35
  -9   8  12   10.24    9.03
  -9  -8  12    9.29    3.80
   9  -8 -11    2.00    3.40
  -9   8  11    4.86    3.44
  -9  -8  11    2.26    4.56
   9  -8 -10   20.55   13.44
  -9   8  10   23.75    9.14
  -9  -8  10   15.15    9.13
   9  -8  -9   54.06    7.20
   9   8  -9   64.75    8.99
   9  -8  -9   58.16   34.76
  -9   8   9   61.93    9.36
  -9  -8   9   54.59   13.34
   9  -8  -8  334.95   27.58
   9   8  -8  376.59   29.15
   9  -8  -8  356.03   30.11
  -9  -8   8  352.43   27.24
   9  -8  -7  156.78   27.57
   9   8  -7  151.95   14.82
   9  -8  -7  155.77   19.92
  -9  -8   7  152.55   14.13
   9  -8  -6  133.94   13.62
   9   8  -6  150.74   14.77
   9  -8  -6  144.55   18.39
  -9   8   6  152.43   14.41
  -9  -8   6  136.39   12.02
   9  -8  -5  139.65   12.39
   9   8  -5  135.54   11.90
   9  -8  -5  131.67   13.15
  -9   8   5  128.43   12.82
  -9  -8   5  126.02   13.04
   9  -8  -4  121.33   13.42
   9   8  -4  128.10   13.65
   9  -8  -4  124.11   14.40
  -9   8   4  123.53   12.49
  -9  -8   4  115.41   15.93
   9  -8  -3  114.53   15.14
   9   8  -3  140.23   12.24
  -9  -8   3  117.50   14.56
   9  -8  -3  102.61   12.81
  -9   8   3  133.85   12.75
  -9  -8   3  101.09   11.57
   9  -8  -2   10.12    7.09
   9   8  -2   16.89    8.71
  -9  -8   2   10.33    6.45
   9  -8  -2   12.62    7.20
  -9   8   2   14.32    4.18
  -9  -8   2    7.08    4.88
   9  -8  -1   23.83   15.83
   9   8  -1   15.76    8.95
  -9  -8   1   20.71    7.53
   9  -8  -1   20.05    9.63
  -9   8   1   16.38    4.10
  -9  -8   1   21.29   12.79
   9  -8   0   18.51    9.14
   9   8   0   18.61    9.11
  -9  -8   0   18.51   10.23
   9  -8   0   17.85   10.26
  -9   8   0   11.06    6.41
   9  -8   1   19.14   10.12
   9   8   1   24.46   15.07
  -9  -8  -1   20.60    9.53
   9  -8   1   19.88    9.85
  -9   8  -1   17.83    2.26
   9  -8   2   17.94   10.18
   9   8   2   12.98    8.31
  -9  -8  -2   12.61    9.61
   9  -8   2   12.75   10.42
   9  -8   3  149.57   14.23
   9   8   3  103.10   12.75
  -9  -8  -3  149.28   27.01
   9  -8   3  133.56   11.42
  -9   8  -3  106.35    9.81
   9  -8   4  129.70   12.40
   9   8   4  121.30   16.50
  -9  -8  -4  122.28   17.60
   9  -8   4  140.61   11.59
   9  -8   5  115.32   17.60
   9   8   5  127.22   14.91
  -9  -8  -5  136.46   11.93
   9  -8   5  125.52   15.86
   9  -8   6  139.24   10.10
   9   8   6  123.71   11.98
  -9  -8  -6  146.23   13.88
   9  -8   6  147.10   14.19
   9  -8   7  147.00   19.47
   9   8   7  157.94   16.43
  -9  -8  -7  146.81   16.73
   9  -8   8  346.94   35.43
   9   8   8  343.27   33.17
  -9  -8  -8  349.61   28.69
   9  -8   9   68.05    8.69
   9   8   9   56.76   25.95
  -9  -8  -9   59.27   13.01
   9  -8  10   30.46   11.66
   9   8  10   17.71   11.97
  -9  -8 -10   19.04    8.26
   9  -8  11    1.23    5.39
   9   8  11    1.13    3.27
   9  -8  12    8.07    9.14
   9   8  12    9.78   17.40
   9  -8  13   16.11    9.05
   9   8  13   11.12   12.63
   9  -8  14    5.61    6.17
   9   8  14    1.45    5.47
   9  -8  15   23.75    9.16
   9   8  15   17.21   20.19
   9  -9 -14   26.55   26.36
  -9  -9  14   36.60   12.12
   9  -9 -13   57.27   23.12
  -9  -9  13   68.75   22.19
   9  -9 -12    1.87    5.07
  -9  -9  12    1.22    1.68
   9  -9 -11  143.91   19.71
  -9  -9  11  135.74   15.50
   9  -9 -10   60.23   15.07
  -9   9  10   63.50   11.77
  -9  -9  10   69.31   11.90
   9   9  -9    2.51    3.19
   9  -9  -9    4.07    8.33
  -9   9   9    1.84    2.71
   9  -9  -8   16.27   12.12
   9   9  -8   13.56   12.90
   9  -9  -8   13.86   17.40
  -9   9   8   11.67    6.30
  -9  -9   8   14.49    8.22
   9  -9  -7  134.87   16.25
   9   9  -7  118.97   15.05
   9  -9  -7  122.14   16.02
  -9   9   7  105.33   12.32
  -9  -9   7  128.80   15.11
   9  -9  -6  186.87   23.53
   9   9  -6  205.47   18.15
   9  -9  -6  184.21   25.62
  -9   9   6  179.42   16.90
  -9  -9   6  183.39   16.14
   9  -9  -5   41.71    9.69
   9   9  -5   35.12    8.58
   9  -9  -5   51.78   26.28
  -9   9   5   37.85    8.87
  -9  -9   5   51.45    7.06
   9  -9  -4   26.76    9.65
   9   9  -4   31.30    7.99
  -9  -9   4   29.45   11.01
   9  -9  -4   27.79   11.82
  -9   9   4   24.98    7.44
  -9  -9   4   26.56   12.47
   9  -9  -3   14.93   12.88
   9   9  -3   16.96   12.31
   9  -9  -3   17.20    9.86
  -9   9   3   13.64    7.66
  -9  -9   3   13.17    8.92
   9  -9  -2  201.95   22.26
   9   9  -2  203.28   17.85
  -9  -9   2  200.41   15.24
   9  -9  -2  186.68   14.89
  -9   9   2  184.25   12.20
  -9  -9   2  209.78   13.07
   9  -9  -1  171.02   20.20
   9   9  -1  161.40   14.02
  -9  -9   1  174.70   14.12
   9  -9  -1  168.34   15.67
  -9  -9   1  170.34   13.23
   9  -9   0    4.26    5.46
   9   9   0    2.38    4.25
  -9  -9   0    2.72    3.08
   9  -9   0    1.94    5.32
   9  -9   1  151.87   17.78
   9   9   1  167.89   14.46
  -9  -9  -1  165.10   13.20
   9  -9   1  159.88   13.75
   9  -9   2  219.11   17.30
  -9  -9  -2  195.21   14.88
   9  -9   2  214.44   16.20
   9  -9   3   15.82   16.32
   9   9   3   15.56    5.90
  -9  -9  -3   15.34    7.96
   9  -9   3   17.84   13.18
   9  -9   4   33.11   19.19
   9   9   4   28.66   15.91
  -9  -9  -4   29.85    6.64
   9  -9   4   25.59    6.17
   9  -9   5   48.79   19.30
   9   9   5   43.96   23.33
  -9  -9  -5   42.07   17.44
   9  -9   5   42.48    5.10
   9  -9   6  205.70   30.09
   9   9   6  181.22   23.52
  -9  -9  -6  185.18   23.75
   9  -9   6  190.43   15.55
   9  -9   7  117.13   15.15
   9   9   7  120.93   18.67
  -9  -9  -7  117.82   14.01
   9  -9   8   13.31    5.73
   9   9   8   14.35    7.62
  -9  -9  -8   11.10    6.10
   9  -9   9    3.35    4.34
   9   9   9    5.84    6.11
  -9  -9  -9    2.60    1.80
   9  -9  10   68.88   29.56
   9   9  10   60.38   33.92
  -9  -9 -10   58.78    7.95
   9  -9  11  145.56   23.82
   9   9  11  155.81   18.06
   9  -9  12    5.69    5.96
   9   9  12    3.27    5.55
   9  -9  13   81.99   11.52
   9   9  13   77.37   13.65
   9  -9  14   37.30   14.96
   9   9  14   36.11   20.78
   9 -10 -14   96.45   16.29
  -9 -10  14   89.29    8.57
   9 -10 -13    4.00    6.23
  -9 -10  13    1.22    3.12
   9 -10 -12   16.69   14.63
  -9 -10  12   17.62   15.65
   9 -10 -11   34.99   18.72
  -9 -10  11   46.14    6.24
   9 -10 -10  128.48   19.80
  -9 -10  10  141.53   14.76
   9  10  -9   69.32    7.57
  -9  10   9   61.30    6.24
   9 -10  -9   67.76   16.07
  -9 -10   9   68.29   19.69
   9 -10  -8    1.16    3.79
   9  10  -8    4.40    5.75
   9 -10  -8    5.16    6.29
  -9 -10   8    3.63    5.60
   9 -10  -7   13.71    6.37
   9  10  -7   15.82    7.52
   9 -10  -7   15.14   11.90
  -9 -10   7   16.51   12.49
   9 -10  -6    2.26    2.96
   9  10  -6    0.60    3.52
   9 -10  -6    3.65    2.49
  -9 -10   6    1.66    1.95
   9 -10  -5   21.63    8.79
   9  10  -5   18.24   16.33
  -9 -10   5   20.72   13.15
   9 -10  -5   21.37   11.82
  -9 -10   5   21.40   12.50
   9 -10  -4   39.79    8.12
   9  10  -4   45.39    9.54
  -9 -10   4   37.37   22.59
   9 -10  -4   40.04   25.05
  -9 -10   4   45.18    6.35
   9 -10  -3   22.55   15.92
  -9 -10   3   26.58   16.30
   9 -10  -3   20.02   17.17
   9 -10  -2  449.94   45.41
   9  10  -2  476.11   37.02
  -9 -10   2  503.99   26.26
   9 -10  -2  457.39   46.10
  -9 -10   2  494.01   15.89
   9 -10  -1  133.92   17.67
   9  10  -1  142.65   14.93
  -9 -10   1  127.46   13.94
   9 -10  -1  147.07   25.35
  -9 -10   1  134.29   10.97
   9 -10   0    5.10    4.83
   9  10   0    5.30    4.56
  -9 -10   0    3.19    4.37
   9 -10   0    3.13    4.79
  -9 -10   0    2.49    5.20
   9 -10   1  140.68   13.97
   9  10   1  135.62   12.35
  -9 -10  -1  141.94   14.70
   9 -10   1  133.98   11.71
   9 -10   2  496.33   27.77
   9  10   2  469.23   36.55
  -9 -10  -2  445.70   43.53
   9 -10   2  485.70   25.64
   9 -10   3   14.85   17.76
   9  10   3   27.64   13.22
  -9 -10  -3   24.66   17.85
   9 -10   3   18.40   16.10
   9 -10   4   45.58    8.75
   9  10   4   36.85   23.95
  -9 -10  -4   46.01   11.55
   9 -10   4   42.98    6.64
   9 -10   5   18.87   14.67
   9  10   5   23.47   24.55
  -9 -10  -5   21.56   11.20
   9 -10   5   18.36   12.48
   9 -10   6    1.43    4.22
   9  10   6    1.89    3.17
  -9 -10  -6    0.95    2.24
   9 -10   6    1.26    2.00
   9 -10   7   16.01    8.14
   9  10   7   17.41   12.00
  -9 -10  -7   13.91    8.85
   9 -10   8    3.83    3.25
   9  10   8    4.02    6.45
  -9 -10  -8    4.00    3.67
   9 -10   9   62.49   11.36
   9  10   9   73.48   12.28
  -9 -10  -9   61.55   16.39
   9 -10  10  130.29   15.43
   9  10  10  144.66   16.84
  -9 -10 -10  142.70   14.68
   9 -10  11   35.93   13.86
   9  10  11   44.37   23.88
   9 -10  12   22.98   17.58
   9  10  12   15.31   17.33
   9 -10  13    5.14    6.20
   9  10  13    6.69    7.52
   9 -10  14   90.66   23.36
   9  10  14   92.49   11.20
   9 -11 -13   78.70   14.49
  -9 -11  13   71.73   27.63
   9 -11 -12   22.95   24.36
  -9 -11  12   33.28   19.25
   9 -11 -11   60.57   28.19
  -9 -11  11   66.16   25.62
   9 -11 -10   22.02   15.14
  -9 -11  10   23.76   13.15
   9  11  -9    1.04    3.94
  -9  11   9    2.79    3.88
   9 -11  -9    9.93    7.17
  -9 -11   9    2.15    4.80
   9  11  -8    7.49    4.67
  -9  11   8    9.50    6.49
   9 -11  -8    5.71    7.76
  -9 -11   8   11.76    6.31
   9 -11  -7   57.36    8.37
   9  11  -7   60.92    6.84
   9 -11  -7   52.07    9.99
  -9 -11   7   55.68    6.62
   9 -11  -6   16.47   13.23
   9  11  -6   14.29   11.90
  -9 -11   6   16.95   19.59
   9 -11  -6   18.58   16.20
  -9 -11   6   21.22   14.29
   9 -11  -5   98.79   14.54
   9  11  -5  109.60   11.09
  -9 -11   5  103.04   10.74
   9 -11  -5  109.27   12.50
  -9 -11   5  112.46   10.32
   9 -11  -4   23.94   12.74
   9  11  -4   22.04   19.00
  -9 -11   4   22.37   15.44
   9 -11  -4   24.92   12.10
  -9 -11   4   30.57   18.51
   9 -11  -3    2.47    5.40
   9  11  -3    7.64    5.94
  -9 -11   3    4.07    4.07
   9 -11  -3    6.19    8.21
  -9 -11   3    4.13    3.35
   9 -11  -2   46.45   10.65
   9  11  -2   60.02   11.17
  -9 -11   2   49.40    8.60
   9 -11  -2   42.76   27.71
  -9 -11   2   49.42   20.51
   9 -11  -1  221.40   17.09
   9  11  -1  219.76   29.26
  -9 -11   1  210.66   15.09
   9 -11  -1  230.66   17.77
  -9 -11   1  225.28   15.75
   9 -11   0   94.28   13.67
   9  11   0   98.57   33.35
  -9 -11   0   83.84   13.68
   9 -11   0   85.62   20.65
  -9 -11   0  105.12   13.46
   9 -11   1  230.49   18.47
   9  11   1  216.79   17.06
  -9 -11  -1  216.75   15.91
   9 -11   1  223.44   16.22
   9 -11   2   47.50   11.05
   9  11   2   39.34   25.10
  -9 -11  -2   47.85   14.38
   9 -11   2   50.12   14.20
   9 -11   3    5.38    3.08
  -9 -11  -3    8.70    5.16
   9 -11   3    5.58    4.39
   9 -11   4   26.27   16.96
   9  11   4   28.99   21.04
  -9 -11  -4   27.80   12.74
   9 -11   4   31.43    5.98
   9 -11   5  102.77   23.02
   9  11   5  106.28   12.60
   9 -11   5  108.24   10.87
   9 -11   6   23.98   14.73
   9  11   6   20.55   22.70
  -9 -11  -6   23.81   11.76
   9 -11   6   17.15    9.48
   9 -11   7   61.59   26.29
   9  11   7   51.22   22.49
  -9 -11  -7   60.02    9.48
   9 -11   8   10.09   10.78
   9  11   8    5.02    8.38
  -9 -11  -8    9.81    7.35
   9 -11   9    1.12    2.57
   9  11   9    3.61    4.22
  -9 -11  -9    3.76    4.45
   9 -11  10   23.29   19.52
   9  11  10   30.90   20.40
  -9 -11 -10   24.80    8.29
   9 -11  11   65.61    9.22
   9  11  11   69.39   11.04
   9 -11  12   27.48   23.05
   9  11  12   36.14    9.39
   9 -11  13   60.63    8.71
   9  11  13   71.77   10.50
   9 -12 -11   12.81   11.05
  -9 -12  11    9.23    9.55
   9 -12 -10   15.69    9.30
  -9 -12  10   18.13   11.76
   9  12  -9   57.42   10.19
   9 -12  -9   40.38   31.71
  -9 -12   9   57.79    9.21
   9  12  -8  148.85   15.65
  -9  12   8  127.84   19.38
   9 -12  -8  147.73   20.60
   9  12  -7  109.71    9.71
  -9 -12   7  110.80    9.66
   9 -12  -7   86.59   10.08
  -9 -12   7  103.22   15.69
   9 -12  -6    5.53    4.11
   9  12  -6    4.78    6.44
  -9 -12   6    7.20    7.80
   9 -12  -6    3.12    3.83
  -9 -12   6    7.23    3.95
   9 -12  -5   65.55   16.48
   9  12  -5   77.62   13.25
  -9 -12   5   74.48    8.90
   9 -12  -5   76.71   10.07
  -9 -12   5   72.27    8.56
   9 -12  -4  218.66   13.78
   9  12  -4  214.96   21.13
  -9 -12   4  206.07   16.72
   9 -12  -4  226.97   14.13
  -9 -12   4  218.75   13.99
   9 -12  -3   78.85   11.72
   9  12  -3   86.07   10.01
  -9 -12   3   72.33   15.77
   9 -12  -3   78.31   12.82
  -9 -12   3   78.63    8.42
   9 -12  -2   13.88    8.96
   9  12  -2   10.80    8.31
  -9 -12   2   16.07   12.18
   9 -12  -2    9.79    6.75
  -9 -12   2   16.48    8.23
   9 -12  -1   28.55   20.53
   9  12  -1   28.99   18.68
  -9 -12   1   23.72   15.56
   9 -12  -1   25.65   14.55
  -9 -12   1   28.75   15.12
   9 -12   0    1.78    4.67
   9  12   0    1.72    2.30
  -9 -12   0    1.50    1.94
   9 -12   0    1.75    4.87
  -9 -12   0    0.83    2.58
   9 -12   1   32.01   19.16
   9  12   1   23.12   18.67
  -9 -12  -1   29.01   17.95
   9 -12   1   28.49   16.87
   9 -12   2   13.73    7.50
   9  12   2   10.47    9.06
  -9 -12  -2    8.77    7.79
   9 -12   2   15.40    7.47
   9 -12   3   82.29   10.37
   9  12   3   82.28   13.27
  -9 -12  -3   74.93   10.85
   9 -12   3   80.46    8.08
   9 -12   4  203.51   26.10
   9  12   4  213.33   14.60
  -9 -12  -4  210.40   11.15
   9 -12   4  212.26   12.74
   9 -12   5   75.09   31.11
   9  12   5   77.69   11.06
  -9 -12  -5   77.04   14.99
   9 -12   5   77.94    7.16
   9 -12   6    1.15    5.53
   9  12   6    5.72    5.74
  -9 -12  -6    5.61    4.15
   9 -12   6    3.27    4.01
   9 -12   7  100.77   13.51
   9  12   7  103.56   15.04
  -9 -12  -7   96.78   20.40
  -9 -12  -8  164.85   16.82
   9 -12   9   54.44   22.81
   9  12   9   53.78   23.03
  -9 -12  -9   57.22   13.38
   9 -12  10   23.48   16.13
   9  12  10   12.67   14.55
  -9 -12 -10   19.12   11.97
   9 -12  11   11.09    6.79
   9  12  11    6.50    9.02
   9 -13 -10    9.83   14.45
  -9 -13  10   10.85    8.58
   9  13  -9   22.73   10.84
  -9  13   9   23.54   13.60
   9 -13  -9   34.65   10.64
   9  13  -8   18.49    9.72
  -9  13   8   15.05   10.38
   9 -13  -8   13.77   12.83
  -9 -13   8   14.82   10.91
   9  13  -7   32.67   15.44
  -9  13   7   25.37   20.44
  -9 -13   7   32.71    8.68
   9 -13  -7   36.89   11.27
  -9 -13   7   41.13   15.82
   9  13  -6    3.07    8.76
  -9 -13   6    4.97    3.49
   9 -13  -6    5.87    8.62
  -9 -13   6    3.75    3.70
   9 -13  -5   93.31   20.94
   9  13  -5   78.29   13.16
  -9 -13   5   67.29    9.88
   9 -13  -5   99.80   16.86
  -9 -13   5   92.68   11.01
   9 -13  -4   37.36   12.17
   9  13  -4   34.32    9.75
  -9 -13   4   38.66   15.59
   9 -13  -4   42.41   15.73
  -9 -13   4   40.86   14.40
   9 -13  -3   51.92   11.77
   9  13  -3   49.77   23.83
  -9 -13   3   42.60   16.34
   9 -13  -3   37.56   26.98
  -9 -13   3   51.53    6.41
   9 -13  -2   10.10    7.81
   9  13  -2   10.26    7.87
  -9 -13   2   10.28    7.01
   9 -13  -2   13.61    8.84
  -9 -13   2   10.59    5.32
   9 -13  -1   40.70   23.76
   9  13  -1   45.67   18.27
  -9 -13   1   41.29   15.79
   9 -13  -1   38.83   23.43
  -9 -13   1   49.60    8.00
   9 -13   0   26.56   13.43
   9  13   0   38.48    9.35
  -9 -13   0   25.45   15.87
   9 -13   0   20.53   12.16
  -9 -13   0   25.45    9.40
   9 -13   1   48.90   17.32
   9  13   1   38.47   25.23
  -9 -13  -1   48.04   23.68
   9 -13   1   45.93    7.03
  -9 -13  -1   49.98    6.81
   9 -13   2   14.77    7.21
   9  13   2    6.94   10.23
  -9 -13  -2   14.88   12.15
   9 -13   2    8.81    7.00
   9 -13   3   53.06   20.55
   9  13   3   39.09   29.51
  -9 -13  -3   45.87   21.83
   9 -13   3   49.27   14.30
   9 -13   4   37.30   19.10
   9  13   4   26.80   23.72
  -9 -13  -4   28.64   19.57
   9 -13   4   29.19    5.01
   9 -13   5   85.86   11.41
   9  13   5   83.00   10.05
  -9 -13  -5   88.57   10.06
   9 -13   5   79.54    6.75
   9 -13   6    3.75    4.23
   9  13   6    4.59    4.97
  -9 -13  -6    6.25    7.10
   9 -13   7   34.54   21.33
   9  13   7   37.93   19.70
  -9 -13  -7   40.71   16.77
   9 -13   8   18.27   14.07
   9  13   8   13.67   14.42
  -9 -13  -8   21.62   13.07
   9 -13   9   29.98   18.82
   9  13   9   27.03   24.53
  -9 -13  -9   30.06   13.97
   9 -13  10   11.14   12.30
   9  13  10   11.24   11.23
  -9 -13 -10   10.27    6.85
   9  14  -8    4.06    9.45
  -9  14   8    4.88   10.36
  -9 -14   8   10.74   10.82
   9 -14  -8   14.52   10.62
  -9 -14   8    9.51    9.03
   9  14  -7    4.54    3.64
  -9  14   7    2.75    4.10
   9 -14  -7    4.39    5.74
  -9 -14   7    2.84    2.60
   9  14  -6   14.41   19.19
  -9  14   6   12.28   10.68
  -9 -14   6   16.82   17.50
   9 -14  -6   10.92   12.06
  -9 -14   6   12.29   13.16
   9  14  -5    8.06    7.71
  -9 -14   5   13.24   15.44
   9 -14  -5   11.53   10.44
  -9 -14   5   13.92    6.77
   9 -14  -4   20.78   16.83
   9  14  -4    9.89   11.74
  -9 -14   4   18.00   11.62
   9 -14  -4   21.06   11.74
  -9 -14   4   22.02    9.77
   9 -14  -3   18.21   13.70
   9  14  -3   13.88   19.66
  -9 -14   3   22.76   13.84
   9 -14  -3   13.85   13.77
  -9 -14   3   19.32   12.84
   9 -14  -2   44.87   14.44
   9  14  -2   38.81    9.67
  -9 -14   2   35.37   13.54
   9 -14  -2   41.18    8.82
  -9 -14   2   53.37    6.41
   9 -14  -1   95.05   13.37
   9  14  -1  107.00   13.35
  -9 -14   1   84.07   22.82
   9 -14  -1   96.97   12.28
  -9 -14   1   99.47   29.18
   9 -14   0   17.43   13.68
   9  14   0   15.31   15.29
  -9 -14   0   20.56   11.29
   9 -14   0   17.14   21.04
  -9 -14   0   24.11   14.42
   9 -14   1   97.53   15.55
   9  14   1   94.09   12.55
  -9 -14  -1   98.52   11.40
  -9 -14  -1   99.28   10.88
   9 -14   2   40.90   22.76
   9  14   2   44.19   10.73
  -9 -14  -2   44.74   15.76
   9 -14   2   41.45   10.22
   9 -14   3   16.68    9.95
   9  14   3   21.65   17.25
  -9 -14  -3   20.01    9.45
   9 -14   3   18.34   10.60
   9 -14   4   16.74   14.58
   9  14   4   14.54   20.54
  -9 -14  -4   17.43    8.68
   9 -14   4   10.80   10.01
   9 -14   5   12.35    6.54
   9  14   5    7.50   12.52
  -9 -14  -5   10.53    4.54
   9 -14   5    6.84    8.11
   9 -14   6   17.96   10.53
   9  14   6   12.31   13.60
  -9 -14  -6   20.44    8.29
   9 -14   7    4.37    4.33
   9  14   7    2.35    6.15
  -9 -14  -7    3.12    4.90
   9 -14   8   15.89   11.48
   9  14   8   12.09   11.12
  -9 -14  -8   10.29    3.87
   9  15  -6    5.74    7.55
  -9  15   6    4.73    9.87
  -9 -15   6    8.91   10.45
   9 -15  -6   11.57   13.19
  -9 -15   6   12.47    8.85
   9  15  -5    1.14    2.22
  -9  15   5    2.93    5.34
  -9 -15   5    2.04    3.04
   9 -15  -5   -0.15    5.10
  -9 -15   5    2.73    3.28
   9  15  -4   37.91    8.38
  -9  15   4   34.98   29.37
  -9 -15   4   49.93   25.36
   9 -15  -4   53.94    8.78
  -9 -15   4   42.78    6.89
   9 -15  -3   18.83   25.65
   9  15  -3   24.16   14.04
  -9 -15   3   23.62   21.44
   9 -15  -3   14.67   19.75
  -9 -15   3   29.81   17.05
   9 -15  -2   58.32   19.54
   9  15  -2   54.40   20.81
  -9 -15   2   57.39   24.99
   9 -15  -2   61.66    8.92
  -9 -15   2   54.49   18.93
   9 -15  -1   41.80   17.29
   9  15  -1   32.91   19.57
  -9 -15   1   40.45   14.24
   9 -15  -1   46.88   10.69
  -9 -15   1   32.77   15.87
   9 -15   0   28.21   13.10
   9  15   0   19.55   21.43
  -9 -15   0   24.96   14.24
   9 -15   0   28.28   21.83
  -9 -15   0   28.28   11.62
   9 -15   1   39.30   24.92
   9  15   1   34.50   17.89
  -9 -15  -1   41.78   23.30
   9 -15   1   42.17    8.16
  -9 -15  -1   44.13    7.31
   9 -15   2   49.29   10.57
   9  15   2   65.58   12.00
  -9 -15  -2   52.78   13.21
   9 -15   2   61.25   27.51
  -9 -15  -2   61.42    7.07
   9 -15   3   34.49   20.76
   9  15   3   14.25   22.04
  -9 -15  -3   20.52   13.88
   9 -15   3   22.37    5.40
   9 -15   4   47.21   21.14
   9  15   4   43.08   26.02
  -9 -15  -4   34.34   15.35
   9 -15   4   38.57    5.87
   9 -15   5    0.60    4.65
   9  15   5    0.67    4.87
  -9 -15  -5    2.61    3.46
   9 -15   6   14.63    8.61
   9  15   6    3.57    5.27
  -9 -15  -6   11.06    6.43
   9  16   0    6.45    8.32
  -9 -16   0    9.95    5.25
   9 -16   0    4.87    7.66
  -9 -16   0    7.74    4.64
  10   0 -17   22.86   27.19
 -10   0  17   26.51   17.94
  10   0 -16   10.56    9.88
 -10   0  16   12.52    7.18
  10   0 -15    2.03    3.62
 -10   0  15    2.69    4.59
  10   0 -14   28.31   21.99
 -10   0  14   31.80   20.25
  10   0 -13   43.75   20.01
 -10   0  13   45.50   17.43
  10   0 -12   56.41   20.06
 -10   0  12   60.49    7.09
  10   0 -11   82.62   28.76
 -10   0  11   81.10    9.67
  10   0 -10  402.42   41.20
 -10   0  10  427.69   26.41
  10   0  -9   50.34    4.97
  10   0  -9   56.46   14.54
 -10   0   9   54.21   15.48
  10   0  -8   57.06    5.04
 -10   0   8   57.10    6.85
  10   0  -7  125.78   10.47
 -10   0   7  109.01   11.48
  10   0  -6  106.76   13.57
 -10   0   6  110.47   15.32
  10   0  -5   68.41    9.80
 -10   0   5   66.36   10.28
  10   0  -4   10.31    5.07
 -10   0   4    6.43    6.61
  10   0  -3    1.58    2.88
 -10   0   3    0.84    3.59
  10   0  -2  428.15   22.03
 -10   0   2  404.88   21.25
  10   0  -1  134.91   15.47
 -10   0   1  118.05   15.41
  10   0   0  242.97   17.89
 -10   0   0  246.16   16.55
  10   0   1  131.50   17.40
  10   0   2  410.91   22.37
  10   0   3    0.60    4.03
  10   0   4    7.36    5.30
  10   0   5   63.15   11.35
  10   0   6  105.47   15.23
  10   0   6   99.47   12.97
  10   0   7  122.00   12.67
  10   0   7  111.75    8.65
  10   0   8   62.92    9.05
  10   0   9   50.02   15.23
  10   0  10  409.07   26.89
  10   0  11   73.15   13.36
  10   0  12   72.10   11.54
  10   0  13   49.55    8.73
  10   0  14   27.96   20.43
  10   0  15    4.98    7.31
  10   0  16   11.73    7.70
  10   0  17   22.93   11.74
  10  -1 -17    7.72    8.53
  10   1 -17    1.22    4.48
 -10   1  17   -0.62    4.36
 -10  -1  17    3.28    4.59
  10  -1 -16   20.71   21.54
  10   1 -16   15.47   14.12
 -10   1  16   22.89   12.27
 -10  -1  16   28.94   13.21
  10  -1 -15  178.91   18.91
  10   1 -15  191.41   20.24
 -10   1  15  176.38   17.43
 -10  -1  15  160.66   18.82
  10  -1 -14   26.77   17.65
  10   1 -14   22.21   19.54
 -10   1  14   33.36   16.70
 -10  -1  14   24.24   12.38
  10  -1 -13   32.75   23.95
  10   1 -13   31.39   17.01
 -10   1  13   32.55   12.98
 -10  -1  13   27.09   17.29
  10  -1 -12    4.83    7.59
  10   1 -12    7.19    8.90
 -10   1  12    9.27    3.89
 -10  -1  12    7.17    5.72
  10  -1 -11   12.71    7.91
 -10   1  11   18.83    8.55
 -10  -1  11   14.20    7.61
  10  -1 -10  119.12   16.69
 -10   1  10  116.22   11.84
 -10  -1  10  112.82   17.07
  10  -1  -9  273.14   28.69
 -10   1   9  273.93   18.21
 -10  -1   9  283.93   18.99
  10  -1  -8   -1.05    2.04
  10   1  -8    0.22    1.19
  10  -1  -8   -1.07    5.56
 -10   1   8    1.09    2.04
 -10  -1   8    1.29    2.79
  10  -1  -7  200.59   18.60
  10   1  -7  235.87   19.91
  10  -1  -7  195.60   20.47
 -10   1   7  224.52   19.58
 -10  -1   7  187.12   17.49
  10  -1  -6   31.67    8.92
  10   1  -6   26.65    5.93
  10  -1  -6   37.95   18.74
 -10   1   6   24.74   13.13
 -10  -1   6   32.57   15.71
  10  -1  -5   99.51   13.86
  10   1  -5   87.99   11.54
  10  -1  -5  114.04   16.59
 -10   1   5   84.12   12.32
 -10  -1   5  104.49   13.10
  10  -1  -4   14.06    7.80
  10   1  -4   13.60    7.46
  10  -1  -4   13.10    7.40
 -10   1   4   12.26    7.89
 -10  -1   4   12.66    6.78
  10  -1  -3  595.44   29.03
  10   1  -3  600.53   30.88
  10  -1  -3  574.89   29.42
 -10   1   3  597.56   28.26
 -10  -1   3  571.09   33.86
  10  -1  -2   89.26   12.07
  10   1  -2   81.03   12.29
  10  -1  -2   93.72   12.48
 -10   1   2   93.08   20.27
 -10  -1   2   83.22    9.60
  10  -1  -1  110.46   12.50
  10   1  -1  127.52   17.60
  10  -1  -1  109.78   13.02
 -10   1   1  124.21   21.61
 -10  -1   1  104.86   11.38
  10  -1   0   73.46    9.54
  10   1   0   78.94   12.22
  10  -1   0   83.75   12.15
 -10   1   0   82.83    9.38
 -10  -1   0   76.58   10.13
  10  -1   1  125.98   14.76
  10   1   1  116.50   13.33
  10  -1   1  117.49   12.86
 -10   1  -1  110.95   12.14
  10  -1   2   92.43   11.66
  10   1   2   85.37   10.84
  10  -1   2   77.41   10.10
  10  -1   3  611.47   32.64
  10   1   3  600.75   33.40
  10  -1   3  539.36   26.33
  10  -1   4   16.74   11.02
  10   1   4   12.38    9.50
  10  -1   4   11.11    8.15
  10  -1   5   82.08   13.36
  10   1   5  101.33   15.81
  10  -1   5   80.89   10.65
  10  -1   6   26.69   12.32
  10   1   6   28.12   12.80
  10  -1   6   22.79    8.62
  10  -1   7  219.11   22.21
  10   1   7  195.24   18.92
  10  -1   8   -0.99    5.22
  10   1   8    1.43    4.60
  10  -1   9  274.35   19.92
  10   1   9  276.78   20.10
  10  -1  10  100.91    9.40
  10   1  10  118.09   18.68
  10  -1  11   21.41   13.55
  10   1  11   12.67   10.50
  10  -1  12    9.92    5.15
  10   1  12    7.74    6.31
  10  -1  13   27.80   21.08
  10   1  13   28.92   21.38
  10  -1  14   18.72   19.30
  10   1  14   27.39   14.45
  10  -1  15  167.41   17.93
  10   1  15  164.32   17.34
  10  -1  16   22.97   14.99
  10   1  16   16.98   13.33
  10  -1  17    1.81    4.10
  10   1  17    1.55    5.00
  10  -2 -17   46.07   27.12
  10   2 -17   51.04   22.88
 -10   2  17   55.74   10.22
 -10  -2  17   53.21   18.76
  10  -2 -16   46.00   18.21
  10   2 -16   39.50   20.71
 -10   2  16   50.48   12.84
 -10  -2  16   35.55    8.48
  10  -2 -15   10.41   11.34
 -10   2  15   13.71    6.76
 -10  -2  15   11.51    7.23
  10  -2 -14   49.16   11.81
  10   2 -14   50.50    9.97
 -10   2  14   54.92   18.46
 -10  -2  14   34.84   17.37
  10  -2 -13  103.98   28.31
 -10   2  13  107.75   20.19
 -10  -2  13  110.13    9.54
  10  -2 -12   81.13   13.71
 -10   2  12   81.75    8.64
 -10  -2  12   73.83   13.12
  10  -2 -11  189.93   17.20
 -10   2  11  181.89   13.43
 -10  -2  11  191.36   14.56
  10  -2 -10   75.90   28.69
 -10   2  10   92.06   11.55
 -10  -2  10   81.98    9.31
  10  -2  -9   13.79    5.37
  10   2  -9   13.35    5.77
  10  -2  -9   17.57   10.29
 -10   2   9   14.33   11.27
 -10  -2   9   16.11   11.63
  10  -2  -8   78.16   17.07
  10   2  -8   82.85   10.33
  10  -2  -8   90.88   12.89
 -10   2   8   70.83   15.44
 -10  -2   8   89.24   12.07
  10  -2  -7   42.99    5.47
  10   2  -7   40.94   12.99
  10  -2  -7   38.42   18.36
 -10   2   7   43.63   18.30
 -10  -2   7   46.21   18.22
  10  -2  -6   41.86    8.82
  10   2  -6   55.68    5.82
  10  -2  -6   51.11   13.65
 -10   2   6   63.36   17.99
 -10  -2   6   43.88   15.21
  10  -2  -5  205.60   11.73
  10   2  -5  198.25    9.92
  10  -2  -5  201.21   11.72
 -10   2   5  190.40    8.34
 -10  -2   5  202.32   11.61
  10  -2  -4   60.74   11.51
  10   2  -4   81.60   13.31
  10  -2  -4   60.83   10.78
 -10   2   4   79.52   10.08
 -10  -2   4   61.73    9.93
  10  -2  -3   41.42    8.41
  10   2  -3   25.56   10.47
 -10   2   3   25.81   12.31
 -10  -2   3   30.54   13.74
  10  -2  -2   94.66   11.55
  10   2  -2   85.53   13.61
  10  -2  -2   96.22   11.83
 -10   2   2   83.64   10.59
 -10  -2   2   99.52   11.20
  10  -2  -1  231.54   16.78
  10   2  -1  248.29   18.07
  10  -2  -1  233.34   18.40
 -10   2   1  269.84   18.18
 -10  -2   1  232.29   19.53
  10  -2   0  236.48   17.12
  10   2   0  252.44   21.71
  10  -2   0  261.20   19.10
 -10   2   0  273.91   17.87
 -10  -2   0  286.31   19.23
  10  -2   1  247.79   19.19
  10   2   1  238.49   18.01
  10  -2   1  238.42   17.02
 -10   2  -1  255.63   17.04
  10  -2   2   88.08   11.73
  10   2   2  101.08   18.86
  10  -2   2   83.04   10.23
  10  -2   3   26.64   13.53
  10   2   3   32.60   19.48
  10  -2   3   23.01    8.51
  10  -2   4   78.04   16.25
  10   2   4   62.47   12.40
  10  -2   4   72.20   10.62
  10  -2   5  191.41   14.84
  10   2   5  204.29   12.29
  10  -2   5  173.61    8.17
  10  -2   6   65.82   19.47
  10   2   6   48.25   16.72
  10  -2   6   55.50    4.52
  10  -2   7   41.84   14.99
  10   2   7   34.88   14.71
  10  -2   8   79.56   30.89
  10   2   8   95.94   29.00
  10  -2   9   13.89    4.42
  10   2   9   19.54   12.12
  10  -2  10   89.05   11.66
  10   2  10   85.72   11.35
  10  -2  11  164.96   14.98
  10   2  11  196.26   17.30
  10  -2  12   83.90    9.88
  10   2  12   82.55   19.39
  10  -2  13  120.01   11.42
  10   2  13  102.19   10.67
  10  -2  14   62.79    9.69
  10   2  14   40.79   16.56
  10  -2  15   10.65    8.44
  10   2  15   10.44   15.93
  10  -2  16   45.05    7.90
  10   2  16   37.92   26.22
  10  -2  17   50.22   11.16
  10   2  17   54.95    8.36
  10  -3 -16   40.91   13.22
  10   3 -16   32.91   19.77
 -10   3  16   41.98   23.14
 -10  -3  16   39.87   26.39
  10  -3 -15   27.22   26.04
 -10   3  15   33.08    8.24
 -10  -3  15   32.88   22.09
  10  -3 -14   20.01   11.42
 -10   3  14   22.61   10.63
 -10  -3  14   15.23    9.23
  10  -3 -13   50.94   10.55
 -10   3  13   47.71   19.75
 -10  -3  13   56.10   24.77
 -10   3  12   51.34    9.11
 -10  -3  12   56.92   23.98
  10  -3 -11   32.06   16.07
 -10   3  11   19.99    9.89
 -10  -3  11   23.51   12.52
  10  -3 -10  143.38   18.85
 -10   3  10  129.53   12.63
 -10  -3  10  133.47   15.86
  10  -3  -9  126.78    8.94
  10   3  -9  142.45   12.33
  10  -3  -9  147.11   17.18
 -10   3   9  131.38   10.29
 -10  -3   9  124.73   15.84
  10  -3  -8  197.84   14.00
  10   3  -8  181.06   15.30
  10  -3  -8  204.07   19.60
 -10   3   8  190.56   16.88
 -10  -3   8  188.77   14.62
  10  -3  -7   93.01   11.00
  10   3  -7   97.38   10.78
  10  -3  -7   90.87   12.85
 -10   3   7   99.48   17.70
 -10  -3   7   85.55   12.82
  10  -3  -6  334.46   27.01
  10   3  -6  166.57   17.26
  10  -3  -6  164.72   16.42
 -10   3   6  167.04   18.64
 -10  -3   6  160.36   19.35
  10  -3  -5   14.36    7.02
  10   3  -5   12.38    6.81
  10  -3  -5   12.19    6.03
 -10   3   5   11.24    5.30
 -10  -3   5   11.08    6.36
  10  -3  -4  265.29   16.07
  10   3  -4  279.75   14.31
  10  -3  -4  242.56   15.88
 -10   3   4  259.19   11.90
 -10  -3   4  274.90   13.47
  10  -3  -3  419.50   18.34
  10   3  -3  420.93   19.18
  10  -3  -3  384.40   17.52
 -10   3   3  426.26   17.41
 -10  -3   3  429.72   18.67
  10  -3  -2   58.15    7.58
  10   3  -2   70.79    8.44
  10  -3  -2   57.35    8.10
 -10   3   2   72.29    9.85
 -10  -3   2   60.38    6.95
  10  -3  -1   75.64    9.78
  10   3  -1   65.26   11.60
  10  -3  -1   80.48   13.33
 -10   3   1   67.15    9.21
 -10  -3   1   69.25    8.51
  10  -3   0   36.23   19.59
  10   3   0   39.45   10.08
  10  -3   0   32.47    5.47
 -10   3   0   31.92    6.20
 -10  -3   0   36.53    6.40
  10  -3   1   68.34    9.92
  10   3   1   71.83   10.82
  10  -3   1   65.20    7.86
 -10   3  -1   79.07   11.41
  10  -3   2   75.30   10.26
  10   3   2   56.39    7.82
  10  -3   2   65.58   12.10
 -10   3  -2   63.23    6.51
  10  -3   3  413.83   19.86
  10   3   3  415.85   20.18
  10  -3   3  399.40   19.03
  10  -3   4  270.29   19.93
  10   3   4  262.46   17.43
  10  -3   4  261.70   11.59
  10  -3   5    9.60    4.74
  10   3   5   17.49   11.36
  10  -3   5    7.84    5.55
  10  -3   6  171.80   17.13
  10   3   6  171.26   17.15
  10  -3   6  177.75   15.19
  10  -3   7   88.70   11.83
  10   3   7   86.99   12.65
  10  -3   8  178.16   19.02
  10   3   8  202.25   18.51
  10  -3   9  130.56   11.87
  10   3   9  133.42   12.27
  10  -3  10  140.85   15.41
  10   3  10  132.61   22.90
  10  -3  11   17.20   12.40
  10   3  11   19.02   19.46
  10  -3  12   60.82    9.17
  10   3  12   54.93   32.57
  10  -3  13   41.97   21.61
  10   3  13   60.44    8.99
  10  -3  14   25.02    8.17
  10   3  14   14.55   11.41
  10  -3  15   33.43    9.76
  10   3  15   20.49   23.77
  10  -3  16   32.18   24.77
  10   3  16   40.46   20.28
  10  -4 -16   14.55   21.81
 -10   4  16   23.87   22.02
 -10  -4  16   20.26   18.47
  10  -4 -15    2.04    5.59
 -10   4  15    2.05    2.58
 -10  -4  15    2.16    2.73
  10  -4 -14  108.64   14.99
 -10   4  14  116.29   12.86
 -10  -4  14   98.46   11.27
 -10   4  13   61.84   19.92
 -10  -4  13   52.47    8.57
  10  -4 -12   48.55   32.76
 -10   4  12   46.86   23.86
 -10  -4  12   47.37   12.14
  10  -4 -11  161.60   16.71
 -10   4  11  158.87   13.63
 -10  -4  11  157.50   16.86
  10  -4 -10   95.13   25.83
 -10   4  10   91.42   13.81
 -10  -4  10   95.63   12.62
  10  -4  -9    1.47    1.43
  10   4  -9    1.73    2.84
  10  -4  -9    3.11    4.23
 -10   4   9    2.35    2.68
 -10  -4   9    1.49    2.14
  10  -4  -8   54.01   11.59
  10   4  -8   68.29   10.90
  10  -4  -8   58.62   28.07
 -10   4   8   78.37    9.55
 -10  -4   8   58.36   10.23
  10  -4  -7  275.63   14.63
  10   4  -7  266.28   15.67
  10  -4  -7  281.59   23.51
 -10   4   7  275.27   19.39
 -10  -4   7  270.18   20.37
  10  -4  -6   65.87   13.43
  10   4  -6   46.15    4.85
  10  -4  -6   63.25   12.58
 -10   4   6   42.91   15.01
 -10  -4   6   67.25    8.94
  10  -4  -5  311.14   23.02
  10   4  -5  303.10   22.42
  10  -4  -5  310.12   24.21
 -10   4   5  307.93   21.92
 -10  -4   5  317.07   23.43
  10   4  -4  137.11    8.65
  10  -4  -4  146.62   16.36
 -10   4   4  139.95    7.82
 -10  -4   4  163.68    9.18
  10  -4  -3   63.94   11.53
  10   4  -3   50.91    9.64
  10  -4  -3   58.36   12.26
 -10   4   3   56.58    8.64
 -10  -4   3   56.66   10.13
  10  -4  -2  225.42   12.40
  10   4  -2  249.44   15.61
  10  -4  -2  242.71   15.18
 -10   4   2  253.14   12.78
 -10  -4   2  250.94   12.82
  10  -4  -1  340.81   16.54
  10   4  -1  334.62   25.09
  10  -4  -1  345.23   16.47
 -10   4   1  377.48   15.44
 -10  -4   1  359.72   16.78
  10  -4   0  151.00    9.89
  10   4   0  130.67   10.99
  10  -4   0  149.32   10.13
 -10   4   0  157.69    8.75
  10  -4   1  341.69   20.69
  10   4   1  336.16   16.27
  10  -4   1  335.82   15.45
 -10   4  -1  343.28   15.33
  10  -4   2  259.93   17.28
  10   4   2  239.92   12.86
  10  -4   2  256.85   14.32
 -10   4  -2  260.69   11.70
  10  -4   3   50.90   10.36
  10   4   3   61.54   12.26
  10  -4   3   49.71   10.52
  10  -4   4  138.95   11.78
  10   4   4  166.73   10.77
  10  -4   4  142.31    8.78
  10  -4   5  285.90   25.81
  10   4   5  281.33   22.47
  10  -4   5  305.18   20.92
  10  -4   6   38.88   11.96
  10   4   6   61.17   18.56
  10  -4   6   41.45    4.58
  10  -4   7  259.35   17.33
  10   4   7  262.91   22.40
  10  -4   8   74.68   17.77
  10   4   8   53.44    9.83
  10  -4   9    1.98    3.67
  10   4   9    1.70    5.00
  10  -4  10  111.86   15.22
  10   4  10  100.22   13.46
  10  -4  11  165.63   16.40
  10   4  11  157.05   21.73
  10  -4  12   41.02   17.69
  10   4  12   37.85   26.17
  10  -4  13   54.69   23.88
  10   4  13   57.99   28.77
  10  -4  14   96.96   15.87
  10   4  14   96.93   12.38
  10  -4  15    4.37    4.44
  10   4  15    3.16    5.53
  10  -4  16   19.27   25.33
  10   4  16   24.40    8.24
  10  -5 -16   19.72   17.50
 -10   5  16   19.60   16.55
 -10  -5  16   22.99   12.92
  10  -5 -15   15.51    6.79
 -10   5  15   12.52    7.29
 -10  -5  15   13.04    6.08
  10  -5 -14   81.06   29.31
 -10   5  14   95.47   11.04
 -10  -5  14   97.26   12.54
  10  -5 -13    3.31    3.29
 -10   5  13    4.88    3.78
 -10  -5  13    6.07    5.75
  10  -5 -12  108.52   17.84
 -10   5  12  108.45   26.67
 -10  -5  12  108.67   11.34
  10  -5 -11    7.48    6.64
 -10   5  11   11.33    6.51
 -10  -5  11    5.50    5.84
  10  -5 -10  195.90   17.81
 -10   5  10  235.83   15.48
 -10  -5  10  212.81   14.97
  10  -5  -9   22.93   14.67
  10   5  -9   14.83   12.54
  10  -5  -9   45.74   20.51
 -10   5   9   28.99   16.73
 -10  -5   9   17.97   15.23
  10  -5  -8  350.51   23.13
  10   5  -8  309.36   19.49
  10  -5  -8  339.45   40.02
 -10   5   8  306.88   22.13
 -10  -5   8  323.29   20.48
  10  -5  -7   66.64   11.13
  10   5  -7   69.39    9.80
  10  -5  -7   76.07   11.60
 -10   5   7   68.00   17.83
 -10  -5   7   71.06    9.16
  10  -5  -6  240.54   18.22
  10   5  -6  186.35   16.20
  10  -5  -6  217.67   26.80
 -10   5   6  216.63   15.62
 -10  -5   6  198.76   14.86
  10  -5  -5  126.15   12.37
  10   5  -5  117.46   17.66
  10  -5  -5  108.20   12.32
 -10   5   5  101.91   14.60
 -10  -5   5   99.73   11.10
  10  -5  -4  385.95   27.50
  10   5  -4  416.02   29.82
  10  -5  -4  381.43   29.08
 -10   5   4  452.17   31.02
 -10  -5   4  387.29   27.23
  10  -5  -3   50.99   20.86
  10   5  -3   24.86    8.11
  10  -5  -3   50.05   18.84
 -10   5   3   43.69    5.17
 -10  -5   3   25.21   12.66
  10   5  -2  429.77   31.98
  10  -5  -2  435.82   21.30
 -10   5   2  420.08   22.50
 -10  -5   2  443.24   28.91
  10  -5  -1  132.45   16.72
  10   5  -1   79.34   12.52
  10  -5  -1   76.09   11.36
 -10   5   1   84.49   10.79
 -10  -5   1   75.54   11.70
  10  -5   0  698.65   43.02
  10   5   0  659.01   29.50
  10  -5   0  628.86   37.05
 -10   5   0  677.18   24.31
  10  -5   1   88.88   12.57
  10   5   1   83.98   19.96
  10  -5   1   80.95   11.71
 -10   5  -1   80.78   15.10
  10  -5   2  432.47   20.98
  10   5   2  455.24   23.16
  10  -5   2  409.63   27.03
 -10   5  -2  454.13   16.95
  10  -5   3   49.35   15.04
  10   5   3   25.98   16.13
  10  -5   3   46.43   16.51
 -10   5  -3   36.67    8.18
  10  -5   4  445.71   33.60
  10   5   4  403.64   34.97
  10  -5   4  435.99   32.86
  10  -5   5  125.72   14.15
  10   5   5  106.88   14.04
  10  -5   5  114.10   10.75
  10  -5   6  227.58   16.30
  10   5   6  182.75   16.35
  10  -5   7   72.87   16.86
  10   5   7   64.80   11.18
  10  -5   8  310.58   23.33
  10   5   8  347.78   24.20
  10  -5   9   33.35   22.70
  10   5   9   19.11   10.47
  10  -5  10  236.58   18.82
  10   5  10  215.98   22.14
  10  -5  11    8.20    7.15
  10   5  11    4.35    4.64
  10  -5  12  102.34   11.55
  10   5  12  112.25   15.85
  10  -5  13    8.52    7.08
  10   5  13    2.47    4.12
  10  -5  14  126.37   35.44
  10   5  14   89.32   15.68
  10  -5  15   49.78   36.51
  10   5  15   13.27   11.89
  10  -5  16   26.14   16.01
  10   5  16   15.46   19.17
  10  -6 -15   -0.04    5.58
 -10   6  15    2.03    3.35
 -10  -6  15    2.20    4.73
  10  -6 -14   64.77   30.92
 -10   6  14   58.62    8.79
 -10  -6  14   55.23   30.10
  10  -6 -13  110.78   14.71
 -10   6  13  137.61   14.68
 -10  -6  13  121.90   13.60
  10  -6 -12   19.71   10.51
 -10   6  12   18.02   10.80
 -10  -6  12   18.08    6.60
  10  -6 -11  228.75   17.02
 -10   6  11  223.80   12.41
 -10  -6  11  187.35   14.74
  10  -6 -10   94.15   14.96
 -10   6  10   72.20    8.23
 -10  -6  10   79.72    9.88
  10  -6  -9    1.09    1.84
  10   6  -9    1.25    3.78
  10  -6  -9    4.82    4.55
 -10   6   9    2.04    3.44
 -10  -6   9    1.79    3.26
  10  -6  -8   35.18    7.44
  10   6  -8   25.69    5.78
  10  -6  -8   43.18   20.74
 -10   6   8   28.24   11.84
 -10  -6   8   37.53   15.43
  10  -6  -7  129.79   24.53
  10   6  -7  125.14   11.03
  10  -6  -7  127.41   13.33
 -10   6   7  115.49   15.58
 -10  -6   7  124.49   16.85
  10  -6  -6   20.64    7.08
  10   6  -6   11.02   11.99
  10  -6  -6   17.36   10.06
 -10   6   6   16.24    9.00
 -10  -6   6   15.19    9.34
  10  -6  -5   76.11   22.20
  10   6  -5   93.29   10.57
  10  -6  -5   78.83   17.28
 -10   6   5  103.81   12.69
 -10  -6   5   77.52    9.48
  10  -6  -4   67.22   19.84
  10   6  -4   50.56    6.02
  10  -6  -4   62.74   21.98
 -10   6   4   54.77   11.45
 -10  -6   4   56.52    6.03
  10  -6  -3    9.67    5.83
  10   6  -3   10.95    8.64
 -10   6   3   10.21    4.88
 -10  -6   3    7.31    5.04
  10  -6  -2  315.78   24.65
  10   6  -2  288.08   21.68
  10  -6  -2  290.61   22.35
 -10   6   2  292.92   20.11
 -10  -6   2  301.25   22.20
  10  -6  -1  371.85   26.90
  10   6  -1  321.68   30.81
  10  -6  -1  363.00   26.50
 -10   6   1  354.72   25.74
 -10  -6   1  364.34   26.96
  10  -6   0   33.20   16.32
  10   6   0    5.27    5.24
  10  -6   0   26.62    9.92
 -10   6   0   13.85    6.96
  10  -6   1  452.75   33.71
  10   6   1  370.42   32.45
  10  -6   1  349.94   24.94
 -10   6  -1  367.43   27.47
  10   6   2  304.66   23.48
  10  -6   2  320.41   24.00
 -10   6  -2  306.61   23.45
  10  -6   3   20.30   15.47
  10   6   3   10.82    5.71
 -10  -6  -3   11.24    5.29
  10  -6   3   11.69    5.83
 -10   6  -3    6.92    4.54
  10  -6   4   85.40   41.22
  10   6   4   57.27   10.27
 -10  -6  -4   42.12    8.56
  10  -6   4   53.32    6.34
 -10   6  -4   58.30    5.96
  10  -6   5  121.54   16.93
  10   6   5   71.89   10.24
 -10  -6  -5  106.75   11.54
  10  -6   5  102.82   10.49
  10  -6   6   25.77   14.61
  10   6   6   12.72   10.27
 -10  -6  -6   15.12    3.97
  10  -6   6   12.44    8.43
  10  -6   7  161.51   18.20
  10   6   7  136.37   13.01
 -10  -6  -7  115.64    9.78
  10  -6   8   42.05   23.56
  10   6   8   33.41   15.62
 -10  -6  -8   21.13    7.43
  10  -6   9    0.09    7.67
  10   6   9    2.77    3.76
 -10  -6  -9    0.47    1.52
  10  -6  10  193.59   48.62
  10   6  10   83.12   16.35
  10   6  11  221.61   14.76
  10  -6  12   26.57   18.56
  10   6  12   16.42    8.23
  10  -6  13  147.65   17.69
  10   6  13  104.07   15.56
  10  -6  14   73.10   11.22
  10   6  14   65.95   11.96
  10  -6  15    3.60    4.12
  10   6  15   -0.18    2.80
  10  -7 -15    2.88    5.32
 -10   7  15    8.37    5.63
 -10  -7  15    7.36    4.98
  10  -7 -14   31.50   26.37
 -10   7  14   47.35   10.70
 -10  -7  14   39.72   13.71
  10  -7 -13   10.70    7.55
 -10   7  13   10.05    4.93
 -10  -7  13    9.37    5.74
  10  -7 -12   21.68   16.33
 -10   7  12   31.76   10.09
 -10  -7  12   26.60    9.58
  10  -7 -11   12.23    9.95
 -10   7  11   12.13    7.95
 -10  -7  11   12.93    5.88
  10  -7 -10   63.78   12.99
 -10   7  10   84.57    7.54
 -10  -7  10   72.59   10.66
  10  -7  -9   30.55    9.01
  10   7  -9   40.68    4.83
  10  -7  -9   34.41   15.88
 -10   7   9   41.18   13.52
 -10  -7   9   32.62   13.09
  10  -7  -8  175.44   15.07
  10   7  -8  190.81   13.94
  10  -7  -8  186.66   16.29
 -10   7   8  192.85   14.25
 -10  -7   8  189.22   15.34
  10  -7  -7   88.11    9.58
  10   7  -7   79.92   14.12
  10  -7  -7   89.68   16.04
 -10   7   7   81.88   14.48
 -10  -7   7   78.24    8.21
  10  -7  -6  125.43   16.74
  10   7  -6  118.77   17.04
  10  -7  -6  119.21   12.09
 -10   7   6  137.51   18.98
 -10  -7   6  120.61   10.30
  10  -7  -5   33.52    8.97
  10   7  -5   39.62    5.77
  10  -7  -5   29.72   22.33
 -10   7   5   39.95    7.83
 -10  -7   5   31.79   13.38
  10  -7  -4   50.76   20.61
  10   7  -4   48.06    8.58
  10  -7  -4   47.81    8.69
 -10   7   4   52.09    9.35
 -10  -7   4   44.34   18.31
  10  -7  -3    7.91    3.41
  10   7  -3   22.40   16.66
  10  -7  -3   18.52    9.17
 -10   7   3   19.09    6.29
 -10  -7   3   13.52    7.25
  10  -7  -2  174.44   17.49
  10   7  -2  195.58   15.86
  10  -7  -2  179.92   29.67
 -10   7   2  208.00   14.63
 -10  -7   2  174.12   13.80
  10  -7  -1   19.34    6.12
  10   7  -1   16.91   18.30
  10  -7  -1   19.95   10.09
 -10   7   1   18.86    4.24
 -10  -7   1   13.00    4.21
  10  -7   0   76.69   10.81
  10   7   0   77.74   12.99
 -10  -7   0   99.09   11.55
  10  -7   0   93.80   11.51
 -10   7   0   80.83   15.80
  10  -7   1   23.27   13.81
  10   7   1   16.14    9.98
 -10  -7  -1   19.96    9.18
  10  -7   1   26.92   11.57
 -10   7  -1   16.20    6.70
  10  -7   2  190.23   19.52
  10   7   2  167.87   18.53
 -10  -7  -2  192.47   14.12
  10  -7   2  196.02   14.46
 -10   7  -2  175.25   12.13
  10  -7   3   20.30   11.52
  10   7   3   10.78    8.98
 -10  -7  -3   21.65   13.58
  10  -7   3   15.44   12.27
 -10   7  -3   11.14    4.85
  10  -7   4   49.82   13.81
  10   7   4   53.40   20.77
 -10  -7  -4   50.58    8.44
  10  -7   4   49.88    6.04
 -10   7  -4   38.87    9.09
  10  -7   5   44.16   19.72
  10   7   5   30.96   21.50
 -10  -7  -5   36.28    6.65
  10  -7   5   43.60    4.82
 -10   7  -5   33.79    3.70
  10  -7   6  129.96   12.43
  10   7   6  127.65   13.31
 -10  -7  -6  129.86   11.15
  10  -7   6  119.92    8.72
  10  -7   7   99.88   10.41
  10   7   7   89.96   10.92
 -10  -7  -7  102.16    6.97
  10  -7   8  186.67   15.65
  10   7   8  197.40   16.17
 -10  -7  -8  171.65   12.89
  10  -7   9   44.99   17.21
  10   7   9   26.96   16.23
 -10  -7  -9   39.91    4.81
  10  -7  10   82.48   22.95
  10   7  10   78.21   12.37
  10  -7  11   10.08   11.08
  10   7  11    8.85    7.85
  10  -7  12   37.37   24.18
  10   7  12   19.38   24.56
  10  -7  13   10.31    4.05
  10   7  13    6.35    4.40
  10  -7  14   45.19   30.16
  10   7  14   39.41   23.54
  10  -7  15   13.08    9.11
  10   7  15    5.65    4.95
  10  -8 -14   21.63   18.75
 -10  -8  14   21.58   18.79
  10  -8 -13   17.41   18.01
 -10   8  13   14.76   11.26
 -10  -8  13   18.30    9.93
  10  -8 -12    3.88    5.64
 -10   8  12    1.38    3.06
 -10  -8  12    2.50    2.72
  10  -8 -11   43.24   30.34
 -10   8  11   46.99   17.20
 -10  -8  11   50.42   24.61
  10  -8 -10   66.83   27.52
 -10   8  10   78.12    6.77
 -10  -8  10   77.19   14.86
  10  -8  -9   34.44   11.34
  10   8  -9   42.38    6.43
  10  -8  -9   44.12   17.32
 -10   8   9   52.71    8.37
 -10  -8   9   47.47    6.48
  10  -8  -8   17.26   13.68
  10   8  -8   20.53    6.68
  10  -8  -8   26.72   13.19
 -10   8   8   20.53    6.69
 -10  -8   8   24.68   12.53
  10  -8  -7  110.20   16.44
  10  -8  -7  104.77   20.78
 -10   8   7   92.16   13.09
 -10  -8   7  102.56   12.72
  10  -8  -6  161.61   15.00
  10   8  -6  165.63   21.30
  10  -8  -6  167.17   23.44
 -10   8   6  140.45   12.76
 -10  -8   6  173.97   10.21
  10  -8  -5   71.65   17.91
  10   8  -5   77.30   13.73
  10  -8  -5   99.62   12.27
 -10   8   5   71.41    7.40
 -10  -8   5   83.79    9.02
  10  -8  -4   88.00   12.72
  10   8  -4   99.69   10.12
  10  -8  -4   89.90    8.86
 -10   8   4   99.86    8.11
 -10  -8   4   95.38   10.03
  10  -8  -3   22.78   12.43
  10   8  -3   21.31   12.19
  10  -8  -3   16.85   18.14
 -10   8   3   15.95    6.53
 -10  -8   3   23.83   11.00
  10  -8  -2  117.00   23.57
  10   8  -2  126.70   12.00
  10  -8  -2  113.49   11.68
 -10   8   2  119.23    8.12
 -10  -8   2  110.09   12.01
  10  -8  -1  186.18   22.50
  10   8  -1  163.44   16.51
 -10  -8   1  207.44   13.12
  10  -8  -1  173.96   22.57
 -10   8   1  171.63   14.43
 -10  -8   1  194.76   18.92
  10  -8   0   18.32   21.44
  10   8   0   22.77    9.35
 -10  -8   0   21.84    8.54
  10  -8   0   18.34   10.08
 -10   8   0   16.66    4.58
 -10  -8   0   21.86    9.69
  10  -8   1  174.20   27.06
  10   8   1  187.21   18.49
 -10  -8  -1  171.34   19.92
  10  -8   1  179.84   17.44
 -10   8  -1  170.20   14.61
  10  -8   2  130.74   15.45
  10   8   2  116.36   12.00
 -10  -8  -2  120.20   17.58
  10  -8   2  128.88   11.71
  10  -8   3   14.13   12.16
  10   8   3   24.18   16.12
 -10  -8  -3   19.45   13.23
  10  -8   3   15.52   12.34
  10  -8   4  108.06   12.47
  10   8   4  101.15   11.00
 -10  -8  -4  112.01   10.58
  10  -8   4   98.80   14.71
  10  -8   5   79.81   31.09
  10   8   5   61.93   14.99
 -10  -8  -5   73.05    8.43
  10  -8   5   75.39    8.50
  10  -8   6  151.09   21.32
  10   8   6  165.23   17.23
 -10  -8  -6  159.56   13.78
  10  -8   7   99.72   31.91
  10   8   7   93.81   19.99
 -10  -8  -7   90.84   11.19
  10  -8   8   21.49   10.78
  10   8   8   20.61   17.23
 -10  -8  -8   18.12   11.14
  10  -8   9   45.35   16.48
  10   8   9   48.03    8.30
 -10  -8  -9   37.50    8.54
  10  -8  10   74.66   12.17
  10   8  10   69.08   11.50
  10  -8  11   57.67   24.63
  10   8  11   58.96    9.68
  10  -8  12    3.25    5.85
  10   8  12    2.26    3.88
  10  -8  13   14.55   12.59
  10   8  13   16.10   13.58
  10  -8  14   21.04   17.95
  10   8  14   18.09   19.97
  10  -9 -13   35.26   21.21
 -10  -9  13   30.35   20.81
  10  -9 -12   12.42   13.28
 -10  -9  12   13.42    8.95
  10  -9 -11   41.27   15.06
 -10   9  11   36.83   19.36
 -10  -9  11   43.98   17.61
  10  -9 -10   11.41   12.90
 -10   9  10   10.13    5.88
 -10  -9  10   14.08   11.21
  10  -9  -9  115.05    9.55
  10   9  -9  123.64   14.24
  10  -9  -9  111.29   19.51
 -10   9   9  121.22   11.53
 -10  -9   9  131.17   13.34
  10  -9  -8   58.39   12.24
  10   9  -8   57.10    6.19
  10  -9  -8   60.95    9.05
 -10   9   8   68.64    6.19
 -10  -9   8   65.68   23.85
  10  -9  -7   10.47    6.93
  10   9  -7   11.54    8.36
  10  -9  -7   10.67    6.00
 -10   9   7   12.95    7.88
 -10  -9   7   11.94    7.78
  10  -9  -6    2.74    3.52
  10   9  -6    9.96    6.23
  10  -9  -6    2.06    4.22
 -10   9   6    3.53    2.32
 -10  -9   6    4.20    4.59
  10  -9  -5   41.12    9.73
  10   9  -5   46.86   17.44
  10  -9  -5   40.17    6.96
 -10   9   5   35.80    4.47
 -10  -9   5   41.89   17.70
  10  -9  -4   81.45   17.47
  10   9  -4   97.36   17.64
  10  -9  -4   77.52   10.92
 -10   9   4   79.01    5.67
 -10  -9   4   85.64    8.28
  10  -9  -3  363.75   30.35
  10   9  -3  384.45   33.76
 -10  -9   3  367.55   29.28
  10  -9  -3  340.87   27.98
 -10  -9   3  341.15   30.30
  10  -9  -2   55.06   20.71
  10   9  -2   81.96   10.66
 -10  -9   2   69.88   30.16
  10  -9  -2   65.52    9.49
 -10  -9   2   71.23   14.56
  10  -9  -1   63.83   20.81
  10   9  -1   63.50    8.39
 -10  -9   1   80.97   19.06
  10  -9  -1   63.40   32.10
 -10  -9   1   61.00    8.38
  10  -9   0   21.33   13.15
  10   9   0   19.17   17.17
 -10  -9   0   19.76   13.86
  10  -9   0   13.86   13.83
 -10  -9   0   24.26   13.36
  10  -9   1   45.70   23.80
  10   9   1   69.09   10.86
 -10  -9  -1   59.78    6.69
  10  -9   1   55.74    7.53
  10  -9   2   61.15    7.94
  10   9   2   78.69   26.77
 -10  -9  -2   71.26    8.37
  10  -9   2   63.94    6.90
  10  -9   3  341.25   30.02
  10   9   3  375.90   30.84
 -10  -9  -3  333.42   35.51
  10  -9   4   88.48   14.57
  10   9   4   75.74   21.61
 -10  -9  -4   89.60   18.79
  10  -9   4   98.37   13.71
  10  -9   5   44.13   21.50
  10   9   5   33.34   26.88
 -10  -9  -5   43.13    6.57
  10  -9   5   37.34    6.94
  10  -9   6    8.71    5.55
  10   9   6    4.18    4.34
 -10  -9  -6    6.02    4.07
  10  -9   7   14.48    8.52
 -10  -9  -7   11.50    5.36
  10  -9   8   59.16   22.98
  10   9   8   61.09   30.37
 -10  -9  -8   59.97    5.83
  10  -9   9  126.56   16.69
  10   9   9  133.16   19.98
 -10  -9  -9  107.70   20.94
  10  -9  10    8.95    8.51
  10   9  10    4.51    9.14
  10  -9  11   47.37   32.80
  10   9  11   57.97   27.34
  10  -9  12   14.94    7.15
  10   9  12   10.33   13.64
  10  -9  13   35.94   23.51
  10   9  13   29.89   30.30
  10 -10 -13   19.31   13.18
 -10 -10  13   20.47   18.58
  10 -10 -12   66.13   23.48
 -10 -10  12   74.50   14.05
  10 -10 -11   74.50   10.97
 -10 -10  11   75.92   12.59
  10 -10 -10   10.32    8.65
 -10 -10  10   13.27    8.06
  10  10  -9    6.39    5.62
  10 -10  -9   12.51    7.73
 -10 -10   9   10.05    5.36
  10 -10  -8    7.56    6.06
  10  10  -8    5.39    5.97
  10 -10  -8    4.24    3.43
 -10 -10   8    6.67    7.06
  10 -10  -7   59.05   11.64
  10  10  -7   62.65    6.98
  10 -10  -7   62.10   14.55
 -10 -10   7   67.18   12.21
  10 -10  -6   24.36   12.18
  10  10  -6   24.10    9.02
  10 -10  -6   25.91   17.08
 -10 -10   6   29.19   19.34
  10 -10  -5   69.84   11.14
  10  10  -5   54.77   10.86
  10 -10  -5   65.74   15.12
 -10 -10   4   55.04   19.70
  10 -10  -4   61.74    9.04
 -10 -10   4   66.44   10.42
  10 -10  -3    1.33    6.47
  10  10  -3    4.73    5.49
 -10 -10   3    4.77    7.34
  10 -10  -3    6.22    3.85
 -10 -10   3    3.64    3.56
  10 -10  -2   50.64   26.81
  10  10  -2   45.76   15.96
 -10 -10   2   43.56   11.86
  10 -10  -2   52.60   11.21
 -10 -10   2   47.52    6.06
  10 -10  -1  179.66   15.07
  10  10  -1  186.27   15.17
 -10 -10   1  180.27   19.07
  10 -10  -1  191.07   15.64
 -10 -10   1  186.86   14.21
  10 -10   0  324.32   22.35
  10  10   0  305.69   21.97
 -10 -10   0  341.71   21.96
  10 -10   0  319.92   22.49
 -10 -10   0  315.26   28.97
  10 -10   1  187.98   15.90
  10  10   1  190.09   24.45
 -10 -10  -1  188.58   14.55
  10 -10   1  196.39   16.31
  10 -10   2   39.84   26.90
  10  10   2   53.22   20.87
 -10 -10  -2   44.64   16.95
  10 -10   2   45.59    7.91
  10 -10   3    5.21    8.93
  10  10   3    4.02    3.57
 -10 -10  -3    4.67    2.89
  10 -10   3    4.76    3.36
  10 -10   4   82.56   26.69
  10  10   4   65.61   30.37
  10 -10   4   75.56    7.32
  10 -10   5   68.76   11.06
  10  10   5   58.73   14.54
 -10 -10  -5   60.39    8.15
  10 -10   5   65.50    6.90
  10 -10   6   18.66    8.84
  10  10   6   25.01   13.50
 -10 -10  -6   23.78   12.87
  10 -10   7   59.33   20.11
  10  10   7   66.20   24.94
 -10 -10  -7   54.65    9.63
  10 -10   8    7.05    5.39
  10  10   8    8.13    5.92
 -10 -10  -8    6.45    5.55
  10 -10   9    4.12    4.43
  10  10   9    9.05    9.41
 -10 -10  -9    6.15    4.72
  10 -10  10   17.27    7.88
  10  10  10   11.52   13.53
  10 -10  11   63.30   26.05
  10  10  11   77.77   16.00
  10 -10  12   78.62   32.73
  10  10  12   87.89   16.71
  10 -10  13   24.12   13.87
  10  10  13   17.45   27.82
  10 -11 -12    1.47    5.44
 -10 -11  12    2.28    2.81
  10 -11 -11    1.82    3.01
 -10 -11  11    2.21    4.43
  10 -11 -10   24.48   23.75
 -10 -11  10   30.05   13.78
  10  11  -9  168.76   18.14
  10 -11  -9  186.83   23.44
 -10 -11   9  174.69   18.40
  10 -11  -8    5.44    8.27
  10  11  -8   11.47   12.08
  10 -11  -8   12.36   12.50
 -10 -11   8   10.05   11.77
  10 -11  -7  108.04   10.30
  10  11  -7  104.36    9.24
  10 -11  -7  110.78   24.23
 -10 -11   7   99.21   16.42
  10 -11  -6    9.67    6.89
  10  11  -6    7.69    9.44
  10 -11  -6    8.78    8.02
 -10 -11   6   11.24    6.93
  10 -11  -5  143.92   15.52
  10  11  -5  151.37   16.77
  10 -11  -5  143.23   20.43
 -10 -11   5  147.90   18.40
  10 -11  -3  245.70   13.36
  10  11  -3  263.02   15.33
 -10 -11   3  255.87   12.94
  10 -11  -3  248.40   25.19
 -10 -11   3  256.07   12.74
  10 -11  -2   12.59    9.37
  10  11  -2   19.41    6.44
 -10 -11   2   15.77    8.18
  10 -11  -2   19.37   17.87
 -10 -11   2   19.61    9.41
  10 -11  -1   10.47    8.73
  10  11  -1    7.41    9.18
 -10 -11   1   12.50    5.49
  10 -11  -1    9.69    6.13
 -10 -11   1   11.90   10.35
  10 -11   0   12.87    9.01
  10  11   0    7.06   16.04
 -10 -11   0   11.44    6.96
  10 -11   0    7.45    6.46
  10 -11   1   11.50   10.41
  10  11   1   11.10    6.62
 -10 -11  -1    9.68    5.38
  10 -11   1    7.42    6.91
  10 -11   2   17.32    6.80
  10  11   2   13.40   12.67
 -10 -11  -2   25.38    9.42
  10 -11   2   18.99   13.65
 -10 -11  -3  264.68   14.10
  10 -11   3  249.47   15.22
 -10 -11  -4   12.36    7.86
  10 -11   5  160.67   17.64
  10  11   5  116.18   18.80
 -10 -11  -5  136.45   12.66
  10 -11   5  141.52   12.85
  10 -11   6    8.84    7.89
  10  11   6    9.51    4.86
 -10 -11  -6    9.60    6.15
  10 -11   7   99.89   12.12
  10  11   7  103.08   24.58
 -10 -11  -7  108.17    9.36
  10 -11   8   13.01    9.99
  10  11   8   14.58   12.79
 -10 -11  -8    9.92    7.81
  10 -11   9  188.42   20.92
  10  11   9  180.85   21.04
 -10 -11  -9  182.58   17.99
  10 -11  10   39.05   11.07
  10  11  10   22.75   29.43
  10 -11  11    5.60    5.91
  10  11  11    2.69    5.55
  10 -11  12    0.98    3.66
  10  11  12    0.74    3.05
  10 -12 -10   53.61   29.70
 -10 -12  10   65.20   24.02
  10  12  -9   19.11    8.15
  10 -12  -9   17.12   19.01
 -10 -12   9   23.52    9.36
  10  12  -8    7.01    5.44
 -10  12   8    5.04    7.25
  10 -12  -8    2.63    6.94
 -10 -12   8    9.00    5.79
  10 -12  -7    8.88   15.40
  10  12  -7   13.16   18.12
  10 -12  -7   17.96   16.76
 -10 -12   7   21.32   13.15
  10 -12  -6   84.81    8.46
  10  12  -6   79.84    8.29
  10 -12  -6   78.88   10.19
 -10 -12   6   82.48   15.01
  10 -12  -5   34.23    7.40
  10  12  -5   36.97   10.82
 -10 -12   5   39.88   14.83
  10 -12  -5   23.79   25.91
 -10 -12   5   38.84   16.52
  10 -12  -4   64.33   19.72
  10  12  -4   58.56   17.22
 -10 -12   4   67.23   24.07
  10 -12  -4   64.08    9.34
 -10 -12   4   63.37   10.59
  10 -12  -3    2.08    4.70
  10  12  -3    3.04    3.00
 -10 -12   3    2.84    6.32
  10 -12  -3    6.41    5.92
 -10 -12   3    2.48    4.03
  10 -12  -2  153.06   15.31
  10  12  -2  153.52   24.99
 -10 -12   2  148.55   14.40
  10 -12  -2  157.70   16.22
 -10 -12   2  151.45   14.01
  10 -12  -1   17.19   11.23
  10  12  -1   15.55   18.12
 -10 -12   1   22.90    8.87
  10 -12  -1   20.53   11.00
 -10 -12   1   19.82   12.83
  10 -12   0   28.99   16.43
  10  12   0   36.54   10.08
 -10 -12   0   30.67   11.33
  10 -12   0   30.05   15.20
 -10 -12   0   29.01   13.57
  10 -12   1   28.14   17.74
  10  12   1   16.00   16.95
 -10 -12  -1   19.11   15.58
  10 -12   1   17.75   17.06
 -10 -12  -1   19.89   14.93
  10 -12   2  159.65   25.86
  10  12   2  150.57   16.98
 -10 -12  -2  158.09   20.33
  10 -12   2  158.67   16.30
  10 -12   3    5.19    5.76
  10  12   3    7.32    7.89
 -10 -12  -3    4.99    4.40
  10 -12   3    3.50    4.78
  10 -12   4   61.92   25.88
  10  12   4   65.08   25.22
 -10 -12  -4   46.85   13.03
  10 -12   4   52.28   13.51
  10 -12   5   38.24   17.81
  10  12   5   30.70   29.34
 -10 -12  -5   41.49   16.79
  10 -12   5   36.32    7.84
  10 -12   6   92.99   35.70
  10  12   6   79.22   26.21
 -10 -12  -6   72.48    6.64
  10 -12   7   26.37   13.85
  10  12   7   21.03   12.16
 -10 -12  -7   19.81    8.70
  10 -12   8   10.01    6.14
  10  12   8    5.91    5.35
 -10 -12  -8    6.82    8.11
  10 -12   9   24.97   12.50
  10  12   9   12.04   20.74
 -10 -12  -9   20.63    9.50
  10 -12  10   68.87   13.91
  10  12  10   67.96   13.90
  10 -13  -9   35.68   32.25
 -10 -13   9   39.57   17.82
  10  13  -8    3.86    7.64
 -10  13   8    2.13    7.24
  10 -13  -8    6.20    9.22
 -10 -13   8    6.97    4.09
  10  13  -7    5.30   10.17
 -10  13   7    4.57    7.91
  10 -13  -7    4.22    7.97
 -10 -13   7    5.79    4.44
  10 -13  -6    3.66    3.76
  10  13  -6    3.39    4.62
 -10 -13   6    1.95    3.82
  10 -13  -6    3.08    6.80
 -10 -13   6    3.26    2.85
  10 -13  -5   13.68   13.79
  10  13  -5   12.86    8.31
 -10 -13   5    7.56    9.04
  10 -13  -5   11.07    7.94
 -10 -13   5    9.53    5.38
  10 -13  -4    7.68    8.65
  10  13  -4    8.46    7.72
 -10 -13   4    5.26    4.97
  10 -13  -4    5.24    9.03
 -10 -13   4    9.43    4.70
  10 -13  -3   47.07   15.02
  10  13  -3   42.25   12.90
 -10 -13   3   48.21   24.82
  10 -13  -3   41.34   24.01
 -10 -13   3   52.12   10.42
  10 -13  -2   24.93   13.51
  10  13  -2   25.68   20.55
 -10 -13   2   27.79   16.37
  10 -13  -2   18.56   19.16
 -10 -13   2   21.95   16.70
  10 -13  -1   22.25   10.78
  10  13  -1   20.81   18.92
 -10 -13   1   19.04   12.04
  10 -13  -1   14.01   16.09
 -10 -13   1   18.42   14.26
  10 -13   0  106.68   33.07
  10  13   0  106.77   16.50
 -10 -13   0  115.91   28.43
  10 -13   0  108.75   12.80
 -10 -13   0  103.73   11.76
  10 -13   1   27.52   19.78
  10  13   1   21.92   13.36
 -10 -13  -1   23.58   14.28
  10 -13   1   17.75    8.15
 -10 -13  -1   20.68    7.63
  10 -13   2   27.99   14.06
  10  13   2   25.63   10.83
 -10 -13  -2   25.00    7.52
  10 -13   2   18.97   15.20
  10 -13   3   37.79   22.76
  10  13   3   51.43   10.41
 -10 -13  -3   49.05    7.82
  10 -13   3   43.86    6.23
  10 -13   4    8.67    8.13
  10  13   4    8.25    7.82
 -10 -13  -4   10.49    4.89
  10 -13   4    6.52    5.26
  10 -13   5   14.33    7.02
  10  13   5   10.32    6.11
 -10 -13  -5   10.48    8.76
  10 -13   6    8.94    3.96
  10  13   6    4.29    5.92
 -10 -13  -6    2.72    3.36
  10 -13   7   13.35   12.64
  10  13   7    9.75   13.46
 -10 -13  -7    7.79    6.45
  10 -13   8   10.53    7.73
  10  13   8    7.14    8.33
 -10 -13  -8    4.65    5.89
  10 -13   9   41.72   22.97
  10  13   9   48.75   19.06
 -10 -13  -9   45.37    9.94
 -10  14   7    8.98   14.36
 -10 -14   7   12.04    9.00
  10  14  -6    4.65   11.97
 -10  14   6    6.54    8.42
 -10 -14   6   10.64   13.83
  10 -14  -6   11.88    9.49
 -10 -14   6   12.48    7.19
  10 -14  -5   11.48   17.59
  10  14  -5   15.96   16.89
 -10 -14   5   14.90   17.03
  10 -14  -5   13.75   18.04
 -10 -14   5   15.84   12.27
  10 -14  -4   49.00   23.27
  10  14  -4   53.99    9.41
 -10 -14   4   44.17    8.66
  10 -14  -4   47.49   25.74
 -10 -14   4   54.88    8.04
  10 -14  -3   19.87   15.38
  10  14  -3   14.92   18.77
 -10 -14   3   19.32   14.01
  10 -14  -3   23.57   11.97
 -10 -14   3   18.05   11.17
  10 -14  -2   51.05   13.62
  10  14  -2   50.06   17.79
 -10 -14   2   49.80    7.00
  10 -14  -2   39.24   25.45
 -10 -14   2   53.43    6.44
  10 -14  -1    8.06    7.76
  10  14  -1   11.77    9.32
 -10 -14   1   11.80    5.24
  10 -14  -1    9.24    9.57
 -10 -14   1   10.10    9.42
  10 -14   0   69.43   12.97
  10  14   0   58.14   29.35
 -10 -14   0   65.98    7.67
  10 -14   0   70.78   16.48
 -10 -14   0   68.99    7.66
  10 -14   1   11.04    6.33
  10  14   1    9.45    8.16
 -10 -14  -1    7.45    4.62
  10 -14   1   13.65   13.88
 -10 -14  -1    8.90   12.89
  10 -14   2   52.54   20.70
  10  14   2   45.89   18.72
 -10 -14  -2   53.08   16.66
  10 -14   2   53.70   11.72
 -10 -14  -2   40.77   15.40
  10 -14   3   17.89    8.58
  10  14   3   20.67   21.47
 -10 -14  -3   13.31   12.60
  10 -14   3   13.51   13.42
  10 -14   4   45.35   22.17
  10  14   4   51.76    9.38
 -10 -14  -4   45.15    9.67
  10 -14   4   38.49    6.70
  10 -14   5   19.00   11.54
  10  14   5   17.58   16.05
 -10 -14  -5   15.40   14.61
  10 -14   6   16.11   15.57
  10  14   6   13.77   17.68
 -10 -14  -6   10.03   12.72
  10 -14   7   11.89    9.42
 -10 -14  -7   12.47   13.75
  10 -15  -3    7.91    4.52
  10  15  -3    6.85   14.04
 -10 -15   3   14.88    7.95
  10 -15  -3   12.61    6.68
 -10 -15   3   10.84    6.87
  10 -15  -2   15.51   19.56
  10  15  -2   10.75   21.09
 -10 -15   2   23.13   22.02
  10 -15  -2   19.50   20.53
 -10 -15   2   23.15   14.56
  10 -15  -1   17.36   21.89
  10  15  -1   14.87   18.45
 -10 -15   1   14.54   19.47
  10 -15  -1   16.38   21.82
 -10 -15   1   20.42   12.35
  10 -15   0   21.31   18.74
  10  15   0   14.11   20.26
 -10 -15   0   18.70   13.32
  10 -15   0   17.18   25.35
 -10 -15   0   19.51   17.42
  10 -15   1   15.10   14.87
  10  15   1   18.83   20.80
 -10 -15  -1   16.14   13.14
  10 -15   1   12.70   14.11
 -10 -15  -1    9.64   17.06
  10 -15   2   19.94   17.61
  10  15   2   19.47   15.53
 -10 -15  -2   18.48    9.19
  10 -15   2   23.66    7.07
 -10 -15  -2   16.05   16.07
  10 -15   3   12.24    6.40
  10  15   3    7.33    5.97
 -10 -15  -3    8.23   11.89
  10 -15   3    6.30   12.25
  11   0 -16   10.89   13.03
 -11   0  16   19.46   11.11
  11   0 -15    0.10    4.96
 -11   0  15    3.02    3.02
  11   0 -14  257.16   16.52
 -11   0  14  243.57   22.21
  11   0 -13   35.61   17.33
 -11   0  13   38.82   17.04
  11   0 -12   11.06    8.41
 -11   0  12    6.52    3.09
  11   0 -11   17.76    9.92
 -11   0  11    9.68    6.78
  11   0 -10  129.08   17.49
 -11   0  10  131.45   19.35
  11   0  -9   12.67    9.09
 -11   0   9    9.16    5.88
  11   0  -8    0.37    1.64
  11   0  -8    3.17    4.54
 -11   0   8    0.40    2.24
  11   0  -7   13.20    6.21
 -11   0   7    7.69    6.12
  11   0  -6    1.05    2.61
 -11   0   6    1.33    3.78
  11   0  -5    0.83    2.91
 -11   0   5    0.38    2.26
  11   0  -4   35.90    5.41
 -11   0   4   33.30    6.52
  11   0  -3    4.40    3.84
 -11   0   3    7.16    3.39
  11   0  -2  940.07   36.57
 -11   0   2  943.88   34.97
  11   0  -1    9.82    5.18
 -11   0   1    7.52    4.32
  11   0   0   -0.10    4.47
 -11   0   0   -0.65    3.27
  11   0   1   11.33    7.16
 -11   0  -1   10.47    5.96
  11   0   2  967.31   37.73
  11   0   3    9.02    4.87
  11   0   4   40.29    8.96
  11   0   5   -2.30    5.95
  11   0   5    0.69    3.38
  11   0   6    3.18    3.73
  11   0   6    0.26    1.50
  11   0   7   15.22    5.98
  11   0   8    2.61    4.29
  11   0   9    6.80    8.86
  11   0  10  129.62   16.32
  11   0  11   14.57    7.70
  11   0  12    8.01    7.73
  11   0  13   29.28   16.59
  11   0  14  235.37   23.89
  11   0  15    3.61    7.07
  11   0  16    7.23   17.07
  11  -1 -16   13.89   13.46
  11   1 -16   20.96   14.91
 -11   1  16   18.23   15.17
 -11  -1  16   21.66   14.74
  11  -1 -15   23.89   22.52
  11   1 -15   17.36   19.73
 -11   1  15   17.71   17.07
 -11  -1  15   23.51   17.52
  11  -1 -14   41.19   12.59
  11   1 -14   29.48   27.18
 -11   1  14   33.23   21.94
 -11  -1  14   41.00   18.01
  11  -1 -13   67.11   28.13
  11   1 -13   67.93   14.83
 -11   1  13   77.62    8.15
 -11  -1  13   68.74    8.28
  11  -1 -12   10.85   10.30
  11   1 -12   13.09   10.43
 -11   1  12   12.37    8.00
 -11  -1  12   13.09   10.13
  11  -1 -11  138.98   15.44
  11   1 -11  153.34   15.99
 -11   1  11  137.38   12.57
 -11  -1  11  156.02   13.86
  11  -1 -10   82.75   25.14
 -11   1  10  107.79   14.68
 -11  -1  10  126.78   26.57
  11  -1  -9   19.08   12.03
 -11   1   9   21.94   10.29
 -11  -1   9   18.77    9.90
  11  -1  -8    5.79    5.21
  11   1  -8    9.23    6.65
  11  -1  -8    8.90    5.16
 -11   1   8   12.67    6.81
 -11  -1   8    6.95    5.99
  11  -1  -7    9.07    8.51
  11   1  -7   11.53   10.32
  11  -1  -7   12.12    8.45
 -11   1   7    8.62    7.64
 -11  -1   7   12.36    6.70
  11  -1  -6  176.53   13.21
  11   1  -6  165.11   12.60
  11  -1  -6  148.54   13.24
 -11   1   6  158.01   11.94
 -11  -1   6  155.98   17.05
  11  -1  -5    6.66    5.03
  11   1  -5    4.50    2.80
  11  -1  -5    5.03    8.27
 -11   1   5    5.25    4.85
 -11  -1   5    7.12    3.25
  11  -1  -4   18.00   13.74
  11   1  -4    9.45    5.51
  11  -1  -4   18.01   11.82
 -11   1   4   10.78    5.39
 -11  -1   4   14.21    5.67
  11  -1  -3    1.72    3.05
  11   1  -3    4.41    4.07
  11  -1  -3    2.22    1.69
 -11   1   3    4.24    4.26
 -11  -1   3    1.75    3.89
  11  -1  -2  330.43   16.14
  11   1  -2  373.46   16.99
  11  -1  -2  322.35   15.92
 -11   1   2  359.38   23.79
 -11  -1   2  334.43   14.66
  11  -1  -1  401.67   20.03
  11   1  -1  413.19   19.65
  11  -1  -1  368.94   25.61
 -11   1   1  383.28   15.48
 -11  -1   1  413.54   17.71
  11  -1   0   15.49    9.07
  11   1   0   16.18    7.49
  11  -1   0   14.38   10.16
 -11   1   0   13.71    8.04
 -11  -1   0   14.83    5.22
  11  -1   1  390.59   18.73
  11   1   1  399.79   25.33
 -11   1  -1  399.77   15.64
  11  -1   2  376.22   25.19
  11   1   2  334.43   21.87
  11  -1   2  355.27   15.82
  11  -1   3    4.00    4.55
  11   1   3    1.49    3.11
  11  -1   3    1.65    1.81
  11  -1   4   11.52    8.19
  11   1   4   20.24    8.72
  11  -1   4    8.16    6.45
  11  -1   5    8.69    7.80
  11   1   5    8.93    4.47
  11  -1   5    4.64    3.36
  11  -1   6  169.14   14.69
  11   1   6  164.64   16.82
  11  -1   7   12.92    8.15
  11   1   7   16.75    7.43
  11  -1   8   12.51    4.88
  11   1   8   11.55    7.48
  11  -1   9   13.59    8.06
  11   1   9   17.15    9.39
  11  -1  10  115.44   21.03
  11   1  10  119.86   22.09
  11  -1  11  136.89   15.72
  11   1  11  141.77   14.23
  11  -1  12   11.95    7.54
  11   1  12   14.11   13.34
  11  -1  13   60.94    9.32
  11   1  13   64.30   11.01
  11  -1  14   46.40    9.79
  11   1  14   43.63    7.54
  11  -1  15   18.26   16.97
  11   1  15   18.71   18.41
  11  -1  16   19.84   22.12
  11   1  16   17.92   11.11
  11  -2 -16   60.53   10.77
  11   2 -16   54.06   18.99
 -11   2  16   52.92   22.74
 -11  -2  16   52.22   29.59
  11  -2 -15    3.59    4.79
  11   2 -15    3.92    5.12
 -11   2  15    2.39    4.83
 -11  -2  15    3.07    4.13
  11  -2 -14    1.98    6.42
  11   2 -14    1.49    4.33
 -11   2  14    1.44    4.09
 -11  -2  14    2.55    3.32
  11  -2 -13    4.15    5.43
 -11   2  13    7.91    8.94
 -11  -2  13    3.24    2.74
  11  -2 -12   15.59   17.07
 -11   2  12   14.71    8.03
 -11  -2  12   13.77   15.92
  11  -2 -11    6.66    6.95
 -11   2  11    4.42    3.43
 -11  -2  11    5.05    4.20
  11  -2 -10   48.96   28.94
 -11   2  10   48.16   13.99
 -11  -2  10   48.98   18.03
  11  -2  -9  109.49   13.78
 -11   2   9  111.24   14.83
 -11  -2   9  111.49   19.53
  11  -2  -8  610.41   35.07
  11   2  -8  523.21   33.24
  11  -2  -8  519.79   42.45
 -11   2   8  509.07   39.86
 -11  -2   8  530.63   31.30
  11  -2  -7   52.63    5.42
  11   2  -7   58.63    8.91
  11  -2  -7   53.68   23.62
 -11   2   7   67.83   22.46
 -11  -2   7   48.30    6.61
  11  -2  -6    0.95    1.21
  11   2  -6    1.36    1.33
  11  -2  -6   -1.20    4.91
 -11   2   6    1.03    3.71
 -11  -2   6    3.79    5.77
  11  -2  -5   76.59    9.28
  11   2  -5   59.75   11.01
  11  -2  -5   81.06   11.25
 -11   2   5   63.88    9.36
 -11  -2   5   73.19    8.84
  11  -2  -4  508.69   35.55
  11   2  -4  520.73   38.81
  11  -2  -4  468.67   34.17
 -11   2   4  509.11   36.01
 -11  -2   4  481.41   32.99
  11  -2  -3  161.47   15.79
  11   2  -3  153.89   14.36
  11  -2  -3  152.30   14.13
 -11   2   3  145.99   13.80
 -11  -2   3  166.81   15.64
  11  -2  -2   23.42   14.19
  11   2  -2   21.85    8.64
  11  -2  -2   20.07   16.51
 -11   2   2   24.24    9.03
 -11  -2   2   21.25    8.96
  11  -2  -1   56.80    9.58
  11   2  -1   45.27   10.58
  11  -2  -1   54.62   10.19
 -11   2   1   49.06    9.56
 -11  -2   1   58.00    9.36
  11  -2   0   22.57    9.99
  11   2   0   24.06   14.10
  11  -2   0   18.44   11.73
 -11   2   0   20.26    9.50
 -11  -2   0   24.50    9.58
  11  -2   1   59.24   14.28
  11   2   1   53.32   10.91
 -11   2  -1   57.55    8.56
  11  -2   2   23.87   16.15
  11   2   2   18.80   13.31
  11  -2   2   18.01   13.31
 -11   2  -2   20.39    4.31
  11  -2   3  143.46   14.34
  11   2   3  167.35   20.63
  11  -2   3  152.88   13.02
  11  -2   4  500.64   40.97
  11   2   4  455.11   40.02
  11  -2   4  475.02   33.44
  11  -2   5   60.93   19.92
  11   2   5   78.98   11.86
  11  -2   5   54.97    7.48
  11  -2   6    2.01    4.84
  11   2   6    2.68    3.95
  11  -2   7   70.66   30.36
  11   2   7   46.30   15.27
  11  -2   8  514.94   43.24
  11   2   8  573.71   39.45
  11  -2   9  111.78   12.79
  11   2   9  123.54   14.51
  11  -2  10   46.25   23.09
  11   2  10   46.46    9.54
  11  -2  11    5.58    8.33
  11   2  11    6.14    4.68
  11  -2  12   16.31    8.58
  11   2  12   13.45    7.95
  11  -2  13    6.43    6.95
  11   2  13    3.92    7.53
  11  -2  14    2.49    4.85
  11   2  14    1.94    5.57
  11  -2  15    2.75    4.53
  11   2  15    1.13    4.38
  11  -2  16   51.54    8.63
  11   2  16   54.63   18.98
  11  -3 -16   13.26   12.96
  11   3 -16   12.23   19.70
 -11   3  16   17.22   12.22
 -11  -3  16   13.14   10.17
  11  -3 -15   33.66   20.59
  11   3 -15   31.49   27.85
 -11   3  15   32.61   12.15
 -11  -3  15   36.39   14.31
  11  -3 -14    6.67    6.21
 -11   3  14    3.02    3.83
 -11  -3  14    3.99    3.39
  11  -3 -13   12.31    7.33
 -11   3  13   11.31    4.35
 -11  -3  13   12.98   10.41
  11  -3 -12  177.97   27.48
 -11   3  12  206.35   18.20
 -11  -3  12  210.45   18.72
  11  -3 -11   48.36   29.28
 -11   3  11   48.45   24.89
 -11  -3  11   33.93   20.29
  11  -3 -10    7.76    9.53
 -11   3  10    3.84    4.89
 -11  -3  10    5.53    6.35
  11  -3  -9  132.57   26.04
 -11   3   9  134.35   18.17
 -11  -3   9  115.25   14.24
  11  -3  -8  138.66   14.46
  11   3  -8  151.42   13.75
  11  -3  -8  146.65   15.75
 -11   3   8  167.45   15.04
 -11  -3   8  136.59   15.00
  11  -3  -7   97.60   14.36
  11   3  -7   83.20   10.96
  11  -3  -7   98.70   11.23
 -11   3   7   80.47    9.80
 -11  -3   7  101.54    9.71
  11  -3  -6   46.73   18.84
  11   3  -6   23.59    5.08
  11  -3  -6   32.44   27.58
 -11   3   6   25.91   14.28
 -11  -3   6   23.95   14.26
  11  -3  -5   49.62    6.46
  11   3  -5   67.84    7.09
  11  -3  -5   39.86   16.63
 -11   3   5   57.38    8.75
 -11  -3   5   35.33   15.83
  11  -3  -4  138.35   12.75
  11   3  -4  144.34   12.90
  11  -3  -4  143.25   19.98
 -11   3   4  161.22   14.69
 -11  -3   4  161.59   15.20
  11  -3  -3  256.21   23.18
  11   3  -3  290.01   21.68
  11  -3  -3  268.80   26.87
 -11   3   3  273.32   18.65
 -11  -3   3  269.42   24.90
  11  -3  -2   12.34   11.81
  11   3  -2   10.81    7.64
  11  -3  -2   13.74   12.63
 -11   3   2    9.66    2.66
 -11  -3   2   12.86    5.59
  11  -3  -1   18.62    9.32
  11   3  -1   22.52    7.20
  11  -3  -1   19.91   11.82
 -11   3   1   21.31    9.59
 -11  -3   1   18.27    9.18
  11  -3   0  462.74   33.10
  11   3   0  459.24   38.00
  11  -3   0  412.80   34.05
 -11   3   0  447.75   32.16
 -11  -3   0  471.60   33.01
  11  -3   1   21.20   11.00
  11   3   1   22.70   11.03
  11  -3   1   18.71   10.77
 -11   3  -1   17.78    8.41
  11  -3   2   12.09   10.14
  11   3   2   13.56    7.35
  11  -3   2   11.91    6.45
 -11   3  -2   11.23    5.78
  11  -3   3  275.49   14.21
  11   3   3  265.19   24.07
  11  -3   3  264.58   22.85
  11  -3   4  150.74   19.83
  11   3   4  149.94   14.59
  11  -3   4  147.13   13.27
  11  -3   5   62.60   12.98
  11   3   5   42.75   23.01
  11  -3   5   54.90    9.19
  11  -3   6   28.67   12.84
  11   3   6   23.53   15.79
  11  -3   7   73.60   27.13
  11   3   7   99.77   13.33
  11  -3   8  141.83   15.02
  11   3   8  136.49   14.56
  11  -3   9  133.93   24.56
  11   3   9  128.87   16.54
  11  -3  11   46.95   28.12
  11   3  11   47.00   27.52
  11  -3  12  196.94   25.12
  11   3  12  180.09   22.94
  11  -3  13   10.77    9.96
  11   3  13    7.81    4.73
  11  -3  14    2.30    6.10
  11   3  14    3.94    5.01
  11  -3  15   22.42   24.08
  11   3  15   29.81   19.44
  11  -3  16   11.29   16.41
  11  -4 -15   60.84   14.21
 -11   4  15   91.35   11.59
  11  -4 -14   19.86   17.01
 -11   4  14   24.80    9.24
 -11  -4  14   20.87   13.68
  11  -4 -13  152.54   20.79
 -11   4  13  134.13   14.15
 -11  -4  13  156.52   17.71
  11  -4 -12   13.89   10.96
 -11   4  12   21.45    7.81
 -11  -4  12   18.54    9.54
  11  -4 -11  164.67   14.45
 -11   4  11  139.74    9.69
 -11  -4  11  139.94   14.20
  11  -4 -10  152.16   17.42
 -11   4  10  117.03   16.58
 -11  -4  10  128.45   12.27
  11  -4  -9  188.21   18.83
 -11   4   9  213.65   36.68
 -11  -4   9  187.54   14.15
  11  -4  -8   90.95    8.66
  11   4  -8   85.91    9.49
  11  -4  -8   89.29   18.87
 -11   4   8   91.47    8.69
 -11  -4   8   91.69   10.42
  11  -4  -7   48.60   10.20
  11   4  -7   38.14    4.73
  11  -4  -7   45.33   20.56
 -11   4   7   41.39   13.10
 -11  -4   7   33.00    8.80
  11  -4  -6   47.71    9.38
  11   4  -6   41.00    4.83
  11  -4  -6   40.76   14.34
 -11   4   6   42.10    9.73
 -11  -4   6   44.95   13.62
  11  -4  -5  194.69   25.20
  11   4  -5  166.00   13.84
  11  -4  -5  156.39   14.71
 -11   4   5  177.45   13.71
 -11  -4   5  155.05   13.06
  11  -4  -4  105.21   13.81
  11   4  -4   68.69   14.95
  11  -4  -4   73.26   12.06
 -11   4   4   71.53   14.12
 -11  -4   4   70.54    7.41
  11  -4  -3  318.38   24.14
  11   4  -3  317.59   24.32
  11  -4  -3  299.26   27.82
 -11   4   3  311.59   22.56
 -11  -4   3  312.75   22.98
  11  -4  -2  255.87   22.86
  11   4  -2  225.20   22.27
  11  -4  -2  266.31   26.37
 -11   4   2  214.47   18.93
 -11  -4   2  227.64   21.72
  11  -4  -1  372.52   27.23
  11   4  -1  352.56   33.37
  11  -4  -1  376.06   28.03
 -11   4   1  377.19   25.87
 -11  -4   1  397.94   29.51
  11  -4   0   59.32    8.80
  11   4   0   62.64    9.79
  11  -4   0   55.40   13.77
 -11   4   0   61.97    7.73
 -11  -4   0   63.34    7.12
  11  -4   1  368.22   27.54
  11   4   1  387.45   28.49
  11  -4   1  363.17   27.72
 -11   4  -1  384.57   27.11
  11  -4   2  248.09   31.59
  11   4   2  231.50   29.03
  11  -4   2  247.96   21.96
 -11   4  -2  261.39   22.38
  11  -4   3  318.81   28.17
  11   4   3  283.16   25.13
  11  -4   3  308.44   22.27
 -11   4  -3  304.23   22.37
  11  -4   4   74.11   10.73
  11   4   4   67.49    8.58
  11  -4   4   63.33   11.52
  11  -4   5  170.44   17.81
  11   4   5  165.87   19.28
  11  -4   5  177.12   14.73
  11  -4   6   43.74    8.46
  11   4   6   42.16   26.30
  11  -4   7   44.48   28.93
  11   4   7   34.52    8.95
  11  -4   8   81.17   17.42
  11   4   8   93.21   11.79
  11  -4   9  193.00   17.82
  11   4   9  183.21   24.07
  11  -4  10  147.67   12.37
  11   4  10  127.29   15.47
  11  -4  11  154.37   16.17
  11   4  11  145.72   15.31
  11  -4  12   18.02   19.44
  11   4  12   13.16    7.16
  11  -4  13  130.72   17.37
  11   4  13  143.82   16.53
  11  -4  14   17.32   16.59
  11   4  14   17.28   15.32
  11  -4  15   72.06   12.67
  11   4  15   65.23   20.95
  11  -5 -15   34.31   23.17
 -11   5  15   49.41   16.54
 -11  -5  15   39.24   23.52
  11  -5 -14   16.38   14.96
 -11   5  14   14.11   13.86
 -11  -5  14   12.37    6.78
  11  -5 -13   54.35   18.88
 -11   5  13   48.12   26.74
 -11  -5  13   51.81    8.50
  11  -5 -12  112.99   12.39
 -11   5  12  152.82   32.10
 -11  -5  12  128.95   14.97
  11  -5 -11   64.96   21.70
 -11   5  11   54.85    6.41
 -11  -5  11   56.83    6.72
  11  -5 -10   83.13   19.74
 -11   5  10   88.19   11.33
 -11  -5  10   85.84   26.41
  11  -5  -9  111.47   12.99
 -11   5   9  107.03   12.11
 -11  -5   9   95.22   10.27
  11  -5  -8    8.46    5.83
  11   5  -8    5.45    4.96
  11  -5  -8   11.33    8.57
 -11   5   8    7.17    5.05
 -11  -5   8    6.22    4.72
  11   5  -7   11.33    6.37
  11  -5  -7   14.76   10.75
 -11   5   7   12.50    7.10
 -11  -5   7   11.32    5.55
  11  -5  -6   56.11   13.20
  11   5  -6   46.20    7.75
  11  -5  -6   56.17   20.75
 -11   5   6   52.36   14.12
 -11  -5   6   52.74    6.89
  11  -5  -5   29.29    6.44
  11   5  -5   27.62    9.36
  11  -5  -5   27.99   16.07
 -11   5   5   27.61   13.35
 -11  -5   5   26.56   13.76
  11  -5  -4   44.10   18.37
  11   5  -4   44.62    9.55
  11  -5  -4   46.96    8.02
 -11  -5   4   39.46    9.20
  11  -5  -3  279.11   18.34
  11   5  -3  225.30   14.42
  11  -5  -3  234.60   16.32
 -11   5   3  197.96   14.67
 -11  -5   3  235.35   14.43
  11  -5  -2  398.48   76.51
  11   5  -2   63.61   19.22
  11  -5  -2   66.90   10.73
 -11   5   2   59.33    8.07
 -11  -5   2   57.48    7.81
  11  -5  -1  190.10   24.61
  11   5  -1  120.79   20.56
  11  -5  -1  151.52   12.99
 -11   5   1  138.14   19.23
 -11  -5   1  140.55   13.74
  11  -5   0  157.43   16.11
  11   5   0  163.80   17.19
  11  -5   0  151.54   18.28
 -11   5   0  165.30   12.68
 -11  -5   0  156.52   15.48
  11  -5   1  139.11   14.06
  11   5   1  134.56   12.62
  11  -5   1  121.01   17.66
 -11   5  -1  161.41   21.50
  11  -5   2   61.63    8.75
  11   5   2   59.29    7.86
  11  -5   2   60.89   10.84
 -11   5  -2   61.64    5.04
  11  -5   3  219.82   15.53
  11   5   3  234.91   16.35
  11  -5   3  210.38   13.72
 -11   5  -3  241.78   12.44
  11  -5   4   47.19   24.40
  11   5   4   44.96   10.68
  11  -5   4   53.12    5.51
  11  -5   5   27.41   17.67
  11   5   5   27.39   15.73
  11  -5   5   26.24    3.48
  11  -5   6   53.37    9.42
  11   5   6   60.96   13.87
  11  -5   7   14.74    9.71
  11   5   7   12.28   12.82
  11  -5   8    7.46    6.23
  11   5   8   13.33    6.06
  11  -5   9  114.05   12.51
  11   5   9  110.02   13.73
  11  -5  10   84.38   10.79
  11   5  10   84.88   10.77
  11  -5  11   65.09   12.19
  11   5  11   52.87   16.73
  11  -5  12  135.19   18.32
  11   5  12  135.20   20.04
  11  -5  13   58.34   10.57
  11   5  13   44.48   23.74
  11  -5  14   23.54   16.38
  11   5  14   15.60   11.80
  11  -5  15   72.53   45.48
  11   5  15   43.24   17.22
  11  -6 -14   10.83   12.01
 -11   6  14    8.25    6.01
 -11  -6  14    8.57    7.32
  11  -6 -13    1.76    2.74
 -11   6  13    2.67    3.40
 -11  -6  13    9.25    5.34
  11  -6 -12    3.73    4.55
 -11   6  12    1.12    3.11
  11  -6 -11    4.81   10.25
 -11   6  11    6.34    2.87
 -11  -6  11    6.66    3.67
  11  -6 -10   11.68   13.17
 -11   6  10    6.64    2.73
 -11  -6  10    3.71    5.22
  11  -6  -9  106.86   11.25
 -11   6   9  118.16   11.59
 -11  -6   9  103.29    8.33
  11  -6  -8    8.36    4.55
  11   6  -8    6.32    6.05
  11  -6  -8    9.15    6.29
 -11   6   8   11.03    5.37
 -11  -6   8    8.29    5.52
  11  -6  -7  481.79   30.64
  11   6  -7  464.32   30.38
  11  -6  -7  466.43   30.94
 -11   6   7  462.51   28.44
 -11  -6   7  488.60   29.12
  11  -6  -6   22.76    8.57
  11   6  -6   21.50   12.54
  11  -6  -6   20.79   12.73
 -11   6   6   26.74    7.12
 -11  -6   6   22.04    9.52
  11  -6  -5  295.47   22.34
  11   6  -5  273.17   21.01
  11  -6  -5  288.30   20.69
 -11   6   5  279.80   19.10
 -11  -6   5  287.66   19.16
  11  -6  -4    4.26    3.18
  11   6  -4    2.59    2.80
  11  -6  -4    1.71    4.20
 -11   6   4    2.38    2.60
 -11  -6   4    0.63    3.27
  11  -6  -3   46.73   10.23
  11   6  -3   65.28   20.23
  11  -6  -3   53.31   25.99
 -11   6   3   56.74    8.98
 -11  -6   3   47.75    5.70
  11  -6  -2   25.75   12.45
  11   6  -2   22.60   17.00
  11  -6  -2   23.30   14.14
 -11   6   2   22.44    6.19
 -11  -6   2   20.46   12.35
  11  -6  -1   12.44    8.05
  11   6  -1   18.34   10.65
  11  -6  -1   12.17    9.95
 -11   6   1   15.44    7.04
 -11  -6   1   12.19    5.86
  11  -6   0    3.60    5.63
  11   6   0    1.25    3.93
  11  -6   0    4.96    2.49
 -11   6   0    4.16    2.43
 -11  -6   0    1.72    3.02
  11  -6   1   42.27   15.34
  11   6   1   12.26    9.10
  11  -6   1   15.20    8.45
 -11   6  -1   13.16    6.23
  11  -6   2   69.72   30.09
  11   6   2   24.23   17.97
  11  -6   2   33.18   12.43
 -11   6  -2   28.61    9.45
  11  -6   3   92.50   14.71
  11  -6   3   58.72    8.38
 -11   6  -3   53.49   15.57
  11  -6   4    2.77    5.69
  11   6   4    2.45    4.32
  11  -6   4    2.11    2.60
 -11   6  -4    1.72    3.04
  11  -6   5  302.39   30.84
  11   6   5  308.47   24.23
  11  -6   5  275.64   22.39
  11  -6   6   33.19   15.44
  11   6   6   19.47   11.34
  11  -6   7  580.42   27.94
  11   6   7  448.00   30.99
  11  -6   8   14.31   12.56
  11   6   8    7.20    6.78
  11  -6   9  168.62   15.89
  11   6   9  111.02   10.93
  11  -6  10    8.83    8.53
  11   6  10    7.79    7.88
  11  -6  11   14.69   14.32
  11   6  11   10.67   10.09
  11  -6  12   12.70   23.61
  11   6  12    2.59    5.27
  11  -6  13    5.49    6.65
  11   6  13    6.36    7.10
  11  -6  14    8.41    8.99
  11   6  14    6.59   10.70
  11  -7 -14   18.64   26.73
 -11   7  14   21.09   19.53
 -11  -7  14   27.22   11.28
  11  -7 -13   25.78   27.15
 -11   7  13   43.46   18.88
 -11  -7  13   35.88   15.70
  11  -7 -12    3.98    5.35
 -11   7  12    4.44    6.71
 -11  -7  12    3.25    4.44
  11  -7 -11   23.77   24.34
 -11   7  11   19.31    9.21
 -11  -7  11   24.32   18.13
  11  -7 -10   68.92   11.94
 -11   7  10   79.87   11.16
 -11  -7  10   61.03    7.13
  11  -7  -9   38.23   26.56
 -11   7   9   32.77    8.81
 -11  -7   9   32.61   18.49
  11  -7  -8    6.52    4.68
  11   7  -8    6.87    6.32
  11  -7  -8    7.93    3.69
 -11   7   8   10.35    6.39
 -11  -7   8   11.31    6.05
  11  -7  -7   10.65    5.98
  11   7  -7   10.75   11.72
  11  -7  -7   11.85   11.35
 -11   7   7   11.65    6.41
 -11  -7   7    9.49    4.58
  11  -7  -6  275.33   27.86
  11   7  -6  280.57   20.70
  11  -7  -6  286.46   21.05
 -11  -7   6  271.51   17.96
  11  -7  -5   16.02    7.04
  11   7  -5    6.87    4.30
  11  -7  -5    7.97    6.70
 -11   7   5    8.28    5.51
 -11  -7   5   12.46    7.02
  11  -7  -4    9.53    5.30
  11   7  -4   11.71    8.69
  11  -7  -4    5.10    6.12
 -11   7   4   11.16    5.39
 -11  -7   4    7.99    4.93
  11  -7  -3   96.12   18.58
  11   7  -3   76.30    9.15
  11  -7  -3   87.68   18.28
 -11   7   3   84.97    9.96
 -11  -7   3   80.35    8.62
  11  -7  -2   60.05   18.56
  11   7  -2   56.41    7.81
  11  -7  -2   54.78   14.77
 -11   7   2   58.71    6.96
 -11  -7   2   62.66   21.53
  11  -7  -1  116.70   16.26
  11   7  -1  142.57   15.00
  11  -7  -1  140.43   10.05
 -11   7   1  129.78    9.57
 -11  -7   1  134.79   12.22
  11  -7   0   56.46   19.56
  11   7   0   53.23   12.79
  11  -7   0   46.67   13.67
 -11   7   0   54.24    6.32
 -11  -7   0   58.36    8.77
  11  -7   1  128.65   11.98
  11   7   1  133.18   19.85
  11  -7   1  126.54   17.75
 -11   7  -1  136.34    8.98
  11  -7   2   60.82   17.52
  11   7   2   66.03   10.39
  11  -7   2   59.36    8.35
 -11   7  -2   62.91    7.41
  11  -7   3   73.36   26.63
  11   7   3   80.60   11.76
  11  -7   3   85.34   11.44
 -11   7  -3   87.12    9.11
  11  -7   4    9.41    6.41
  11   7   4    7.58    8.68
 -11  -7  -4   10.86    9.86
  11  -7   4    6.17    7.26
 -11   7  -4    6.34    3.64
  11  -7   5    6.06    4.90
  11   7   5   14.26   10.18
 -11  -7  -5    6.72    5.37
  11  -7   5    4.49    6.30
 -11   7  -5    6.73    6.66
  11  -7   6  293.90   40.40
  11   7   6  276.33   23.71
 -11  -7  -6  277.77   18.94
  11  -7   7   17.78    8.91
  11   7   7    4.52    4.76
 -11  -7  -7    9.07    9.69
  11  -7   8    8.04    6.21
  11   7   8    4.67    4.59
 -11  -7  -8    7.05    5.56
  11  -7   9   48.89   18.35
  11   7   9   34.65   25.11
  11  -7  10   65.94    9.12
  11   7  10   60.60   18.79
  11  -7  11   23.61   18.96
  11   7  11   23.10   21.69
  11  -7  12    4.87    7.21
  11   7  12    7.60    8.44
  11  -7  13   37.66   20.91
  11   7  13   36.74   26.55
  11  -7  14   15.54   17.31
  11   7  14   17.22   19.93
  11  -8 -13   38.30   21.49
 -11   8  13   38.74   12.54
 -11  -8  13   43.65   18.16
  11  -8 -12    2.89    6.66
 -11   8  12    7.13    4.57
 -11  -8  12   10.99    6.67
  11  -8 -11   81.08   21.12
 -11   8  11  101.89   16.32
 -11  -8  11   99.59   14.91
  11  -8 -10   30.94   15.40
 -11   8  10   37.97   13.30
 -11  -8  10   36.51   10.01
  11  -8  -9  106.25   11.16
 -11   8   9  109.64    8.97
 -11  -8   9  109.92    8.93
  11  -8  -8   14.83    6.58
  11   8  -8   11.78   15.56
  11  -8  -8   14.04    7.36
 -11   8   8   18.07   12.15
  11  -8  -7    2.79    5.68
  11   8  -7    2.77    4.41
  11  -8  -7    5.06    5.96
 -11   8   7    1.21    2.49
 -11  -8   7    3.27    3.25
  11  -8  -6    5.20    3.26
  11   8  -6    6.91    4.38
  11  -8  -6    5.72    5.19
 -11   8   6    5.35    2.68
 -11  -8   6    5.94    3.93
  11  -8  -5    1.33    2.11
  11   8  -5    3.01    3.93
  11  -8  -5    2.50    5.33
 -11   8   5    0.86    1.55
 -11  -8   5    0.24    2.59
  11  -8  -4    3.61    5.14
  11   8  -4    5.79    6.13
  11  -8  -4    3.38    7.40
 -11   8   4    6.32    3.52
 -11  -8   4    3.41    3.02
  11  -8  -3  237.70   18.55
  11   8  -3  238.11   17.52
  11  -8  -3  223.87   23.09
 -11   8   3  251.28   16.84
 -11  -8   3  246.47   17.58
  11  -8  -2  122.61   21.60
  11   8  -2  116.10   13.36
  11  -8  -2  128.81   14.10
 -11   8   2  108.26   10.31
 -11  -8   2  135.51   16.10
  11  -8  -1  159.61   36.93
  11   8  -1  146.79   21.92
  11  -8  -1  146.50   18.01
 -11   8   1  157.62   12.58
 -11  -8   1  154.06   14.97
  11  -8   0    0.72    3.08
  11   8   0    2.83    3.42
  11  -8   0    0.46    4.37
 -11  -8   0    3.60    3.67
  11  -8   1  154.83   18.48
  11   8   1  151.92   15.19
 -11  -8  -1  173.84   10.68
  11  -8   1  156.47   16.51
  11  -8   2  113.43   17.40
  11   8   2  125.65   15.97
 -11  -8  -2  118.43   12.05
  11  -8   2  113.53   11.56
  11  -8   3  224.85   30.17
  11   8   3  249.90   19.55
 -11  -8  -3  251.41   21.15
  11  -8   3  256.00   19.83
  11  -8   4    7.77    3.12
  11   8   4    5.22    6.88
 -11  -8  -4    7.15    4.22
  11  -8   4    4.57    4.59
  11  -8   5    3.50    6.56
  11   8   5    2.69    4.92
 -11  -8  -5    2.10    2.55
  11  -8   5    1.21    2.99
  11  -8   6    9.33    5.75
  11   8   6    6.63    7.51
 -11  -8  -6    5.61    6.58
  11  -8   7    1.89    3.47
  11   8   7    1.35    3.63
 -11  -8  -7    0.96    1.71
  11  -8   8   16.56    9.66
  11   8   8   14.20    8.43
 -11  -8  -8   12.97    9.77
  11  -8   9  113.47   10.52
  11   8   9  108.11   19.00
  11  -8  10   41.85   23.44
  11   8  10   37.10   18.87
  11  -8  11   85.88   15.84
  11   8  11   97.67   14.14
  11  -8  12    4.22    4.72
  11   8  12    9.37    6.51
  11  -8  13   46.85   25.25
  11   8  13   40.93   26.72
  11  -9 -12   85.61   13.60
 -11   9  12   83.83    9.52
 -11  -9  12   89.39   11.32
  11  -9 -11    8.44    7.30
 -11   9  11    6.22    5.26
 -11  -9  11   10.53    9.12
  11  -9 -10    3.35    5.53
 -11  -9  10    5.66    3.38
  11  -9  -9   26.24   23.02
 -11   9   9   24.79   13.71
 -11  -9   9   27.15   18.39
  11  -9  -8   26.76    8.41
  11   9  -8   22.89   19.85
  11  -9  -8   29.62    8.67
 -11   9   8   29.47   13.28
 -11  -9   8   30.35   20.37
  11  -9  -7   33.00   10.32
  11   9  -7   26.14   14.75
  11  -9  -7   37.60    9.48
 -11   9   7   31.99   10.29
 -11  -9   7   43.54   21.93
  11  -9  -6   23.75   16.48
  11   9  -6   27.56    7.23
  11  -9  -6   23.94   18.72
 -11   9   6   23.66    8.72
 -11  -9   6   34.45   15.06
  11  -9  -5   85.30   12.50
  11   9  -5   88.10   13.56
  11  -9  -5   81.26   10.38
 -11  -9   5   95.09    9.38
  11  -9  -4   56.62   21.15
  11   9  -4   41.59   17.10
  11  -9  -4   46.05   13.70
 -11  -9   4   52.66    7.58
  11  -9  -3   46.83   21.09
  11   9  -3   34.15    9.47
  11  -9  -3   29.62   23.20
 -11  -9   3   41.02    6.44
  11  -9  -2   32.62   20.32
  11   9  -2   25.56   10.61
  11  -9  -2   26.81   19.83
 -11  -9   2   28.91   14.17
  11  -9  -1   32.47   19.00
  11   9  -1   28.89   28.12
  11  -9  -1   31.69   17.17
 -11  -9   1   37.45   16.68
  11  -9   0  309.45   31.21
  11   9   0  317.03   22.87
 -11  -9   0  354.58   24.40
  11  -9   0  348.50   23.48
 -11  -9   0  331.46   22.16
  11  -9   1   36.78   19.88
  11   9   1   31.93   32.62
 -11  -9  -1   34.79   20.71
  11  -9   1   28.63   20.45
  11  -9   2   33.93   16.38
  11   9   2   27.76   17.46
 -11  -9  -2   36.39   17.38
  11  -9   2   34.60   12.91
  11  -9   3   35.66   21.05
  11   9   3   33.54    9.36
 -11  -9  -3   44.51   11.12
  11  -9   3   48.49    5.80
  11  -9   4   45.11   20.27
  11   9   4   53.44   28.14
 -11  -9  -4   42.88    5.28
  11  -9   4   44.41   10.30
  11  -9   5  103.59   33.46
  11   9   5   90.45   13.87
 -11  -9  -5   85.89    7.36
  11  -9   6   29.33   12.71
  11   9   6   30.00   25.32
 -11  -9  -6   31.38   10.32
  11  -9   7   37.46   24.18
  11   9   7   41.86   27.12
 -11  -9  -7   32.76   10.80
  11  -9   8   37.32   15.52
  11   9   8   26.69   23.81
 -11  -9  -8   29.76   11.15
  11  -9  10    1.89    5.74
  11   9  10   12.49    7.82
  11  -9  11    3.21    4.52
  11   9  11    5.81    5.53
  11  -9  12   82.95   33.91
  11   9  12   87.39   16.40
  11 -10 -11    5.15    6.13
 -11 -10  11    2.42    3.70
  11 -10 -10   15.31   10.76
 -11 -10  10   18.07   10.84
  11 -10  -9   34.33   30.66
 -11 -10   9   40.69   21.40
  11 -10  -8  206.52   20.71
  11  10  -8  216.59   21.03
 -11 -10   8  208.95   19.48
  11 -10  -7   39.59   10.64
  11  10  -7   33.43   14.69
  11 -10  -7   27.96   27.01
 -11 -10   7   43.61   24.58
  11 -10  -6   30.64    6.43
  11  10  -6   30.70    8.82
  11 -10  -6   30.96   22.03
 -11 -10   6   33.70   15.11
  11 -10  -5   23.51   17.10
  11  10  -5   40.92   13.47
  11 -10  -5   28.03   17.18
 -11 -10   5   30.75   22.92
  11 -10  -4  332.79   15.09
  11  10  -4  331.90   17.04
  11 -10  -4  312.43   17.15
 -11 -10   4  345.78   15.51
  11 -10  -3   68.45   25.29
  11  10  -3   74.85   28.16
  11 -10  -3   72.34   15.30
 -11 -10   3   82.39    8.73
  11 -10  -2   11.20   10.17
  11  10  -2    8.28    6.08
 -11 -10   2   10.81    9.12
  11 -10  -2   16.31    9.91
 -11 -10   2   10.16    6.82
  11 -10  -1    1.23    3.44
  11  10  -1    4.24    5.21
 -11 -10   1    2.42    2.85
  11 -10  -1    0.51    5.61
 -11 -10   1    1.26    4.84
  11 -10   0    6.98    4.67
  11  10   0   11.47    8.09
 -11 -10   0    5.96    5.13
  11 -10   0    2.37    3.45
 -11 -10   0    6.07    4.59
  11 -10   1    3.04    5.55
  11  10   1    3.63    5.59
 -11 -10  -1    2.03    3.91
  11 -10   1    1.49    4.55
  11 -10   2    7.89    4.88
  11  10   2    7.20   10.18
 -11 -10  -2    8.93    6.95
  11 -10   2    5.25    6.05
  11 -10   3   78.36   27.80
  11  10   3   67.98   37.45
 -11 -10  -3   73.92    7.65
  11 -10   3   73.02    7.72
  11 -10   4  321.55   16.62
  11  10   4  310.60   26.59
 -11 -10  -4  353.06   15.10
  11 -10   4  323.31   12.65
  11 -10   5   27.79   14.94
  11  10   5   38.76   26.04
 -11 -10  -5   40.27    8.94
  11 -10   6   32.91   10.12
  11  10   6   26.11   14.33
 -11 -10  -6   28.32    8.87
  11 -10   7   36.98   24.33
  11  10   7   40.33   23.13
 -11 -10  -7   34.29   18.27
  11 -10   8  231.24   23.44
  11  10   8  227.54   25.27
 -11 -10  -8  220.39   20.21
  11 -10   9   44.21   26.17
  11  10   9   42.71   21.46
  11 -10  10   22.00   10.51
  11  10  10   16.92   11.57
  11 -10  11    4.01    4.04
  11  10  11    2.47    3.07
  11 -11 -10   51.94    9.95
 -11 -11  10   50.66    7.01
  11 -11  -9   53.63   23.85
 -11 -11   9   58.95    8.77
  11 -11  -8    5.65    7.19
  11  11  -8    5.25    6.23
  11 -11  -8   11.25   14.45
 -11 -11   8    8.61    7.81
  11 -11  -7   22.95    9.34
  11  11  -7   23.06   18.59
  11 -11  -7   31.69   33.28
 -11 -11   7   28.43   17.26
  11 -11  -6   30.80   14.93
  11  11  -6   37.59   25.24
  11 -11  -6   31.83   26.37
 -11 -11   6   35.17   21.98
  11 -11  -5   46.84   18.28
  11  11  -5   44.48   17.84
  11 -11  -5   59.16   13.20
 -11 -11   5   65.60    7.70
  11 -11  -4   50.62   15.65
  11  11  -4   56.88   11.13
  11 -11  -4   50.10   16.11
 -11 -11   4   60.21   24.61
  11 -11  -3   27.85   16.31
  11  11  -3   24.08   20.52
 -11 -11   3   31.39   10.62
  11 -11  -3   16.95   14.35
 -11 -11   3   24.75   13.57
  11 -11  -2   77.57   21.39
  11  11  -2   74.70    9.14
 -11 -11   2   76.35    8.13
  11 -11  -2   72.18   15.63
 -11 -11   2   71.69   17.33
  11 -11  -1   46.62    9.92
  11  11  -1   40.55    9.38
 -11 -11   1   46.37   15.69
  11 -11  -1   37.53    6.71
 -11 -11   1   43.96   14.14
  11 -11   0   58.42    9.31
  11  11   0   64.94    9.78
 -11 -11   0   57.55   19.76
  11 -11   0   54.69    7.56
 -11 -11   0   74.01   11.32
  11 -11   1   37.41   18.98
  11  11   1   35.85   14.34
 -11 -11  -1   36.38   21.97
  11 -11   1   45.90   23.39
 -11 -11  -1   33.11    7.82
  11 -11   2   68.42   22.77
  11  11   2   74.75   10.46
 -11 -11  -2   82.15    7.66
  11 -11   2   81.33    9.54
  11 -11   3   26.59   15.73
  11  11   3   23.94   23.11
 -11 -11  -3   20.97    7.91
  11 -11   3   20.29   15.57
  11 -11   4   61.35   17.44
  11  11   4   63.05   28.32
 -11 -11  -4   65.17    6.82
  11 -11   5   55.48   23.83
  11  11   5   54.88   36.09
 -11 -11  -5   52.59    6.09
  11 -11   6   55.19   28.57
  11  11   6   41.97    8.82
 -11 -11  -6   41.39   13.31
  11 -11   7   25.31   11.75
  11  11   7   25.19   16.74
 -11 -11  -7   25.53    6.02
  11 -11   8    4.57    5.63
  11  11   8    5.56    6.00
 -11 -11  -8    4.97    6.35
  11 -11   9   55.36   25.79
  11  11   9   62.21   11.86
  11 -11  10   50.46   24.74
  11  11  10   44.41   28.82
  11 -12  -9    1.23    5.23
 -11 -12   9   -0.28    3.03
  11 -12  -8    1.42    4.02
  11  12  -8    4.44    5.34
  11 -12  -8    4.77    6.99
 -11 -12   8    6.62    6.22
  11 -12  -7    5.49    5.13
  11  12  -7    5.45    8.43
  11 -12  -7    2.24    6.49
 -11 -12   7    2.42    4.08
  11 -12  -6    5.61    4.10
  11  12  -6    6.69    4.05
  11 -12  -6    4.73    4.47
 -11 -12   6    8.45    5.61
  11 -12  -5    2.73    5.95
  11  12  -5    2.90    2.31
  11 -12  -5    4.49    4.65
 -11 -12   5    4.36    4.98
  11 -12  -4    5.96    5.41
  11  12  -4    6.79    7.74
  11 -12  -4    6.92    6.92
 -11 -12   4    9.07    5.32
  11 -12  -3    2.17    3.46
 -11 -12   3    1.54    2.95
  11 -12  -3    4.47    5.71
 -11 -12   3    3.22    4.13
  11 -12  -2  124.04   13.84
  11  12  -2  127.26   14.88
 -11 -12   2  121.41   12.94
  11 -12  -2  113.52   13.27
 -11 -12   2  116.34   12.50
  11 -12  -1   15.18    8.98
  11  12  -1   14.30   13.39
 -11 -12   1   17.58   10.76
  11 -12  -1   12.87   14.15
 -11 -12   1   14.63   12.18
  11 -12   0   41.30   18.91
  11  12   0   40.87   13.19
 -11 -12   0   40.09    6.25
  11 -12   0   33.97    8.79
 -11 -12   0   46.09    9.43
  11 -12   1   20.36   10.84
  11  12   1   17.80   10.60
 -11 -12  -1   15.95   14.23
  11 -12   1    9.87   12.45
 -11 -12  -1   14.72   19.27
  11 -12   2  119.19   13.97
  11  12   2  123.31   16.81
 -11 -12  -2  122.22   16.57
  11 -12   2  113.46   24.42
 -11 -12  -3    2.59    3.29
  11 -12   3    1.64    3.05
  11 -12   4    5.84    3.88
  11  12   4    9.96    7.66
 -11 -12  -4    3.11    4.79
  11 -12   4    6.40    6.33
  11 -12   5    3.97    4.61
  11  12   5    3.50    4.97
 -11 -12  -5    1.76    2.83
  11 -12   6    9.17    9.77
  11  12   6    7.83    4.66
 -11 -12  -6    8.40    6.21
  11 -12   7    5.20    4.97
  11  12   7    6.27    7.51
 -11 -12  -7    3.41    4.30
  11 -12   8    3.20    4.14
 -11 -12  -8    2.68    3.19
  11 -12   9    3.65    5.53
  11  12   9    3.11    5.67
  11 -13  -7    2.17    5.95
  11  13  -7    4.46    5.10
  11 -13  -7    3.99    7.94
 -11 -13   7    7.28    8.24
  11 -13  -6   50.90   11.14
  11  13  -6   47.24   14.85
  11 -13  -6   47.98   30.46
 -11 -13   6   57.50   27.74
  11 -13  -5   16.58   18.33
  11  13  -5   14.72   21.38
  11 -13  -5   16.53   26.49
 -11 -13   5   21.97   13.27
  11 -13  -4    3.57    4.90
  11  13  -4    1.33    3.29
 -11 -13   4    0.24    3.59
  11 -13  -4    3.70    5.36
 -11 -13   4    1.47    3.84
  11  13  -3   57.36   24.22
 -11 -13   3   63.54    7.99
  11 -13  -3   66.79    9.99
 -11 -13   3   70.60   12.69
  11 -13  -2   38.38    8.21
  11  13  -2   35.19    9.44
 -11 -13   2   34.43   14.40
  11 -13  -2   34.56   16.80
 -11 -13   2   41.05   19.03
  11 -13  -1   69.93   36.16
  11  13  -1   84.99   13.24
 -11 -13   1   79.48   10.23
  11 -13  -1   93.69   15.33
 -11 -13   1   85.48   10.88
  11 -13   0    4.33    6.83
 -11 -13   0    5.09    6.88
  11 -13   0    6.62    7.70
  11 -13   1   93.14   12.30
  11  13   1   82.35   14.86
 -11 -13  -1  100.37   12.10
  11 -13   1   97.21   12.33
 -11 -13  -1   98.99   12.04
  11 -13   2   34.76   12.45
  11  13   2   45.38   18.82
 -11 -13  -2   43.18   10.12
  11 -13   2   34.67    9.75
 -11 -13  -2   43.69    9.10
  11 -13   3   64.29   26.31
  11  13   3   67.49   10.13
 -11 -13  -3   66.86   11.45
  11 -13   3   60.22   15.00
  11 -13   4    1.47    4.51
  11  13   4    1.04    3.29
 -11 -13  -4    1.70    3.65
  11 -13   5   21.73    8.51
  11  13   5   24.61   28.00
 -11 -13  -5   17.87   15.35
  11 -13   6   52.94   26.25
  11  13   6   50.03   11.31
 -11 -13  -6   43.48   10.76
  11 -13   7   16.19   14.25
  11  13   7    5.34   10.19
 -11 -13  -7    5.10    5.17
  11 -14  -4   38.32   17.89
  11  14  -4   34.24   17.85
 -11 -14   4   43.69   13.91
  11 -14  -4   49.94    8.78
 -11 -14   4   46.02   14.58
  11 -14  -3   10.13   10.07
  11  14  -3    5.41   10.00
 -11 -14   3    6.94    8.23
  11 -14  -3   10.43    8.30
 -11 -14   3    9.90    7.40
  11 -14  -2   15.52   11.59
  11  14  -2   21.90   12.94
 -11 -14   2   14.49   10.63
  11 -14  -2    7.89   10.91
 -11 -14   2   18.82   13.39
  11 -14  -1   19.15   16.73
  11  14  -1   20.39   18.97
 -11 -14   1   19.13   13.38
  11 -14  -1   18.25   16.18
 -11 -14   1   17.12   11.34
  11 -14   0    3.24    4.28
  11  14   0    0.56    2.81
 -11 -14   0    0.84    2.81
  11 -14   0    1.29    3.58
 -11 -14   0    2.52    2.04
  11 -14   1   23.06   13.78
  11  14   1   15.52    9.41
 -11 -14  -1   22.82   12.10
  11 -14   1   18.57   15.51
 -11 -14  -1   14.91   16.19
  11 -14   2   12.13    8.64
  11  14   2    8.80   15.64
 -11 -14  -2   10.21   11.53
  11 -14   2    7.67   15.32
 -11 -14  -2   15.11   17.87
  11 -14   3    5.82    4.41
  11  14   3   11.95    6.01
 -11 -14  -3    8.91    5.06
  11 -14   3    4.46    6.97
  11 -14   4   39.96   29.70
  11  14   4   44.02   21.78
 -11 -14  -4   47.49    9.37
  12   0 -15    6.89    9.95
 -12   0  15    9.55   13.61
  12   0 -14    8.71    4.95
 -12   0  14   11.67    5.16
  12   0 -13   50.35   11.51
 -12   0  13   56.02    9.33
  12   0 -12   28.62   23.40
 -12   0  12   37.57   12.50
  12   0 -11   26.71   22.24
 -12   0  11   35.85   17.81
  12   0 -10  115.38   11.20
 -12   0  10  121.71    9.82
  12   0  -9   13.22   10.82
 -12   0   9   14.03    8.64
  12   0  -8   16.71    5.44
  12   0  -8   19.91   13.43
 -12   0   8   24.53   11.36
  12   0  -7   85.23    9.52
  12   0  -7   85.19   10.85
 -12   0   7   85.03    9.52
  12   0  -6  106.09    9.48
 -12   0   6  101.85    9.56
 -12   0   5   63.69   11.31
 -12   0   4   15.23    7.86
  12   0  -3   16.88    9.36
 -12   0   3   20.03   10.43
  12   0  -2  199.89   16.43
 -12   0   2  209.37   13.23
  12   0  -1  105.89   15.47
 -12   0   1  106.32   11.68
  12   0   0  229.14   15.31
 -12   0   0  241.84   14.05
  12   0   1  102.42   12.18
 -12   0  -1  107.08   12.36
  12   0   2  195.44   24.50
  12   0   3   22.09   12.26
  12   0   3   15.41   12.37
  12   0   4   12.60    7.25
  12   0   4    9.12    7.06
  12   0   5   62.53   12.04
  12   0   5   55.14    6.06
  12   0   6   93.86   11.99
  12   0   7   80.84   11.91
  12   0   8   20.73    6.89
  12   0   9   16.12    9.15
  12   0  10  108.78   12.81
  12   0  11   26.06   14.85
  12   0  12   27.69   16.18
  12   0  13   48.49   14.12
  12   0  14    9.92    7.56
  12   0  15   10.97   10.51
  12  -1 -15   40.45   37.20
  12   1 -15   28.74   30.83
 -12   1  15   34.18   25.91
 -12  -1  15   44.77   19.98
  12  -1 -14   27.16   30.23
  12   1 -14   24.76   14.08
 -12   1  14   25.93   13.30
 -12  -1  14   34.83   12.56
  12  -1 -13   30.51   19.98
  12   1 -13   23.78   29.28
 -12   1  13   24.95   20.88
 -12  -1  13   35.74   15.58
  12  -1 -12   12.18    7.27
  12   1 -12   17.74   13.81
 -12   1  12   13.04    8.90
 -12  -1  12    9.35    6.06
  12  -1 -11    9.90    9.07
  12   1 -11   10.77    7.87
 -12   1  11    5.72    2.98
  12  -1 -10   25.92   21.92
  12   1 -10   22.37   16.87
 -12   1  10   28.35   16.27
 -12  -1  10   31.71   14.91
  12  -1  -9  262.37   30.67
 -12   1   9  271.98   21.00
 -12  -1   9  293.40   21.92
  12  -1  -8   60.53    8.06
  12   1  -8   68.17    7.84
  12  -1  -8   57.90   11.31
 -12   1   8   76.78    8.41
 -12  -1   8   66.39   19.17
  12  -1  -7   71.70    9.98
  12   1  -7   64.37    9.42
  12  -1  -7   79.48   10.32
 -12   1   7   57.38    6.84
 -12  -1   7   70.97   19.89
  12  -1  -6   22.98    6.51
  12   1  -6   29.98   11.13
  12  -1  -6   19.86   17.39
 -12   1   6   28.00    7.69
 -12  -1   6   28.04   13.73
  12  -1  -5   59.25    9.58
 -12   1   5   69.33    9.19
 -12  -1   5   59.60    8.34
  12  -1  -4  115.74   11.09
 -12   1   4  122.40   13.30
 -12  -1   4  130.01   10.81
  12  -1  -3  227.72   14.42
  12   1  -3  229.07   15.60
  12  -1  -3  219.38   14.88
 -12   1   3  233.44   19.04
 -12  -1   3  256.16   15.24
  12  -1  -2   60.75    7.32
  12   1  -2   62.40    8.89
  12  -1  -2   56.10    7.28
 -12   1   2   67.48   14.32
 -12  -1   2   55.02   16.90
  12  -1  -1   13.03    9.79
  12   1  -1   13.20    7.52
  12  -1  -1   13.73    8.48
 -12   1   1    9.47    4.07
 -12  -1   1   13.94    9.99
  12  -1   0  139.23   12.88
  12   1   0  130.90   17.06
  12  -1   0  120.24   12.92
 -12   1   0  130.48   10.89
 -12  -1   0  126.92   13.34
  12  -1   1    7.37    5.14
  12   1   1   15.03   11.43
 -12   1  -1   11.30    6.18
 -12  -1  -1    9.09    4.96
  12  -1   2   60.41    8.05
  12   1   2   56.13    9.43
  12  -1   2   67.42    6.88
 -12   1  -2   65.70    8.97
  12  -1   3  238.36   21.20
  12   1   3  234.36   23.38
  12  -1   3  240.22   16.78
  12  -1   4  121.83   12.31
  12   1   4  132.37   12.99
  12  -1   4  122.52   10.38
  12  -1   5   65.93   23.58
  12   1   5   62.99   23.54
  12  -1   5   67.93    8.18
  12  -1   6   29.60   23.08
  12   1   6   31.42   23.21
  12  -1   7   62.27   32.86
  12   1   7   81.40   12.96
  12  -1   8   74.68   14.86
  12   1   8   78.37   24.23
  12  -1   9  279.91   22.75
  12   1   9  263.25   21.74
  12  -1  10   23.08   19.17
  12   1  10   23.19   23.27
  12  -1  11    2.75    5.51
  12   1  11    5.66    7.02
  12  -1  12   17.63   10.86
  12   1  12    9.67    7.65
  12  -1  13   25.21   15.24
  12   1  13   26.98   13.65
  12  -1  14   28.51    6.60
  12   1  14   24.98   14.61
  12  -1  15   35.45    7.72
  12   1  15   42.32   28.74
  12  -2 -15   14.38   26.31
  12   2 -15   13.93   22.95
 -12   2  15   28.09   15.94
 -12  -2  15   28.68   17.89
  12  -2 -14    5.87    4.53
  12   2 -14    5.80    5.72
 -12   2  14    3.79    6.54
 -12  -2  14    4.08    3.02
  12  -2 -13   18.72   12.83
  12   2 -13   16.99   22.11
 -12   2  13   20.39   14.46
 -12  -2  13   18.53   14.15
  12  -2 -12  118.56   32.17
 -12   2  12  133.94   13.86
 -12  -2  12  121.66   13.43
  12  -2 -11   50.02   13.18
 -12   2  11   62.76   24.00
 -12  -2  11   66.69   20.45
  12  -2 -10   13.11    7.25
 -12   2  10   12.03    7.06
 -12  -2  10   14.49    8.67
  12  -2  -9   28.09   20.37
 -12   2   9   34.96   12.62
 -12  -2   9   31.85   13.14
  12  -2  -8  101.18   14.00
  12   2  -8   75.57   10.60
  12  -2  -8   67.82   20.11
 -12   2   8   89.27   11.82
 -12  -2   8   69.09   26.79
  12  -2  -7   33.57    8.22
  12   2  -7   32.66   13.88
  12  -2  -7   33.11   16.02
 -12   2   7   42.98    6.40
 -12  -2   7   22.82   16.88
  12  -2  -6    1.32    1.83
  12   2  -6    2.54    3.80
  12  -2  -6    2.95    5.86
 -12   2   6    1.48    2.83
 -12  -2   6    0.95    1.82
  12  -2  -5  147.07   19.39
 -12   2   5  135.33   20.48
 -12  -2   5  146.63   14.56
  12   2  -4  183.75   18.47
  12  -2  -4  169.60   16.41
 -12   2   4  180.89   16.87
 -12  -2   4  187.02   17.31
  12  -2  -3   77.09    9.97
  12   2  -3   70.72   13.00
  12  -2  -3   71.69    8.21
 -12   2   3   75.85   18.82
 -12  -2   3   70.78    8.29
  12  -2  -2    9.08    9.27
  12   2  -2    8.70    5.55
  12  -2  -2    7.79    7.93
 -12   2   2    8.94    4.28
 -12  -2   2    8.73    5.21
  12  -2  -1  106.79   12.69
  12   2  -1  125.34   14.26
  12  -2  -1  132.86   19.22
 -12   2   1  117.70   19.38
 -12  -2   1  117.18   14.88
  12  -2   0  395.72   22.48
  12   2   0  420.85   23.38
  12  -2   0  390.24   20.54
 -12   2   0  424.42   24.12
 -12  -2   0  406.92   29.62
  12  -2   1  129.35   14.12
  12   2   1  117.38   14.08
  12  -2   1  125.64   16.60
 -12   2  -1  117.38   19.12
 -12  -2  -1  127.46   14.20
  12  -2   2    7.49    9.80
  12   2   2    7.62    5.05
  12  -2   2    6.01    3.75
 -12   2  -2    8.38    5.74
  12  -2   3   73.28   12.97
  12   2   3   74.79   10.70
  12  -2   3   70.31    9.66
  12  -2   4  162.24   17.37
  12   2   4  172.95   17.70
  12  -2   4  166.72   15.34
  12  -2   5  133.78   17.53
  12   2   5  138.01   13.32
  12  -2   5  131.94   10.49
  12  -2   6    3.59    6.64
  12   2   6    1.55    4.25
  12  -2   7   42.94   12.50
  12   2   7   30.37   14.34
  12  -2   8   79.49    9.76
  12   2   8   69.89   11.09
  12  -2   9   27.30   18.22
  12   2   9   33.49   18.09
  12  -2  10    9.91    7.08
  12   2  10   13.57    7.82
  12  -2  11   54.90   10.94
  12   2  11   59.54    9.55
  12  -2  12  125.56   25.20
  12   2  12  126.66   15.27
  12  -2  13   15.36   18.83
  12   2  13    8.70   14.18
  12  -2  14    1.82    4.96
  12   2  14    4.80    6.02
  12  -2  15   17.63   17.19
  12   2  15   20.56   12.64
  12  -3 -14   17.78   12.14
 -12   3  14   24.09   10.24
 -12  -3  14   19.94   11.28
  12  -3 -13  108.30   15.05
 -12   3  13   80.25   10.12
 -12  -3  13   90.04   15.07
  12  -3 -12   10.86   17.44
 -12   3  12    9.54    6.34
 -12  -3  12   15.75    6.90
  12  -3 -11   78.47   30.89
 -12   3  11   84.47   29.38
 -12  -3  11   79.26    8.41
  12  -3 -10    4.31    4.45
 -12   3  10    8.50    4.86
 -12  -3  10    5.12    4.76
  12  -3  -9  152.22   15.64
 -12   3   9  150.57   15.71
 -12  -3   9  157.10   13.73
  12  -3  -8  121.66   14.77
  12   3  -8  125.25   14.60
  12  -3  -8  128.61   17.13
 -12   3   8  140.53   16.37
 -12  -3   8  124.15   14.88
  12  -3  -7   10.94    7.99
  12   3  -7    7.18    3.78
  12  -3  -7   13.84    9.41
 -12   3   7    6.30    7.25
 -12  -3   7    6.89    4.11
  12  -3  -6  455.47   38.82
  12   3  -6  295.60   25.76
  12  -3  -6  292.58   29.40
 -12   3   6  308.14   24.40
 -12  -3   6  301.05   24.58
  12  -3  -5   43.02    9.66
  12   3  -5   24.40   16.83
  12  -3  -5   35.26   22.94
 -12   3   5   25.95   16.82
 -12  -3   5   31.18   17.28
  12  -3  -4   12.33   11.13
  12   3  -4   10.01    9.65
  12  -3  -4   13.26    8.43
 -12   3   4   13.50    9.29
 -12  -3   4   15.38    9.96
  12  -3  -3  263.70   27.42
  12   3  -3  269.56   28.35
  12  -3  -3  275.88   20.57
 -12   3   3  296.79   19.50
 -12  -3   3  297.14   19.92
  12  -3  -2  112.96   25.45
  12   3  -2   94.53   11.44
  12  -3  -2  110.84   13.19
 -12   3   2   98.38   15.32
  12  -3  -1  246.13   16.88
  12   3  -1  248.85   16.44
  12  -3  -1  252.03   17.27
 -12   3   1  263.19   14.60
 -12  -3   1  250.91   22.10
  12  -3   0   17.15   12.63
  12   3   0   15.37    8.81
  12  -3   0   18.12   11.33
 -12   3   0   14.66    9.00
 -12  -3   0   16.39    8.08
  12  -3   1  287.47   19.24
  12   3   1  250.02   16.53
  12  -3   1  236.60   20.14
 -12   3  -1  262.63   31.36
 -12  -3  -1  275.40   26.55
  12  -3   2  100.37   21.99
  12   3   2  105.45   16.48
  12  -3   2  101.62   11.68
 -12   3  -2  110.39   13.60
  12  -3   3  305.60   22.80
  12   3   3  265.84   19.43
  12  -3   3  297.79   22.44
 -12   3  -3  289.33   18.42
  12  -3   4   13.72   11.56
  12   3   4   15.69   10.00
  12  -3   4    6.94    6.99
  12  -3   5   36.64   22.25
  12   3   5   28.19   20.42
  12  -3   5   25.24   13.51
  12  -3   6  293.96   29.42
  12   3   6  289.11   34.88
  12  -3   7    8.19    7.36
  12   3   7    5.84    6.86
  12  -3   8  122.34   16.32
  12   3   8  124.26   19.62
  12  -3   9  152.74   16.11
  12   3   9  144.89   22.60
  12  -3  10   12.76    9.92
  12   3  10    6.58    5.85
  12  -3  11   84.20   11.22
  12   3  11   65.42   16.63
  12  -3  12   11.70    6.65
  12   3  12   12.64   10.72
  12  -3  13   87.79   13.53
  12   3  13   97.97   19.98
  12  -3  14   25.58    7.97
  12   3  14   21.17   28.29
  12  -4 -14   76.03   16.42
 -12   4  14   82.87   10.32
 -12  -4  14   73.96   10.54
  12  -4 -13    6.81    5.55
 -12   4  13    3.93    4.76
 -12  -4  13    3.57    3.58
  12  -4 -12    2.99    6.77
 -12   4  12    6.12    3.76
 -12  -4  12    5.46    4.97
  12  -4 -11   48.32   11.64
 -12   4  11   56.09   22.72
 -12  -4  11   54.81   22.50
  12  -4 -10  161.89   17.59
 -12   4  10  168.31   15.31
 -12  -4  10  148.63   19.83
  12  -4  -9   78.64   10.89
 -12   4   9   84.46    8.01
 -12  -4   9   80.33    9.17
  12  -4  -8    9.37    7.77
  12   4  -8    7.52    5.45
  12  -4  -8   12.50    8.91
 -12   4   8    8.34    4.11
 -12  -4   8    6.94    5.21
  12  -4  -7   32.52    6.99
  12   4  -7   26.98   10.63
  12  -4  -7   33.82   20.03
 -12   4   7   30.70   10.65
 -12  -4   7   35.42   22.28
  12  -4  -6   61.57   22.16
  12   4  -6   50.16   10.93
  12  -4  -6   54.19    9.22
 -12   4   6   55.38   10.57
 -12  -4   6   64.70   10.35
  12  -4  -5   55.43   16.28
  12   4  -5   65.63    8.15
  12  -4  -5   40.95   17.68
 -12   4   5   57.14    5.76
 -12  -4   5   42.71   17.23
  12  -4  -4   91.71   11.31
  12   4  -4   59.61    8.63
  12  -4  -4   62.89    9.87
 -12   4   4   70.45   14.32
 -12  -4   4   64.09   25.97
  12  -4  -3   80.99   11.70
  12   4  -3   85.48   11.47
  12  -4  -3   73.00   10.52
 -12   4   3   75.58   11.90
 -12  -4   3   73.72   11.10
  12  -4  -2  189.16   18.50
  12   4  -2  169.29   17.04
  12  -4  -2  178.69   23.34
 -12   4   2  173.85   15.70
 -12  -4   2  174.25   16.56
  12  -4  -1   38.70   15.57
  12   4  -1   41.60    8.62
  12  -4  -1   46.07   11.22
 -12  -4   1   35.59   18.85
  12  -4   0   20.76   13.55
  12   4   0   20.51   11.34
  12  -4   0   15.85   14.00
 -12   4   0   17.47    5.96
 -12  -4   0   21.65   13.33
  12  -4   1   40.02    7.96
  12   4   1   38.78   21.13
  12  -4   1   38.81    9.89
 -12   4  -1   39.55   12.57
  12  -4   2  181.28   18.02
  12   4   2  186.41   26.65
  12  -4   2  162.15   15.17
  12  -4   3   81.91   27.02
  12   4   3   65.44   11.44
  12  -4   3   78.23   10.30
 -12   4  -3   74.41   11.61
  12  -4   4   73.32   32.29
  12   4   4   49.77    9.80
  12  -4   4   67.08    9.38
  12  -4   5   63.11   17.51
  12   4   5   41.51   21.82
  12  -4   5   63.76    5.94
  12  -4   6   59.57   21.71
  12   4   6   60.77   11.72
  12  -4   7   30.71   24.44
  12   4   7   36.02   23.20
  12  -4   8   12.75    9.67
  12   4   8    9.19    6.91
  12  -4   9   65.10   27.46
  12   4   9   90.02   10.77
  12  -4  10  139.90   23.29
  12   4  10  166.49   21.87
  12  -4  11   56.15   20.91
  12   4  11   53.51   10.39
  12  -4  12    7.08    5.91
  12   4  12    6.19    7.50
  12  -4  13    6.73    8.48
  12   4  13    6.37    5.44
  12  -4  14   74.82   11.33
  12   4  14   77.67   12.14
  12  -5 -14    5.78    7.37
 -12   5  14    8.59    5.66
 -12  -5  14    7.64    3.50
  12  -5 -13   18.44   23.02
 -12   5  13   22.02    9.71
 -12  -5  13   22.43   13.10
  12  -5 -12   84.95   13.55
 -12   5  12   74.14   25.88
 -12  -5  12   75.78   27.81
  12  -5 -11   27.95   11.66
 -12   5  11   24.37    7.51
 -12  -5  11   26.57   15.99
  12  -5 -10   42.84   13.26
 -12   5  10   43.07   12.89
 -12  -5  10   45.61   16.96
  12  -5  -9    3.67    6.26
 -12   5   9    9.39    4.91
 -12  -5   9    9.90    4.31
  12  -5  -8  111.40    9.43
  12   5  -8  120.14    9.85
  12  -5  -8  110.45   12.17
 -12   5   8  127.90    8.54
 -12  -5   8  114.53   14.14
  12  -5  -7  102.19   16.78
  12   5  -7  113.16   12.21
  12  -5  -7  109.12   12.22
 -12   5   7  118.76   11.98
 -12  -5   7  111.20   25.46
  12  -5  -6   59.00    8.96
  12   5  -6   55.77   15.81
  12  -5  -6   52.49   25.67
 -12   5   6   58.31   18.41
 -12  -5   6   56.73    6.71
  12  -5  -5  131.41   17.72
  12   5  -5  134.20   16.36
  12  -5  -5  120.84   22.63
 -12   5   5  130.10   14.79
 -12  -5   5  147.41   19.90
  12  -5  -4  136.09   22.27
  12   5  -4  118.13   13.28
  12  -5  -4  137.70   16.65
 -12   5   4  107.13   12.51
 -12  -5   4  133.83   13.55
  12  -5  -3   21.47    9.42
  12   5  -3   15.49   12.96
  12  -5  -3   16.90   12.20
 -12   5   3   14.57    7.14
 -12  -5   3   13.92    9.45
  12  -5  -2  142.47   20.00
  12   5  -2   73.02   10.76
  12  -5  -2   65.45   10.76
 -12   5   2   75.00   17.26
 -12  -5   2   52.99   19.88
  12  -5  -1   25.05    8.86
  12   5  -1   38.50    7.22
  12  -5  -1   20.83   14.14
 -12  -5   1   23.86    8.00
  12  -5   0  238.94   20.17
  12   5   0  187.52   24.82
  12  -5   0  200.27   19.43
 -12   5   0  208.58   11.98
 -12  -5   0  194.07   18.48
  12  -5   1   24.52    5.89
  12   5   1   18.88   18.07
  12  -5   1   24.74   15.75
  12  -5   2   67.89   11.12
  12   5   2   63.29   11.21
  12  -5   2   63.10   13.44
  12  -5   3   16.06   11.48
  12   5   3   14.77    8.12
  12  -5   3   15.02   11.52
 -12   5  -3   11.60    4.30
  12  -5   4  124.10   13.67
  12   5   4  125.11   24.35
  12  -5   4  118.72   11.52
 -12   5  -4  119.97   11.40
  12  -5   5  127.48   22.09
  12   5   5  141.78   18.34
  12  -5   6   60.72   10.45
  12   5   6   62.60   24.82
  12  -5   7   98.11   20.17
  12   5   7  112.47   13.16
  12  -5   8  116.00   12.67
  12   5   8  118.45   17.97
  12  -5   9   10.41    7.08
  12   5   9    6.16    4.79
  12  -5  10   52.17    8.72
  12   5  10   51.05    9.12
  12  -5  11   16.27   16.34
  12   5  11   26.16   22.72
  12  -5  12   87.30   13.06
  12   5  12   78.85   16.95
  12  -5  13   12.71   23.10
  12   5  13   26.11   12.23
  12  -5  14    7.86   11.31
  12   5  14   10.97    7.76
  12  -6 -13   82.22   16.79
 -12   6  13   49.62   28.75
 -12  -6  13   66.57   21.25
  12  -6 -12    9.37   10.49
 -12   6  12   14.08    7.36
 -12  -6  12   12.69    7.99
  12  -6 -11   49.42   31.05
 -12   6  11   61.05   25.19
 -12  -6  11   59.41   19.79
  12  -6 -10    4.41    4.05
 -12   6  10    2.89    3.54
 -12  -6  10    5.63    3.42
 -12   6   9    7.18    3.06
 -12  -6   9    6.27    4.04
  12  -6  -8  107.32    9.82
  12   6  -8  110.06    8.13
  12  -6  -8  116.61   18.75
 -12   6   8  117.85    9.81
 -12  -6   8  107.42   20.55
  12  -6  -7   42.76   20.33
  12   6  -7   49.14    8.15
  12  -6  -7   39.53   29.60
 -12   6   7   44.49   13.61
 -12  -6   7   52.64   20.47
  12  -6  -6    3.82    3.87
  12   6  -6    4.63    6.64
  12  -6  -6    5.77    5.60
 -12   6   6    5.11    3.96
 -12  -6   6    6.90    4.73
  12  -6  -5   40.16   11.94
  12   6  -5   44.51   16.34
  12  -6  -5   44.84    8.56
 -12   6   5   43.95    4.82
 -12  -6   5   42.64    8.28
  12  -6  -4  118.34   19.28
  12   6  -4   91.30   14.51
  12  -6  -4   95.66   17.22
 -12  -6   4  114.13   15.00
  12  -6  -3   58.60   14.78
  12   6  -3   49.18   22.96
  12  -6  -3   50.39   26.60
 -12   6   3   53.38   13.88
 -12  -6   3   45.48   13.11
  12  -6  -2   12.92    7.23
  12   6  -2   14.31   14.38
  12  -6  -2   14.62   14.97
 -12   6   2   13.42    6.16
 -12  -6   2   13.71    7.51
  12  -6  -1  175.50   16.78
  12   6  -1  162.72   19.76
  12  -6  -1  163.50   15.74
 -12   6   1  156.19   16.03
 -12  -6   1  179.64   16.33
  12  -6   0   -0.58    5.72
  12   6   0    3.76    3.68
  12  -6   0    3.24    4.65
 -12  -6   0    2.00    3.46
  12   6   1  183.31   18.10
  12  -6   1  169.30   16.89
  12  -6   2   31.72   10.76
  12   6   2   15.34   12.24
  12  -6   2   15.62    9.41
 -12   6  -2   15.09    6.56
  12  -6   3   64.97   14.01
  12   6   3   54.98   21.15
  12  -6   3   48.95   17.04
 -12   6  -3   49.96    8.18
  12  -6   4   92.65   18.97
  12   6   4  120.80   18.85
  12  -6   4   80.79    8.52
 -12   6  -4  109.21   21.70
  12  -6   5   52.67   19.56
  12   6   5   37.66   21.40
 -12   6  -5   40.27    4.23
  12  -6   6    5.03    5.07
  12   6   6    3.17    5.71
  12  -6   7   48.97   18.03
  12   6   7   41.37   31.21
  12  -6   8  136.89   13.08
  12   6   8  107.01   15.94
  12  -6   9    9.91    8.71
  12   6   9    4.33    5.33
  12  -6  10    5.30    6.42
  12   6  10    9.01    6.42
  12  -6  11   88.95   32.91
  12   6  11   58.61   11.60
  12  -6  12   77.32   77.96
  12   6  12    6.54    6.99
  12  -6  13   78.75   28.28
  12   6  13   84.25   16.15
  12  -7 -13   10.51    7.52
 -12   7  13    4.90    6.03
 -12  -7  13    2.23    4.69
  12  -7 -12   36.76   10.80
 -12   7  12   41.29   11.41
 -12  -7  12   43.98   19.11
  12  -7 -11   10.13   14.60
 -12   7  11   13.93    8.78
 -12  -7  11   13.56   13.95
  12  -7 -10   94.36   13.61
 -12   7  10  112.48   24.05
 -12  -7  10  109.33   12.60
  12  -7  -9    4.54    9.28
 -12   7   9    6.00    4.00
 -12  -7   9    5.94    6.00
  12  -7  -8   19.47   12.61
  12   7  -8   24.88    4.49
  12  -7  -8   24.00   19.79
 -12   7   8   28.28    9.59
 -12  -7   8   23.16   16.61
  12  -7  -7   76.11   19.60
  12   7  -7   94.25    9.44
  12  -7  -7   79.09   17.28
 -12   7   7   84.24    7.12
 -12  -7   7   80.17   26.96
  12  -7  -6   31.45   11.16
  12   7  -6   34.00   18.82
  12  -7  -6   25.17   17.15
 -12   7   6   28.55    6.88
 -12  -7   6   30.32   18.01
  12  -7  -5   70.86   10.82
  12   7  -5   73.33   10.22
  12  -7  -5   85.05   11.54
 -12   7   5   81.49    7.01
 -12  -7   5   87.65   16.23
  12  -7  -4   97.10   15.50
  12   7  -4   92.61   11.22
  12  -7  -4   99.06   16.51
 -12   7   4   98.84    8.88
 -12  -7   4  108.73   10.99
  12  -7  -3    1.89    2.26
  12   7  -3    2.69    3.65
  12  -7  -3    1.78    5.89
 -12   7   3    4.15    3.05
 -12  -7   3    2.07    2.40
  12  -7  -2  135.82   26.55
  12   7  -2  128.42   16.53
  12  -7  -2  151.60   12.83
 -12   7   2  113.55   12.77
 -12  -7   2  138.80   18.16
  12  -7  -1   10.75    7.00
  12   7  -1   11.85    7.35
  12  -7  -1   10.78    7.05
 -12   7   1   10.31    5.41
 -12  -7   1    7.06    5.26
  12  -7   0  100.99   13.83
  12   7   0  104.29   18.42
  12  -7   0   97.27   15.75
 -12   7   0   98.35   11.25
 -12  -7   0   98.48   14.71
  12  -7   1   16.79   10.06
  12   7   1    7.36    7.82
  12  -7   1    9.69    6.13
 -12   7  -1    6.56    3.55
  12  -7   2  115.77   24.43
  12   7   2  152.79   14.08
  12  -7   2  119.91   15.86
 -12   7  -2  142.66   15.10
  12  -7   3    3.42    5.27
  12   7   3    2.61    3.77
  12  -7   3    2.69    4.78
 -12   7  -3    2.21    1.21
  12  -7   4   89.81   32.71
  12   7   4  106.06   12.52
  12  -7   4   89.05    9.21
  12  -7   5   95.68   16.86
  12   7   5   75.72   11.21
  12  -7   6   46.03   35.02
  12   7   6   32.26   27.62
  12  -7   7  107.58   33.13
  12   7   7   80.80   26.80
  12  -7   8   31.01   20.40
  12   7   8   21.35   12.07
  12  -7   9    2.20    6.37
  12   7   9    2.19    3.64
  12  -7  10  110.71   41.30
  12   7  10   98.38   13.59
  12  -7  11   21.05   10.45
  12   7  11   11.31   10.56
  12  -7  12   41.87   28.79
  12   7  12   42.00   24.09
  12  -7  13    1.85    5.00
  12   7  13    2.46    3.60
  12  -8 -12   13.52   11.46
 -12   8  12    6.00    5.16
 -12  -8  12   12.39    9.27
  12  -8 -11   25.44   16.30
 -12   8  11   21.06   18.65
 -12  -8  11   26.61   14.93
  12  -8 -10   13.88   15.85
 -12   8  10   13.74   14.10
 -12  -8  10   23.24   15.49
  12  -8  -9    7.82    6.85
 -12   8   9   14.81    8.58
 -12  -8   9   15.17    9.04
  12  -8  -8    1.88    4.67
  12   8  -8    1.08    2.89
  12  -8  -8    2.85    3.90
 -12   8   8    2.34    1.85
 -12  -8   8    2.78    3.09
  12  -8  -7   14.35    9.23
  12   8  -7    8.53   11.97
  12  -8  -7   12.21   12.42
 -12   8   7   10.24    7.22
 -12  -8   7   17.29   17.08
  12  -8  -6   80.96   13.97
  12   8  -6   76.13   12.74
  12  -8  -6   81.63   15.04
 -12   8   6   76.35   13.22
 -12  -8   6   92.15   26.15
  12  -8  -5   43.13   14.89
  12   8  -5   49.82   21.82
  12  -8  -5   42.94    9.55
 -12   8   5   46.15    5.00
 -12  -8   5   56.42   12.94
  12  -8  -4   11.79    6.98
  12   8  -4   11.04    8.27
  12  -8  -4   17.28   10.72
 -12   8   4    9.25    4.25
 -12  -8   4   10.50    9.30
  12  -8  -3   30.24   14.87
  12   8  -3   29.06    7.33
  12  -8  -3   27.18   23.06
 -12   8   3   20.65    8.32
 -12  -8   3   30.96   19.56
  12  -8  -2  173.64   21.26
  12   8  -2  201.63   17.84
  12  -8  -2  180.40   16.43
 -12  -8   2  187.93   16.05
  12  -8  -1   74.79   24.22
  12   8  -1   70.14   10.95
  12  -8  -1   69.47    7.85
 -12  -8   1   72.86    7.69
  12  -8   0    5.62    6.27
  12   8   0    1.11    3.25
  12  -8   0    1.76    2.70
 -12  -8   0    2.11    3.02
  12  -8   1   67.79    8.95
  12   8   1   62.03   14.35
  12  -8   1   62.86   11.16
 -12  -8  -1   69.64   10.29
  12  -8   2  193.64   17.33
  12   8   2  176.48   17.24
  12  -8   2  216.74   19.13
  12  -8   3   25.74   10.17
  12   8   3   26.78   15.67
  12  -8   3   18.94   12.80
  12  -8   4    8.74   10.81
  12  -8   5   44.37   18.50
  12   8   5   59.47   12.89
  12  -8   6   82.27   34.87
  12   8   6   82.45   14.32
  12  -8   7   13.45    6.14
  12   8   7   17.54   19.23
  12  -8   8    3.69    3.30
  12   8   8    2.24    3.82
  12  -8   9   15.27   11.92
  12   8   9   14.21   11.76
  12  -8  10   22.66   14.02
  12   8  10   17.88   20.05
  12  -8  11   31.09   14.49
  12   8  11   21.61   18.92
  12  -8  12    8.47    4.92
  12   8  12    7.53    8.21
  12  -9 -11    4.33   13.03
 -12  -9  11    9.99   10.25
  12  -9 -10    9.90   13.83
 -12  -9  10   15.33   12.72
  12  -9  -9   21.29   32.08
 -12  -9   9   34.00   17.98
  12   9  -8  155.39   17.26
  12  -9  -8  135.61   31.49
 -12  -9   8  148.53   18.28
  12  -9  -7   31.61    7.62
  12   9  -7   39.80   10.68
  12  -9  -7   33.58    8.84
 -12  -9   7   44.12   20.89
  12  -9  -6   98.79   10.09
  12   9  -6  110.10   10.53
  12  -9  -6  101.38   13.40
 -12  -9   6   99.10   12.29
  12  -9  -5   20.68   13.11
  12   9  -5   10.93   14.13
  12  -9  -5    9.03    9.94
 -12  -9   5   15.31    7.74
  12  -9  -4  172.96   17.11
  12   9  -4  173.61   19.01
  12  -9  -4  160.36   21.92
 -12  -9   4  164.54   20.07
  12  -9  -3   82.00   12.78
  12   9  -3   81.68    9.05
  12  -9  -3   84.07   10.36
 -12  -9   3   77.14   11.58
  12  -9  -2   39.20   20.82
  12   9  -2   36.98   17.41
  12  -9  -2   31.85    7.65
 -12  -9   2   36.48   17.15
  12  -9  -1   69.14   24.26
  12   9  -1   54.12   10.76
  12  -9  -1   65.60    8.73
 -12  -9   1   58.50   15.35
  12  -9   0    3.11    5.27
  12   9   0   -0.29    4.34
 -12  -9   0    3.22    2.32
  12  -9   1   50.12   20.14
  12   9   1   52.99   22.38
  12  -9   1   50.92    9.96
 -12  -9  -1   59.98    8.05
  12  -9   2   40.87   23.87
  12   9   2   31.91   27.24
  12  -9   2   35.74    6.40
  12  -9   3   85.26   26.50
  12   9   3   91.89   12.63
 -12  -9  -3   87.70    8.67
  12  -9   3   90.47    8.97
  12  -9   4  175.85   18.16
  12   9   4  176.01   19.20
 -12  -9  -4  196.23   17.98
  12  -9   4  166.07   14.54
  12  -9   5   20.17   18.40
  12   9   5   15.55   12.93
 -12  -9  -5   14.32    7.10
  12  -9   6  101.20   13.20
  12   9   6   82.48   20.43
 -12  -9  -6  104.75    7.86
  12  -9   7   39.61   19.24
  12   9   7   36.26    7.17
 -12  -9  -7   33.34    8.76
  12  -9   8  149.25   17.66
  12   9   8  162.62   20.18
  12  -9   9   32.78   17.14
  12   9   9   31.64   15.45
  12  -9  10   12.22   10.79
  12   9  10   13.17    9.97
  12  -9  11   10.95    8.89
  12   9  11   14.44    9.31
  12 -10 -10    4.97    7.12
 -12 -10  10    2.82    3.14
  12 -10  -9   28.17   31.47
 -12 -10   9   32.42   13.71
  12 -10  -8    2.08    4.48
 -12 -10   8   -0.67    3.49
  12 -10  -7   49.09   12.11
  12  10  -7   61.98   11.56
  12 -10  -7   47.00   25.55
 -12 -10   7   61.82   18.99
  12 -10  -6    5.53    4.16
  12  10  -6    6.22    7.51
  12 -10  -6    7.33    7.13
 -12 -10   6    8.15    5.78
  12 -10  -5   90.81   10.97
  12  10  -5   92.73   12.39
  12 -10  -5   94.55   16.06
 -12 -10   5  100.38   12.37
  12 -10  -4    2.10    2.75
  12  10  -4    2.33    4.08
  12 -10  -4    3.27    4.42
 -12 -10   4    2.26    3.59
  12 -10  -3   49.61   17.63
  12  10  -3   64.85   16.82
  12 -10  -3   59.89   26.23
 -12 -10   3   61.96    9.52
  12 -10  -2    6.56    5.14
  12 -10  -2    1.32    1.87
 -12 -10   2    3.45    6.20
  12 -10  -1   50.57   23.50
  12  10  -1   40.58   19.52
  12 -10  -1   53.35    7.94
 -12 -10   1   51.91    6.91
  12 -10   0   70.28   25.74
  12  10   0   76.51    9.40
  12 -10   0   73.39    8.79
 -12 -10   0   76.95    8.49
  12 -10   1   47.65   17.09
  12  10   1   47.46    8.38
 -12 -10  -1   46.18    7.96
  12 -10   1   47.97    8.84
 -12 -10  -1   43.97   20.03
  12 -10   2    8.50    5.05
  12 -10   2    4.40    7.58
  12 -10   3   69.11   33.30
  12  10   3   69.29   12.54
 -12 -10  -3   61.32   11.25
  12 -10   3   55.03    9.86
  12 -10   4    3.56    4.61
  12  10   4    1.89    3.42
  12 -10   5   97.74   29.72
  12  10   5   99.81   24.53
 -12 -10  -5   78.33    8.52
  12 -10   6    2.31    4.76
  12  10   6    8.40    9.02
 -12 -10  -6    5.39    4.82
  12 -10   7   71.67   14.62
  12  10   7   46.45   19.00
 -12 -10  -7   60.42    8.48
  12 -10   8    2.77    4.47
  12  10   8   -0.22    5.70
 -12 -10  -8    1.50    1.31
  12 -10   9   40.00   15.01
  12  10   9   23.51   32.01
  12 -10  10    5.80    5.60
  12  10  10    3.53    3.50
  12 -11  -9   24.03   25.26
 -12 -11   9   29.57   20.42
  12 -11  -8    6.90    7.02
 -12 -11   8   10.10    6.88
  12 -11  -7    9.09   13.69
  12  11  -7    9.25   15.64
  12 -11  -7   17.74   14.17
 -12 -11   7   16.11   11.63
  12 -11  -6    2.06    2.76
  12  11  -6    0.77    3.58
  12 -11  -6    2.98    5.87
 -12 -11   6    1.48    3.56
  12 -11  -5    1.76    4.12
  12  11  -5    7.77    8.54
  12 -11  -5    5.75    5.39
 -12 -11   5    4.49    2.97
  12 -11  -4   16.17   12.49
  12  11  -4   11.50   11.51
  12 -11  -4   10.55   10.25
 -12 -11   4   15.13   12.56
  12 -11  -3   51.67   18.44
  12  11  -3   43.93   19.23
  12 -11  -3   54.27   15.64
 -12 -11   3   70.11    8.42
  12 -11  -2   68.72   11.14
  12  11  -2   72.48    8.70
  12 -11  -2   72.73   14.62
 -12 -11   2   74.73   17.72
  12 -11  -1   47.07   24.09
  12  11  -1   60.78   13.18
 -12 -11   1   51.15    8.94
  12 -11   0   21.74   13.68
  12  11   0   22.29   19.01
 -12 -11   0   18.42   16.76
  12 -11   0   14.57   15.82
 -12 -11   0   18.94    9.35
  12 -11   1   49.46   23.20
  12  11   1   52.88    7.46
 -12 -11  -1   58.16   11.97
  12 -11   1   46.84   15.94
 -12 -11  -1   54.73    7.80
  12 -11   2   68.18   38.01
  12  11   2   71.47   11.60
 -12 -11  -2   61.26   13.74
  12 -11   2   74.60    8.01
  12 -11   3   51.36   29.07
  12  11   3   53.67   28.06
 -12 -11  -3   52.47   14.66
  12 -11   3   56.59    7.02
  12 -11   4   20.07    7.78
  12  11   4   11.32    9.02
 -12 -11  -4   13.31   10.34
  12 -11   5    7.61    7.02
  12  11   5    2.93    4.24
 -12 -11  -5    4.08    3.79
  12 -11   6    1.61    3.77
  12  11   6    2.68    5.39
 -12 -11  -6    2.37    3.57
  12 -11   7   11.32   11.54
  12  11   7   17.37   20.37
 -12 -11  -7   11.67   12.64
  12 -11   8   10.03    7.41
  12 -12  -7    2.03    3.16
  12  12  -7    4.75    5.65
  12 -12  -7    2.76    6.85
 -12 -12   7    3.23    4.84
  12 -12  -6   47.26    9.89
  12  12  -6   50.62   19.40
  12 -12  -6   55.39   18.86
 -12 -12   6   67.95   16.96
  12 -12  -5   15.65   12.58
  12  12  -5   15.04   15.90
  12 -12  -5   14.57   16.54
 -12 -12   5   18.52   13.18
  12 -12  -4    1.89    1.72
  12  12  -4    1.24    3.25
  12 -12  -4    2.85    5.21
 -12 -12   4    2.38    3.30
  12 -12  -3   74.86   25.51
  12  12  -3   77.90    9.98
  12 -12  -3   73.37    9.69
 -12 -12   3   83.41   14.31
  12 -12  -2   30.50   16.59
  12  12  -2   34.77   32.09
  12 -12  -2   28.14   15.46
 -12 -12   2   37.14   22.11
  12 -12  -1   56.07   26.56
  12  12  -1   71.26   12.87
 -12 -12   1   68.16   13.23
  12 -12  -1   61.92   10.73
 -12 -12   1   64.04   10.52
  12 -12   0   12.64   10.62
  12  12   0   13.13   15.97
 -12 -12   0   14.54   15.62
  12 -12   0    9.32   10.97
 -12 -12   0   18.27    6.50
  12 -12   1   57.89   22.14
  12  12   1   57.12   11.26
 -12 -12  -1   56.44    8.91
  12 -12   1   56.29    8.58
 -12 -12  -1   67.93    8.16
  12 -12   2   47.65   15.46
  12  12   2   37.69   11.85
 -12 -12  -2   39.07    8.16
  12 -12   2   28.88   19.20
 -12 -12  -2   38.95    6.89
  12 -12   3   83.62   19.74
  12  12   3   74.48   19.52
 -12 -12  -3   84.44   17.41
  12 -12   3   72.89   15.48
  12 -12   4    5.99    3.86
  12  12   4    1.94    4.00
 -12 -12  -4    2.78    4.14
  12 -12   5   15.65   13.85
  12  12   5   21.31   20.76
 -12 -12  -5   19.79    6.51
  12 -12   6   57.50   27.90
  12  12   6   47.79   28.90
 -12 -12  -6   53.78   10.40
  12 -12   7    8.77    6.58
  12  12   7    6.22    7.03
 -12 -12  -7    2.18    4.12
  12 -13  -4    8.12    8.36
  12  13  -4    5.22   12.71
  12 -13  -4    6.42    6.98
 -12 -13   4    4.25    4.99
  12 -13  -3   64.55   10.70
  12  13  -3   67.71   11.91
  12 -13  -3   40.53   36.21
 -12 -13   3   62.81   16.44
  12 -13  -2    1.57    3.19
  12  13  -2    3.44    6.24
 -12 -13   2    1.85    3.40
  12 -13  -2    0.86    4.66
 -12 -13   2    1.05    2.55
  12 -13  -1    3.99    4.18
  12  13  -1    3.76    4.20
 -12 -13   1    3.08    4.72
  12 -13  -1    1.24    6.29
 -12 -13   1    2.57    3.45
  12 -13   0   40.50   15.33
  12  13   0   47.34   22.13
 -12 -13   0   48.48   14.87
  12 -13   0   46.55   13.99
 -12 -13   0   43.49   21.58
  12 -13   1    3.86    5.05
  12  13   1    4.45    7.75
 -12 -13  -1    4.11    4.83
  12 -13   1    2.26    2.97
 -12 -13  -1    1.95    5.38
  12 -13   2    3.30    4.57
  12  13   2   -0.07    4.85
 -12 -13  -2    1.94    2.03
  12 -13   2    0.15    3.17
 -12 -13  -2    0.69    3.18
  12 -13   3   76.27   10.76
  12  13   3   65.73   10.92
 -12 -13  -3   64.97   12.50
  12 -13   4   10.87   10.02
  12  13   4    3.93    5.79
 -12 -13  -4    7.05    7.71
  13   0 -14    4.76    6.22
 -13   0  14    2.23    3.09
  13   0 -13   -0.52    5.96
 -13   0  13    2.55    3.51
  13   0 -12    4.51    5.53
 -13   0  12    4.47    5.05
  13   0 -11   13.94    9.78
 -13   0  11   12.67    6.54
  13   0 -10   11.76    7.75
 -13   0  10   20.40   13.53
  13   0  -9   24.81   12.95
 -13   0   9   28.50   14.95
  13   0  -8   26.57   12.31
 -13   0   8   25.81   12.07
  13   0  -7  240.66   24.24
  13   0  -7  250.92   22.36
 -13   0   7  268.13   20.34
 -13   0   6    2.45    5.39
  13   0  -5  245.14   17.43
  13   0  -5  239.19   18.24
 -13   0   5  234.91   16.17
  13   0  -4  157.39   14.85
  13   0  -4  163.40   17.26
 -13   0   4  154.36   18.71
  13   0  -3  146.09   16.09
 -13   0   3  145.10   14.21
  13   0  -2    3.27    4.04
 -13   0   2    3.99    2.42
  13   0  -1   33.22    6.80
 -13   0   1   31.56    8.30
  13   0   0    3.22    4.94
  13   0   0    1.59    2.93
 -13   0   0    0.94    2.81
  13   0   1   32.78   20.09
  13   0   1   29.27   23.18
 -13   0  -1   34.37   18.71
  13   0   2    8.13    5.93
  13   0   2    7.08    5.15
 -13   0  -2    7.45    7.03
  13   0   3  135.13   14.67
  13   0   3  117.69   11.61
  13   0   4  158.47   17.12
  13   0   4  139.08   14.73
  13   0   5  237.66   22.84
  13   0   7  255.47   21.80
  13   0   8   32.55    9.19
  13   0   9   24.37   24.40
  13   0  10   18.63    6.23
  13   0  11   12.32   15.54
  13   0  12    3.18    4.93
  13   0  13   -0.05    4.20
  13   0  14    3.26    4.70
  13  -1 -14    6.65   10.59
  13   1 -14    9.29   11.56
 -13   1  14   11.43    5.01
 -13  -1  14   12.86   10.50
  13  -1 -13   40.62   12.81
  13   1 -13   24.96   30.65
 -13   1  13   39.17   13.27
 -13  -1  13   40.67   18.69
  13  -1 -12   14.65    6.73
  13   1 -12   12.85   11.95
 -13   1  12   11.15    6.55
 -13  -1  12   15.84    8.86
  13  -1 -11   99.28   13.53
  13   1 -11   92.28   23.45
 -13   1  11  103.82   12.34
 -13  -1  11   90.23   24.41
  13  -1 -10   10.04    7.96
  13   1 -10    6.02   10.70
 -13   1  10    9.58    5.91
 -13  -1  10    5.31    4.43
  13  -1  -9    9.37    7.25
  13   1  -9    3.35    6.07
 -13   1   9    5.97    4.62
 -13  -1   9    6.68    3.15
  13  -1  -8   44.30   23.28
 -13   1   8   53.46   12.32
 -13  -1   8   38.73    8.12
  13  -1  -7  114.99   10.65
  13   1  -7  112.99   12.22
  13  -1  -7  103.10   18.89
 -13   1   7  106.09   10.77
 -13  -1   7  115.64   11.23
  13  -1  -6    8.03   10.94
  13   1  -6    9.16    7.33
  13  -1  -6   14.84   14.95
 -13   1   6   10.29    5.25
 -13  -1   6   13.50    7.34
  13  -1  -5  182.37   17.25
  13   1  -5  180.11   16.03
  13  -1  -5  157.35   24.75
 -13   1   5  175.02   13.93
 -13  -1   5  166.31   18.87
  13  -1  -4   77.31   10.36
  13   1  -4   84.18   10.74
  13  -1  -4   70.27    9.46
 -13   1   4   80.46   26.25
 -13  -1   4   75.38   24.38
  13  -1  -3    3.98    4.97
  13   1  -3    2.18    3.78
  13  -1  -3    1.80    4.86
 -13   1   3    1.80    3.62
 -13  -1   3    2.55    3.39
  13  -1  -2   69.40   20.57
  13   1  -2   57.52   15.48
  13  -1  -2   56.55   20.32
 -13   1   2   69.19   14.64
 -13  -1   2   70.25   19.78
  13  -1  -1  226.96   23.41
  13   1  -1  208.20   19.02
  13  -1  -1  209.16   20.40
 -13   1   1  203.77   21.33
 -13  -1   1  235.78   19.76
  13  -1   0  110.67   11.47
  13   1   0  107.93   11.26
  13  -1   0  104.49   16.34
 -13   1   0  110.02   15.55
 -13  -1   0  113.42   12.10
  13  -1   1  198.70   22.89
  13   1   1  228.04   20.79
  13  -1   1  213.47   18.74
 -13   1  -1  245.80   20.00
 -13  -1  -1  199.95   17.56
  13  -1   2   58.46   12.98
  13   1   2   61.21   12.89
  13  -1   2   53.74   12.59
 -13   1  -2   66.19   11.33
 -13  -1  -2   63.62   16.77
  13  -1   3    3.50    6.94
  13   1   3    3.29    5.96
  13  -1   3    3.70    2.45
  13  -1   4   79.56   36.36
  13   1   4   81.97   10.63
  13  -1   4   77.92    8.22
  13  -1   5  176.88   25.54
  13   1   5  179.35   20.68
  13  -1   6    9.96   10.10
  13   1   6   12.55    5.73
  13  -1   7  114.19   13.51
  13   1   7  115.91   13.84
  13  -1   8   59.92    9.18
  13   1   8   42.29   28.45
  13  -1   9    3.39    7.32
  13   1   9    3.95    7.20
  13  -1  10    5.09    5.60
  13   1  10    3.87    6.27
  13  -1  11   96.16   13.12
  13   1  11   95.80   13.18
  13  -1  12   13.55   11.21
  13   1  12   15.96   16.27
  13  -1  13   22.85   27.63
  13   1  13   27.16   19.05
  13  -1  14    7.12   13.96
  13   1  14    8.36    6.65
  13  -2 -13   38.47   27.75
  13   2 -13   34.05   36.03
 -13   2  13   32.19   17.58
 -13  -2  13   44.97   24.68
  13  -2 -12   54.73   26.98
  13   2 -12   46.34   34.59
 -13   2  12   48.54   21.24
 -13  -2  12   54.05   20.13
  13  -2 -11   42.77   32.11
 -13   2  11   44.40    8.01
 -13  -2  11   35.63   24.63
  13  -2 -10  130.99   17.78
 -13   2  10  137.71   22.55
 -13  -2  10  118.58   33.54
  13  -2  -9  110.45   11.30
 -13   2   9  120.05   24.81
 -13  -2   9  104.90   14.95
  13  -2  -8   56.17    9.38
 -13   2   8   55.59    7.17
 -13  -2   8   61.41    7.57
  13  -2  -7   12.55   13.33
  13   2  -7   14.38    7.33
  13  -2  -7   20.12   13.62
 -13   2   7   18.13   10.50
 -13  -2   7   16.88    8.27
  13  -2  -6   23.35   16.32
  13   2  -6    9.78    7.92
  13  -2  -6   30.16   11.97
 -13  -2   6   10.47    8.89
  13  -2  -5   28.69    5.06
  13   2  -5   25.71   14.04
  13  -2  -5   25.96   15.38
 -13   2   5   26.34    9.41
 -13  -2   5   28.67   13.75
  13  -2  -4   73.72   11.90
  13   2  -4   81.71    8.00
  13  -2  -4   70.38    8.90
 -13   2   4   81.63    7.22
 -13  -2   4   74.14   11.20
  13  -2  -3  134.67   19.85
  13   2  -3  118.84   16.62
  13  -2  -3  123.74   13.84
 -13   2   3  117.05   11.99
 -13  -2   3  130.57   14.73
  13  -2  -2  166.13   20.18
  13   2  -2  184.79   21.48
  13  -2  -2  174.18   13.52
 -13   2   2  176.13   19.89
 -13  -2   2  171.98   10.73
  13  -2  -1  141.05   14.50
  13   2  -1  154.42   15.75
  13  -2  -1  151.36   16.04
 -13   2   1  151.41   13.83
 -13  -2   1  144.46   14.81
  13  -2   0  190.75   17.84
  13   2   0  194.07   18.52
  13  -2   0  190.44   24.79
 -13   2   0  211.84   17.69
 -13  -2   0  201.59   17.53
  13  -2   1  134.70   16.88
  13   2   1  142.35   21.95
  13  -2   1  140.60   14.95
 -13   2  -1  152.16   13.85
 -13  -2  -1  138.17   13.25
  13  -2   2  178.67   21.55
  13   2   2  171.90   17.22
  13  -2   2  175.09   12.19
 -13   2  -2  175.26   15.42
  13  -2   3  123.86   14.17
  13   2   3  130.10   26.50
  13  -2   3  108.59   12.02
 -13   2  -3  136.15   15.59
  13  -2   4   79.03   11.33
  13   2   4   78.47   12.87
  13  -2   4   82.03    6.93
  13  -2   5   34.21   14.45
  13   2   5   37.89   27.38
  13  -2   6   28.42   17.89
  13   2   6   11.43    9.07
  13  -2   7   20.10   16.19
  13   2   7   24.16    9.61
  13  -2   8   46.45    9.36
  13   2   8   59.31   27.64
  13  -2   9  115.34   10.91
  13   2   9  112.76   33.58
  13  -2  10  140.36   16.26
  13   2  10  126.93   15.51
  13  -2  11   32.27   15.57
  13   2  11   46.23    9.85
  13  -2  12   50.45    9.35
  13   2  12   43.65   21.64
  13  -2  13   49.75    9.67
  13   2  13   37.52   15.81
  13  -3 -13   17.20   16.36
 -13   3  13   19.31   10.20
 -13  -3  13   17.67    6.06
  13  -3 -12   10.25    7.36
 -13  -3  12   11.72    6.80
  13  -3 -11   33.94   27.50
 -13   3  11   39.74   23.50
 -13  -3  11   42.89   14.01
  13  -3 -10  106.02   21.00
 -13   3  10  102.07   18.02
 -13  -3  10  111.54    9.85
  13  -3  -9   68.32   10.34
 -13   3   9   77.64   23.25
 -13  -3   9   68.54   27.49
  13  -3  -8    4.50    3.63
 -13   3   8    5.87    3.57
 -13  -3   8    4.38    3.19
  13  -3  -7   20.98   11.22
  13   3  -7   17.68   12.10
  13  -3  -7   15.32   11.87
 -13   3   7   23.45    6.40
 -13  -3   7   19.19   14.33
  13  -3  -6   11.01    8.47
  13   3  -6   10.79    4.12
  13  -3  -6    5.28    6.92
 -13   3   6   10.29    7.81
 -13  -3   6    5.67    4.60
  13  -3  -5   24.38    9.94
  13   3  -5   18.24   10.09
  13  -3  -5   23.05   24.45
 -13   3   5   17.70    6.53
 -13  -3   5   26.00   12.98
  13  -3  -4    3.70    6.34
  13   3  -4    0.47    4.21
  13  -3  -4    5.23    5.71
 -13   3   4    2.49    3.56
 -13  -3   4    4.76    4.99
  13  -3  -3   92.20   15.12
  13   3  -3   93.99   14.78
  13  -3  -3   94.82   18.28
 -13   3   3   92.48   13.71
 -13  -3   3   91.31   31.59
  13  -3  -2  264.13   23.18
  13   3  -2  247.97   23.07
  13  -3  -2  259.50   24.45
 -13   3   2  243.62   20.11
 -13  -3   2  255.30   21.45
  13  -3  -1   51.18    7.74
  13   3  -1   48.84   10.06
  13  -3  -1   59.78    7.87
 -13   3   1   46.55   15.07
 -13  -3   1   45.83   12.07
  13  -3   0   56.33   32.08
  13   3   0   51.29   21.80
  13  -3   0   62.46   16.90
 -13   3   0   51.42   14.15
 -13  -3   0   42.23    6.55
  13  -3   1   53.50    9.56
  13   3   1   47.30   10.06
  13  -3   1   44.13    6.47
 -13   3  -1   50.50    9.79
 -13  -3  -1   47.86    7.90
  13  -3   2  269.56   25.34
  13   3   2  257.25   22.77
  13  -3   2  230.76   22.38
 -13   3  -2  242.18   20.84
  13  -3   3  106.21   17.29
  13   3   3   90.88   13.52
  13  -3   3   81.09    8.10
 -13   3  -3   88.14   11.12
  13  -3   4    3.54    5.31
  13   3   4    4.75    3.86
  13  -3   4    3.60    4.09
  13  -3   5   17.09   14.46
  13   3   5   24.47   15.81
  13  -3   6    5.02    5.34
  13   3   6    4.09    6.27
  13  -3   7   16.20   11.85
  13   3   7   17.70   11.57
  13  -3   8    7.52    7.78
  13   3   8    7.30    5.34
  13  -3   9   82.95   18.47
  13   3   9   69.42    9.00
  13  -3  11   34.14   28.69
  13   3  11   25.99   22.23
  13  -3  12    4.43    4.91
  13   3  12    4.69    6.23
  13  -3  13   13.68    7.73
  13   3  13   12.13   10.79
  13  -4 -13    6.09    9.44
 -13   4  13    2.99    2.87
 -13  -4  13    4.72    5.42
  13  -4 -12    2.57    5.68
 -13   4  12    7.78    6.17
 -13  -4  12    2.05    4.12
  13  -4 -11   12.69    9.27
 -13   4  11   10.69    6.22
 -13  -4  11   13.31    5.33
  13  -4 -10   45.50   19.53
 -13   4  10   55.58   17.01
 -13  -4  10   50.02   24.98
  13  -4  -9   15.59   15.71
 -13   4   9   15.68    7.16
 -13  -4   9   11.11    6.74
  13  -4  -8   71.49   23.72
 -13   4   8   78.92   13.96
 -13  -4   8   65.37   17.76
  13  -4  -7   84.62   22.68
  13   4  -7   97.46    9.25
  13  -4  -7   95.98   21.30
 -13   4   7  111.17    8.68
 -13  -4   7   94.99    9.46
  13  -4  -6  257.53   23.80
  13   4  -6  260.63   21.66
  13  -4  -6  260.95   26.23
 -13   4   6  268.79   39.55
 -13  -4   6  288.67   22.39
  13  -4  -5  128.93   13.83
  13   4  -5   81.85    8.57
  13  -4  -5   88.64   15.63
 -13   4   5   81.36   21.44
 -13  -4   5   69.35   23.63
  13  -4  -4   11.15    8.22
  13   4  -4   18.42   12.62
  13  -4  -4    9.71    7.21
 -13   4   4   12.79    7.94
 -13  -4   4   13.39    9.03
  13  -4  -3    2.03    4.76
  13   4  -3    4.29    5.49
  13  -4  -3    1.27    5.15
 -13   4   3    2.89    2.70
 -13  -4   3    5.33    3.59
  13  -4  -2   26.02    8.15
  13   4  -2   16.08   16.86
  13  -4  -2   17.60   14.59
 -13   4   2   19.71    9.94
 -13  -4   2   21.99    8.00
  13  -4  -1   21.91   12.77
  13   4  -1   25.15   14.63
  13  -4  -1   20.33   17.23
 -13   4   1   26.11   12.71
 -13  -4   1   19.90    9.82
  13  -4   0    8.38   10.61
  13   4   0    6.91    7.68
  13  -4   0    7.15    6.71
 -13   4   0    7.38    4.18
 -13  -4   0    7.01    4.23
  13  -4   1   28.72    9.11
  13   4   1   17.19    9.23
  13  -4   1   22.71   11.35
 -13   4  -1   24.48    9.59
 -13  -4  -1   22.90   11.64
  13  -4   2   23.19   15.03
  13   4   2   21.23   13.23
  13  -4   2   14.52   10.90
 -13   4  -2   21.46    8.13
  13  -4   3    4.84    6.33
  13   4   3    4.64    4.07
  13  -4   3    0.85    2.72
 -13   4  -3    8.24    3.33
  13  -4   4   16.87   11.20
  13   4   4   12.08    8.34
  13  -4   4   12.50    9.12
 -13   4  -4   10.88    8.44
  13  -4   5   89.54   11.83
  13   4   5   70.03   23.57
  13  -4   6  253.65   21.75
  13   4   6  276.28   31.43
  13  -4   7  102.41   14.54
  13   4   7   90.25   17.91
  13  -4   8   76.08    9.73
  13   4   8   74.84   10.10
  13  -4   9   16.12    7.73
  13   4   9   14.55    9.12
  13  -4  11   13.65   10.54
  13   4  11    8.63    6.82
  13  -4  12    3.68    5.92
  13   4  12    1.99    5.01
  13  -4  13    6.39   10.28
  13   4  13    4.76    5.18
  13  -5 -12   17.03   22.13
 -13   5  12   25.76   11.84
 -13  -5  12   29.59   14.83
  13  -5 -11    8.67   11.84
 -13   5  11    9.24    7.26
 -13  -5  11   25.81    8.14
  13  -5 -10   28.59   27.97
 -13   5  10   35.23   13.19
 -13  -5  10   41.44   14.36
  13  -5  -9   62.64   11.27
 -13   5   9   65.65   10.45
 -13  -5   9   64.54    7.39
  13  -5  -8   33.46   27.37
 -13   5   8   35.45   11.63
 -13  -5   8   38.98   17.78
  13  -5  -7   40.43   16.86
  13   5  -7   54.75    7.90
  13  -5  -7   40.23   14.45
 -13   5   7   51.87    9.73
 -13  -5   7   49.53    8.65
  13  -5  -6   93.57    9.67
  13   5  -6   98.47    9.83
  13  -5  -6   95.03   11.30
 -13   5   6   99.20    8.22
 -13  -5   6   91.55   15.21
  13  -5  -5   37.19   13.94
  13   5  -5   41.76    8.51
  13  -5  -5   29.86   24.83
 -13   5   5   41.54   10.96
 -13  -5   5   31.96   10.79
  13  -5  -4   70.86   13.77
  13   5  -4   66.80    9.39
  13  -5  -4   78.14   11.03
 -13   5   4   69.77    6.97
 -13  -5   4   67.89   12.95
  13  -5  -3   28.69   16.07
  13   5  -3   18.31   11.31
  13  -5  -3   19.40   10.94
 -13   5   3   15.56    6.29
 -13  -5   3   25.04   11.48
  13  -5  -2  167.30   20.48
  13   5  -2   72.01    8.58
  13  -5  -2   74.64    8.43
 -13   5   2   74.91    6.15
 -13  -5   2   70.41    9.98
  13  -5  -1   19.36   15.31
  13   5  -1   20.80   15.43
  13  -5  -1   16.92   15.20
 -13   5   1   21.59   10.87
 -13  -5   1   19.51   12.13
  13  -5   0   46.48   12.18
  13   5   0   52.44    8.63
  13  -5   0   54.63    8.47
 -13   5   0   54.96    5.87
 -13  -5   0   52.50   15.93
  13  -5   1   20.87   13.90
  13   5   1   17.16   12.59
  13  -5   1   17.17   16.48
 -13   5  -1   17.29    5.01
 -13  -5  -1   17.36   14.19
  13  -5   2   83.86   11.90
  13   5   2   80.58   13.66
  13  -5   2   73.47    8.08
 -13   5  -2   84.54    6.08
  13  -5   3   12.41   11.21
  13   5   3   20.51   12.18
  13  -5   3   14.41   11.56
 -13   5  -3   18.21    9.11
  13  -5   4   70.36   15.46
  13   5   4   79.91   13.74
  13  -5   4   62.32    6.16
 -13   5  -4   67.21   13.09
  13  -5   5   37.28   28.74
  13   5   5   30.13   11.24
 -13   5  -5   36.70    8.76
  13  -5   6   96.37   11.42
  13   5   6   91.12   14.67
  13  -5   7   39.91   25.32
  13   5   7   45.45   21.01
  13  -5   8   34.74   19.72
  13   5   8   35.42   19.31
  13  -5   9   70.33   10.97
  13   5   9   65.02   10.89
  13  -5  10   26.32   25.95
  13   5  10   30.84   27.11
  13  -5  11    8.12    8.51
  13   5  11    6.99    9.80
  13  -5  12   19.18   17.17
  13   5  12   29.79   20.09
  13  -6 -12  106.67   21.82
 -13   6  12  115.33    9.83
 -13  -6  12  116.11   10.61
  13  -6 -11   14.63   15.85
 -13   6  11   15.64    7.19
 -13  -6  11   19.82   18.46
  13  -6 -10    4.41    7.79
 -13   6  10    0.43    1.54
 -13  -6  10    1.95    4.58
  13  -6  -9    6.51    8.78
 -13   6   9    9.78    6.85
 -13  -6   9    5.51    5.21
  13  -6  -8   70.92   17.68
 -13   6   8   76.35    6.87
 -13  -6   8   71.11   26.09
  13  -6  -7    3.35    2.08
  13   6  -7    0.93    2.54
  13  -6  -7    3.27    6.93
 -13   6   7    2.15    2.19
 -13  -6   7    4.22    6.35
  13  -6  -6    6.31    5.21
  13   6  -6    4.81    5.96
  13  -6  -6    2.81    6.71
 -13   6   6    7.19    4.98
 -13  -6   6    6.94    4.36
  13  -6  -5    4.01    4.23
  13   6  -5    1.99    3.26
  13  -6  -5    2.60    4.95
 -13   6   5    2.75    3.69
 -13  -6   5    2.80    5.85
  13  -6  -4  178.46   16.66
  13   6  -4  187.39   11.98
  13  -6  -4  166.89   13.78
 -13   6   4  178.44   11.70
 -13  -6   4  201.44   12.31
  13  -6  -3   65.42   21.04
  13   6  -3   52.21   14.85
  13  -6  -3   64.44   11.26
 -13   6   3   55.43    6.49
 -13  -6   3   63.59    7.64
  13  -6  -2    2.73    4.98
  13   6  -2    2.79    5.40
  13  -6  -2    1.80    3.13
 -13   6   2    5.83    3.61
 -13  -6   2    3.21    2.56
  13  -6  -1   50.92   22.97
  13   6  -1   33.85   25.60
  13  -6  -1   44.51    7.47
 -13   6   1   36.24    9.87
 -13  -6   1   45.74   25.61
  13  -6   0  224.27   21.74
  13   6   0  152.13   17.48
  13  -6   0  147.37   10.56
 -13   6   0  158.15   15.23
 -13  -6   0  149.24   15.45
  13  -6   1  226.20  117.84
  13   6   1   42.40   15.98
  13  -6   1   41.39    6.02
 -13   6  -1   47.59   14.64
 -13  -6  -1   29.38   17.62
  13  -6   2    5.37    8.02
  13   6   2    3.09    4.83
  13  -6   2    2.61    3.24
 -13   6  -2    3.50    2.18
  13  -6   3   75.55   17.23
  13   6   3   61.96   10.73
  13  -6   3   54.97    5.92
 -13   6  -3   61.53   20.22
  13  -6   4  211.95   17.37
  13   6   4  175.03   18.61
 -13   6  -4  170.57    9.02
  13  -6   5    1.61    4.54
  13   6   5    3.76    5.22
 -13   6  -5    1.90    2.54
  13  -6   6   10.34    5.93
  13   6   6    8.35    8.57
 -13   6  -6    6.01    5.60
  13  -6   7    3.53    4.14
  13   6   7    3.65    5.28
  13  -6   8   72.89   24.83
  13   6   8   76.63   17.16
  13  -6   9   13.85   10.33
  13   6   9    3.00    5.25
  13  -6  10    4.28    9.26
  13   6  10    3.07    5.43
  13  -6  11   20.95   17.53
  13   6  11   13.36   10.30
  13   6  12  130.61   14.34
  13  -7 -11   28.32   19.84
 -13   7  11   23.99   17.96
 -13  -7  11   38.36   19.17
  13  -7 -10    2.65    4.11
 -13   7  10    2.29    2.52
 -13  -7  10    3.38    5.14
  13  -7  -9   26.01   24.87
 -13   7   9   28.34    9.92
 -13  -7   9   27.74   12.01
  13  -7  -8   19.24   21.84
 -13   7   8   28.04   13.22
 -13  -7   8   23.66   15.46
  13  -7  -7    9.57   10.85
  13   7  -7    9.32   11.52
  13  -7  -7   15.59    7.82
 -13   7   7   15.44   10.98
 -13  -7   7   14.34    7.99
  13  -7  -6   17.48    7.39
  13   7  -6   12.69   17.20
  13  -7  -6   12.71   13.17
 -13   7   6   17.08    8.14
 -13  -7   6   18.42    9.83
  13  -7  -5   12.44   11.27
  13   7  -5    9.78    9.57
  13  -7  -5   11.88   10.50
 -13   7   5   12.13    6.75
 -13  -7   5   12.21    6.14
  13  -7  -4   60.28    6.94
  13   7  -4   56.85    7.75
  13  -7  -4   67.49   11.02
 -13   7   4   55.13    8.96
 -13  -7   4   66.69   25.05
  13  -7  -3   42.69   12.52
  13   7  -3   35.82   26.35
  13  -7  -3   37.48   24.56
 -13   7   3   38.39    9.74
 -13  -7   3   42.57   18.08
  13  -7  -2   50.05   14.82
  13   7  -2   49.32    9.73
  13  -7  -2   48.75   10.20
 -13   7   2   40.36    9.07
 -13  -7   2   41.19   15.22
  13  -7  -1   73.22    9.10
  13   7  -1   88.14   12.67
  13  -7  -1   61.41   10.11
 -13   7   1   71.73    9.97
 -13  -7   1   80.48   10.05
  13  -7   0   60.28   15.87
  13   7   0   56.59   10.12
  13  -7   0   56.11    8.03
 -13   7   0   47.85   15.45
 -13  -7   0   49.77   17.18
  13  -7   1   82.16   26.37
  13   7   1   79.54   10.29
  13  -7   1   87.10    8.98
 -13  -7  -1   90.52   13.53
  13  -7   2   45.60   17.88
  13   7   2   48.50   11.00
  13  -7   2   45.40    6.14
  13  -7   3   41.37   26.41
  13   7   3   53.39   17.91
  13  -7   3   31.53   16.60
  13   7   4   63.27   21.77
  13  -7   5   18.41    9.84
  13   7   5   14.76    9.00
  13  -7   6   20.06    8.37
  13   7   6   18.75   13.97
  13  -7   7   18.39   15.33
  13   7   7   12.09   16.49
  13  -7   8   41.21   17.58
  13   7   8   20.12   17.23
  13  -7   9   36.66   18.82
  13   7   9   21.42   21.02
  13  -7  10    6.04    6.34
  13   7  10    2.34    5.84
  13  -7  11   29.50   21.42
  13   7  11   34.03   26.59
  13  -8 -10   11.28   11.46
 -13   8  10   10.54    8.48
 -13  -8  10   15.04    9.23
  13  -8  -9   37.32   39.55
 -13   8   9   52.07    9.40
 -13  -8   9   51.46   18.22
  13  -8  -8   15.89    9.62
 -13   8   8   14.97    9.90
 -13  -8   8   19.88   10.10
  13  -8  -7  103.96   21.21
  13   8  -7  116.00   20.26
  13  -8  -7  111.69   21.54
 -13   8   7  119.23   13.49
 -13  -8   7  117.26   13.51
  13  -8  -6  108.44   16.43
  13   8  -6  124.99   14.68
  13  -8  -6  115.72   15.02
  13  -8  -5  123.63   14.17
  13   8  -5  118.55   16.72
  13  -8  -5  122.78   15.49
 -13  -8   5  131.25   20.06
  13  -8  -4    8.78    4.21
  13   8  -4    5.95    4.55
  13  -8  -4    3.91    6.00
 -13  -8   4    7.92    4.83
  13  -8  -3   68.11   20.86
  13   8  -3   75.77   10.11
  13  -8  -3   68.54   18.55
 -13  -8   3   78.89    8.25
  13  -8  -2   13.81    5.95
  13   8  -2    8.74   11.72
  13  -8  -2   11.50   10.68
 -13  -8   2   15.09    9.02
  13  -8  -1   24.02   12.46
  13   8  -1   21.12   17.19
  13  -8  -1   16.31   15.02
 -13  -8   1   25.24   15.49
  13  -8   0    3.72    4.59
  13   8   0    2.96    4.33
  13  -8   0    2.88    3.33
 -13  -8   0    0.49    2.95
  13  -8   1   21.20   13.03
  13   8   1   15.51   19.20
  13  -8   1   13.34   15.84
 -13  -8  -1   20.15   13.74
  13  -8   2   13.05    6.82
  13   8   2   13.93    8.77
  13  -8   2    8.12    5.79
  13  -8   3   74.42   11.66
  13   8   3   76.38   23.52
  13  -8   3   73.92    8.23
  13  -8   4    9.64    6.72
  13   8   4    7.89    8.90
  13  -8   5  123.02   20.39
  13   8   5  130.32   15.67
  13  -8   6  118.64   36.49
  13   8   6  118.82   21.32
  13  -8   7  126.22   15.64
  13   8   7  126.42   17.86
  13  -8   8   21.40   16.33
  13   8   8    7.36   13.53
  13  -8   9   63.36   26.00
  13   8   9   53.99   11.01
  13  -8  10   12.84    8.03
  13   8  10   11.34   13.92
  13  -9  -9   16.13   28.20
 -13  -9   9   22.64   14.85
  13  -9  -8   12.72   12.87
 -13  -9   8   14.38    6.71
  13  -9  -7   20.09   12.05
  13   9  -7   13.77   14.47
  13  -9  -7   17.05   11.16
 -13  -9   7   29.42   19.61
  13  -9  -6   69.52   10.58
  13   9  -6   58.00   13.89
  13  -9  -6   53.24   25.29
 -13  -9   6   65.13   11.78
  13  -9  -5   23.68   14.24
  13   9  -5   22.58   13.74
  13  -9  -5   19.71   22.30
 -13  -9   5   24.76   18.79
  13  -9  -4   36.63   12.41
  13   9  -4   27.20   12.22
  13  -9  -4   25.36   20.04
 -13  -9   4   33.76   18.30
  13  -9  -3   35.37   19.66
  13   9  -3   43.72    9.24
  13  -9  -3   37.35   27.64
 -13  -9   3   35.34    7.19
  13  -9  -2   28.96   18.24
  13   9  -2   33.75   14.89
  13  -9  -2   25.05   23.68
 -13  -9   2   35.67   20.58
  13  -9  -1   47.24   19.87
  13   9  -1   58.89    8.63
  13  -9  -1   52.23    7.68
 -13  -9   1   64.77   21.64
  13  -9   0    4.36    5.27
  13   9   0    7.87    5.84
  13  -9   0    6.86    4.55
 -13  -9   0    5.47    3.95
  13  -9   1   53.97   28.04
  13   9   1   45.20   34.60
  13  -9   1   57.79    7.18
 -13  -9  -1   54.44    7.15
  13  -9   2   38.14   24.12
  13   9   2   22.21   21.12
  13  -9   2   33.69    9.18
  13  -9   3   42.28   18.34
  13   9   3   39.91   27.31
  13  -9   3   36.03    8.47
  13  -9   4   22.72   16.94
  13   9   4   32.37   13.00
  13  -9   5   31.21   16.71
  13   9   5   17.61   15.66
  13  -9   6   53.37   28.12
  13   9   6   63.45   12.41
  13  -9   7   25.22   13.07
  13   9   7   21.84   24.70
  13  -9   8   18.35   11.88
  13   9   8   12.91   12.77
  13  -9   9   27.16   16.36
  13   9   9   13.41   15.62
  13 -10  -8    7.45    8.68
 -13 -10   8    2.77    2.61
  13 -10  -7    1.44    2.66
  13  10  -7    2.38    2.42
  13 -10  -7    3.92    4.83
 -13 -10   7    7.82    5.75
  13 -10  -6    3.05    2.79
  13  10  -6    3.79    4.62
  13 -10  -6    4.21    6.10
 -13 -10   6    2.60    3.06
  13 -10  -5    7.33    6.98
  13  10  -5    4.70    8.90
  13 -10  -5   12.30   11.91
 -13 -10   5    9.29    5.65
  13 -10  -4    8.65    9.40
  13  10  -4    4.39   10.33
  13 -10  -4   11.66    8.83
 -13 -10   4    8.13    6.18
  13 -10  -3   38.75   17.80
  13  10  -3   31.10   17.33
  13 -10  -3   29.28   19.84
 -13 -10   3   34.02   26.32
  13 -10  -2   40.83   12.15
  13  10  -2   35.02   14.17
  13 -10  -2   35.09   12.25
 -13 -10   2   35.27   13.87
  13 -10  -1   86.03   31.35
  13  10  -1   97.00   12.33
  13 -10  -1   90.66   11.58
 -13 -10   1   81.74   15.01
  13 -10   0   10.16    4.98
  13  10   0    8.60   10.28
  13 -10   0    6.94    5.82
 -13 -10   0   12.19    6.67
  13 -10   1   87.01   29.69
  13  10   1   88.27   12.24
  13 -10   1   83.39   12.09
 -13 -10  -1  103.07   13.40
  13 -10   2   32.51   12.97
  13  10   2   26.76   17.78
  13 -10   2   29.53   11.75
 -13 -10  -2   33.36   11.24
  13 -10   3   42.21   17.20
  13  10   3   35.16    7.56
  13 -10   4    7.92    3.08
  13  10   4    7.69    8.56
  13 -10   5   11.46    6.76
  13  10   5    9.00    9.04
  13 -10   6    3.67    3.92
  13  10   6    3.62    6.44
  13 -10   7    5.06    7.43
  13  10   7    1.37    3.90
  13 -10   8    5.94    8.68
  13  10   8    2.63    4.05
  13 -11  -6    5.49    6.02
  13  11  -6    6.05    7.14
  13 -11  -6    7.70    6.93
 -13 -11   6    6.79    9.42
  13 -11  -5   44.13   11.84
  13  11  -5   39.78   18.91
  13 -11  -5   37.09   24.46
 -13 -11   5   51.05   24.38
  13 -11  -4   27.89   20.72
  13  11  -4   36.14    8.45
  13 -11  -4   20.25   23.95
 -13 -11   4   35.81   16.59
  13 -11  -3    1.94    3.81
  13  11  -3    1.62    5.15
  13 -11  -3    3.78    3.18
 -13 -11   3    3.57    2.96
  13  11  -2   48.48   24.20
  13 -11  -2   56.03    9.19
 -13 -11   2   53.11    6.92
  13 -11  -1   25.87   11.51
  13  11  -1   15.34   19.06
  13 -11  -1   16.79   24.23
 -13 -11   1   29.43   15.80
  13 -11   0   66.14   17.91
  13  11   0   50.17   20.66
  13 -11   0   72.41    9.72
 -13 -11   0   73.44   23.47
  13 -11   1   25.72    9.29
  13  11   1   24.66    8.80
  13 -11   1   18.49   15.33
 -13 -11  -1   16.24   15.50
  13 -11   2   47.82   19.24
  13  11   2   49.64   16.21
  13 -11   2   41.18    7.02
 -13 -11  -2   52.20   27.62
  13 -11   3    4.33    4.16
  13  11   3    5.95    6.60
  13 -11   4   27.54   17.64
  13  11   4   25.75   28.28
 -13 -11  -4   29.41   10.56
  13 -11   5   54.03   13.55
  13  11   5   46.56   13.87
 -13 -11  -5   40.69   20.42
  13 -11   6    7.61    9.92
  13  11   6    5.94   10.20
 -13 -11  -6    5.36    7.38
  13 -12  -4   36.92    8.56
 -13 -12   4   35.30    9.14
  13 -12  -3    9.56   14.13
  13  12  -3    8.84   16.59
  13 -12  -3   10.99    8.88
 -13 -12   3   10.52    5.58
  13 -12  -2    9.08    6.38
  13  12  -2    9.12   12.76
  13 -12  -2   14.42   10.65
 -13 -12   2   13.43    8.08
  13 -12  -1   11.54    9.27
  13  12  -1    8.01   11.83
  13 -12  -1    5.88    6.24
 -13 -12   1   11.49   10.87
  13 -12   0   12.87   11.14
  13  12   0   11.27   10.06
  13 -12   0    8.87   11.80
 -13 -12   0   14.35    7.99
  13 -12   1   13.98    9.02
  13  12   1    9.28    9.68
  13 -12   1    9.46    5.85
 -13 -12  -1   12.56   10.98
  13 -12   2   12.30   13.87
  13  12   2    8.39   16.11
 -13 -12  -2    3.76   11.51
  13 -12   2   10.94   12.32
 -13 -12  -2   10.42    9.64
  13 -12   3   18.69    9.15
  13  12   3   12.06    8.06
 -13 -12  -3   19.80    8.92
 -13 -12  -4   30.71    9.68
  14   0 -12   56.22   24.19
 -14   0  12   62.60   22.20
  14   0 -11    3.46    4.24
 -14   0  11    2.70    2.91
  14   0 -10    7.07    6.51
 -14   0  10    8.56    5.68
  14   0  -9   69.39   17.89
 -14   0   9   88.18   18.63
  14   0  -8   95.80   11.06
 -14   0   8  100.39    8.98
  14   0  -7    4.37    4.01
  14   0  -7    6.12    9.38
 -14   0   7    8.10    5.38
  14   0  -6    1.65    5.64
  14   0  -6    6.71    6.13
 -14   0   6    9.76    5.51
  14   0  -5    8.30   12.15
  14   0  -5   17.73   12.65
 -14   0   5   13.58   10.87
  14   0  -4   72.44   19.30
  14   0  -4   83.78   15.77
 -14   0   4   92.02   10.21
  14   0  -3  181.41   16.81
  14   0  -3  167.84   15.93
 -14   0   3  185.78   15.59
  14   0  -2   99.18   12.09
  14   0  -2   98.26   11.12
 -14   0   2   93.28    9.96
  14   0  -1   45.45   15.15
  14   0  -1   41.36    9.68
 -14   0   1   43.22   23.91
  14   0   0  307.61   23.15
  14   0   0  309.98   20.67
 -14   0   0  314.07   20.09
  14   0   1   52.83    9.26
  14   0   1   41.55   13.00
 -14   0  -1   37.62    9.68
  14   0   2   95.25   15.51
  14   0   2   97.27   10.24
 -14   0  -2  101.85   10.19
  14   0   3  177.04   16.56
  14   0   3  160.37   15.19
 -14   0  -3  186.02   16.03
  14   0   4   85.51   13.22
  14   0   4   80.20   10.28
  14   0   6    7.59    5.98
  14   0   7    5.08    6.00
  14   0   8   98.34   15.49
  14   0   9   72.00   24.32
  14   0  10   12.78   10.52
  14   0  11    6.57    9.28
  14   0  12   62.04   12.66
  14  -1 -12   47.18   22.83
  14   1 -12   28.56   34.77
 -14   1  12   54.81    9.58
 -14  -1  12   52.54    8.86
  14  -1 -11    8.87   12.17
  14   1 -11    7.10   10.71
 -14   1  11    7.42    5.28
 -14  -1  11   12.01    9.60
  14  -1 -10   20.52   20.37
  14   1 -10   24.89   23.15
 -14   1  10   24.32   15.16
 -14  -1  10   30.18   11.94
  14  -1  -9    9.98    9.47
  14   1  -9   12.40    9.41
 -14   1   9    9.56    5.62
 -14  -1   9    7.47    4.03
  14  -1  -8   79.73   43.27
  14   1  -8  102.88   11.57
 -14   1   8  102.72   12.23
 -14  -1   8   83.94    8.36
  14  -1  -7    8.14    8.48
  14   1  -7    6.83    7.66
  14  -1  -7   18.08    8.59
 -14   1   7   13.63   13.40
 -14  -1   7   10.95    7.40
  14  -1  -6   70.14   12.22
  14   1  -6   63.26   14.07
  14  -1  -6   65.48    9.36
 -14   1   6   75.53   25.07
 -14  -1   6   78.39   10.41
  14  -1  -5   41.97    9.94
  14   1  -5   18.89   15.36
  14  -1  -5   31.67   21.11
 -14   1   5   34.67    8.05
 -14  -1   5   24.09   10.36
  14  -1  -4  180.42   16.28
  14   1  -4  180.84   15.87
  14  -1  -4  197.44   18.84
 -14   1   4  181.30   16.97
 -14  -1   4  184.22   15.80
  14  -1  -3    6.54    6.33
  14   1  -3    7.76    6.27
  14  -1  -3   13.13    5.56
 -14   1   3   12.19    5.22
 -14  -1   3    7.87    4.86
  14  -1  -2  120.66   20.55
  14  -1  -2  120.55   12.76
 -14   1   2  125.82   13.95
 -14  -1   2  120.02   11.51
  14  -1  -1   67.16   10.67
  14   1  -1   66.83   12.80
  14  -1  -1   55.76   17.31
 -14   1   1   80.38   18.36
 -14  -1   1   65.23    7.11
  14  -1   0  184.94   17.58
  14   1   0  213.21   19.47
  14  -1   0  170.34   15.09
 -14   1   0  173.57   33.41
 -14  -1   0  191.82   16.00
  14  -1   1   63.98   11.58
  14   1   1   64.80    9.04
  14  -1   1   65.93    7.98
 -14   1  -1   72.54    7.17
 -14  -1  -1   71.98   21.00
  14  -1   2  139.67   20.31
  14   1   2  118.60   13.84
  14  -1   2  129.27   12.76
 -14   1  -2  118.97   11.53
 -14  -1  -2  143.69   37.57
  14  -1   3   14.14    9.68
  14   1   3    6.79    8.24
  14  -1   3    6.98    5.12
 -14   1  -3    6.14    7.32
  14  -1   4  165.20   16.32
  14   1   4  169.64   16.74
  14   1   4  186.09   16.07
  14  -1   6   73.03   15.09
  14   1   6   80.50   11.15
  14  -1   7   18.78   14.47
  14   1   7    9.13    6.80
  14  -1   8   98.31   13.56
  14   1   8   99.68   15.47
  14  -1   9    7.21    6.50
  14   1   9   13.66    7.21
  14  -1  10   30.45   18.70
  14   1  10   25.56   25.77
  14  -1  11   10.54   12.81
  14   1  11    6.58    6.32
  14  -1  12   42.43   19.37
  14   1  12   45.32   27.69
  14  -2 -12    2.63    7.40
  14   2 -12    8.46   10.85
 -14   2  12    1.88    3.63
 -14  -2  12    0.44    2.97
  14  -2 -11   10.56   12.45
  14   2 -11    7.83   11.07
 -14   2  11    6.37    4.61
 -14  -2  11    9.84    9.84
  14  -2 -10   29.19   25.22
 -14   2  10   40.94   23.34
 -14  -2  10   34.41   21.13
  14  -2  -9   60.40   21.36
 -14   2   9   75.30   20.70
 -14  -2   9   71.43   22.12
  14  -2  -8   10.32   10.67
 -14   2   8    8.00    5.22
 -14  -2   8    5.65    4.40
  14  -2  -7    6.83    8.44
  14   2  -7    7.69    4.73
  14  -2  -7    5.68    9.93
 -14   2   7    8.88    8.47
 -14  -2   7   11.15    5.28
  14  -2  -6   91.31   14.69
  14   2  -6  102.81    8.41
  14  -2  -6   85.23   10.48
 -14   2   6   88.66   13.61
 -14  -2   6   95.92    8.66
  14  -2  -5   44.35    7.41
  14   2  -5   34.26   13.61
  14  -2  -5   35.59   26.55
 -14   2   5   37.23   12.83
 -14  -2   5   33.91   12.94
  14  -2  -4   10.02    9.51
  14   2  -4    2.40    3.23
  14  -2  -4    6.98    8.39
 -14   2   4    7.70    7.90
 -14  -2   4    6.19    4.70
  14  -2  -3   86.09   15.07
  14   2  -3   91.77   12.54
  14  -2  -3   88.93   16.38
 -14   2   3   93.51    9.18
 -14  -2   3   89.44   11.48
  14  -2  -2   37.74   22.29
 -14   2   2   43.98   18.48
 -14  -2   2   50.46   16.59
  14  -2  -1   25.93   18.44
  14   2  -1   38.09   16.05
  14  -2  -1   31.95   21.09
 -14  -2   1   36.24   19.00
  14  -2   0    7.59    5.98
  14   2   0    3.83    5.51
  14  -2   0    5.55    3.93
 -14   2   0    7.52    4.98
 -14  -2   0    1.51    4.45
  14  -2   1   36.30   13.45
  14   2   1   32.03   24.82
  14  -2   1   36.91   10.52
 -14   2  -1   31.17   14.43
 -14  -2  -1   28.30   20.21
  14  -2   2   38.49   12.48
  14   2   2   42.11   21.66
  14  -2   2   33.73   10.31
 -14   2  -2   40.47   21.29
 -14  -2  -2   33.53    8.01
  14  -2   3   97.58   12.00
  14   2   3   90.20   11.59
  14  -2   3   91.77    9.39
 -14   2  -3   87.28   16.17
  14  -2   4    3.06    5.09
  14   2   4    3.72    4.39
  14  -2   5   41.69   16.96
  14   2   5   30.74   25.53
  14  -2   6   98.03   30.94
  14   2   6   91.94   23.27
  14  -2   7    7.55    7.85
  14   2   7   10.37    7.65
  14  -2   8    7.64    7.85
  14   2   8    4.98    4.81
  14  -2   9   76.48   12.43
  14   2   9   77.01   12.89
  14  -2  10   32.31   25.71
  14   2  10   34.33    7.61
  14  -2  11    7.42    9.07
  14   2  11    6.06    7.02
  14  -2  12    5.81    7.41
  14   2  12    3.92    5.97
  14  -3 -12   23.35   28.94
 -14   3  12   18.31   14.76
 -14  -3  12   25.11   23.88
  14  -3 -11   21.88   17.81
 -14   3  11   16.80   13.90
 -14  -3  11   21.88   17.53
  14  -3 -10   50.09   26.61
 -14   3  10   60.72   17.55
 -14  -3  10   52.67   21.84
  14  -3  -9   12.44   15.36
 -14   3   9   19.80    6.66
 -14  -3   9   10.01    7.37
  14  -3  -8   53.99   21.97
 -14   3   8   61.60   21.52
 -14  -3   8   51.88   19.69
  14  -3  -7  122.41   25.59
  14   3  -7  113.77    9.82
  14  -3  -7  124.51   23.92
 -14   3   7  133.39   13.61
 -14  -3   7  134.37   16.52
  14  -3  -6   38.16   21.85
  14   3  -6   11.47   12.77
  14  -3  -6   24.58   23.62
 -14   3   6   13.91    6.94
 -14  -3   6   24.13   12.95
  14  -3  -5   82.51    8.31
  14   3  -5   75.20    8.54
  14  -3  -5   84.24   11.71
 -14   3   5   76.51   24.98
 -14  -3   5   85.17    9.42
  14  -3  -4   34.67    6.83
  14   3  -4   22.49   19.57
  14  -3  -4   28.30   21.97
 -14   3   4   35.65   17.08
 -14  -3   4   31.08   14.66
  14  -3  -3    8.86    6.16
  14   3  -3   10.44   10.11
  14  -3  -3    7.46    9.26
 -14   3   3   10.19    5.40
 -14  -3   3   11.02    7.19
  14  -3  -2   16.95   17.65
  14   3  -2   11.48    9.71
  14  -3  -2   17.98   12.29
 -14   3   2   16.41    6.65
 -14  -3   2   21.38   14.88
  14  -3  -1   61.54   24.78
  14   3  -1   43.30   18.63
  14  -3  -1   58.98    8.15
 -14   3   1   44.50   16.63
 -14  -3   1   56.29   17.40
  14  -3   0   20.64   15.24
  14   3   0   17.00   18.62
  14  -3   0   22.38   14.00
 -14   3   0   23.04   11.77
 -14  -3   0   21.22    9.49
  14  -3   1   46.26    9.58
  14   3   1   59.13    8.61
  14  -3   1   40.23   19.03
 -14   3  -1   58.28    7.73
 -14  -3  -1   41.41   10.82
  14  -3   2   11.32   12.45
  14   3   2   21.43   18.31
  14  -3   2   13.15   10.13
 -14   3  -2   19.11    8.91
 -14  -3  -2   14.54   14.74
  14  -3   3    6.60    6.35
  14   3   3    8.89    5.86
  14  -3   3    6.23    4.40
 -14   3  -3   10.50    6.81
  14  -3   4   31.53   12.86
  14   3   4   24.02   18.22
 -14   3  -4   23.88    9.47
  14  -3   5   84.91   12.97
  14   3   5   77.28   12.69
  14  -3   6   26.47   17.65
  14   3   6   24.25   24.71
  14  -3   7  158.23   18.68
  14   3   7  139.86   17.59
  14  -3   8   58.97   35.63
  14   3   8   64.03   13.20
  14  -3   9   14.13   15.46
  14   3   9    9.31   17.57
  14  -3  10   55.05   28.84
  14   3  10   56.29   11.21
  14  -3  11   27.73   21.13
  14   3  11   13.21   23.72
  14  -3  12   17.51   20.52
  14   3  12   27.64   19.97
 -14   4  11   35.58   21.26
 -14  -4  11   38.69   16.73
  14  -4 -10   23.94   26.78
 -14   4  10   23.30   12.56
 -14  -4  10   35.19   18.71
  14  -4  -9   29.65   28.50
 -14   4   9   47.18   16.59
 -14  -4   9   35.02   14.81
  14  -4  -8   72.55   13.28
 -14   4   8   73.12   17.02
 -14  -4   8   57.23   29.66
  14  -4  -7    6.93    7.07
  14   4  -7    4.07    7.71
 -14   4   7    7.36    4.25
 -14  -4   7    9.12    3.52
  14  -4  -6   26.46   11.07
  14   4  -6   24.72    7.79
  14  -4  -6   22.58   14.93
 -14   4   6   28.32   14.66
 -14  -4   6   27.92   19.94
  14  -4  -5    2.02    4.98
  14   4  -5    3.06    3.88
  14  -4  -5    2.99    8.72
 -14   4   5    1.95    3.19
 -14  -4   5    1.43    2.64
  14  -4  -4   71.01   12.04
  14   4  -4   45.73    6.69
  14  -4  -4   44.62   28.53
 -14   4   4   50.73   14.98
 -14  -4   4   49.39   12.50
  14  -4  -3   93.75   10.22
  14   4  -3   76.40    8.84
  14  -4  -3   74.07   11.19
 -14   4   3   78.69   10.08
 -14  -4   3   85.31   27.67
  14  -4  -2   52.28    7.87
  14   4  -2   49.58   10.73
  14  -4  -2   44.41   20.56
 -14   4   2   52.16   12.13
  14  -4  -1  105.65   11.40
  14   4  -1   99.76   14.81
  14  -4  -1  100.57   10.68
 -14   4   1   88.63    7.35
  14  -4   0    0.94    2.06
  14   4   0    1.86    3.24
  14  -4   0    3.40    5.84
 -14   4   0    2.73    1.95
 -14  -4   0    1.60    1.91
  14  -4   1   87.50   15.19
  14   4   1   89.93   10.84
  14  -4   1   89.85   16.16
 -14   4  -1  105.11    7.33
 -14  -4  -1  100.74    9.06
  14  -4   2   60.06    9.36
  14   4   2   50.04   21.21
  14  -4   2   49.66   12.05
 -14   4  -2   55.08   16.46
 -14  -4  -2   66.68   11.47
  14  -4   3   77.38   17.65
  14   4   3   75.47   10.65
  14  -4   3   82.62    8.89
 -14   4  -3   72.59   20.53
  14  -4   4   39.19   26.93
  14   4   4   45.90   32.65
 -14   4  -4   46.44   12.55
  14  -4   5    5.05    6.66
  14   4   5    1.82    5.53
 -14   4  -5    0.80    2.86
  14  -4   6   24.78   14.33
  14   4   6   29.67   23.53
  14  -4   7    6.47    7.88
  14   4   7   10.44    8.64
  14  -4   8   57.82   27.77
  14   4   8   65.12   11.08
  14  -4   9   36.85    7.99
  14   4   9   40.99   27.23
  14  -4  10   20.54   10.87
  14   4  10   25.12   31.07
  14  -4  11   37.62    8.89
  14   4  11   28.94   28.64
  14  -5 -11   32.41   35.58
 -14   5  11   48.23    6.67
 -14  -5  11   48.12    8.14
  14  -5 -10    3.25    5.87
 -14   5  10    4.93    3.51
 -14  -5  10    2.62    4.91
  14  -5  -9    6.40    7.66
 -14   5   9    5.69    6.20
 -14  -5   9    2.17    2.35
 -14   5   8   15.14    6.46
 -14  -5   8   13.31    7.04
  14   5  -7   87.35   11.26
  14  -5  -7   74.10   22.56
 -14   5   7   94.73   23.22
 -14  -5   7   74.57    9.54
  14  -5  -6    8.68    7.59
  14   5  -6   11.30   11.85
  14  -5  -6   12.68    9.62
 -14   5   6   17.71    8.88
 -14  -5   6   12.78    6.45
  14  -5  -5  117.76   10.02
  14   5  -5  106.46   16.68
  14  -5  -5  102.06   23.31
 -14   5   5  110.42    8.01
 -14  -5   5  126.24   32.55
  14  -5  -4    6.93    3.86
  14   5  -4    4.94    5.71
  14  -5  -4    4.31    5.39
 -14   5   4    6.39    4.13
 -14  -5   4    4.11    4.47
  14  -5  -3   60.45   27.65
  14   5  -3   44.15    9.46
  14  -5  -3   44.82   10.97
 -14   5   3   47.49   14.53
 -14  -5   3   54.40   17.26
  14  -5  -2    9.12   22.69
  14   5  -2    2.79    4.92
  14  -5  -2   -0.22    4.32
 -14   5   2    0.18    3.38
 -14  -5   2    4.14    4.70
  14  -5  -1  110.41   32.27
  14   5  -1   84.51   18.95
  14  -5  -1   72.79    8.80
 -14   5   1   78.90   10.70
 -14  -5   1   83.39    8.87
  14  -5   0    1.63    2.94
  14   5   0    2.13    3.79
  14  -5   0    3.04    3.10
 -14   5   0    1.64    2.73
 -14  -5   0    1.69    3.31
  14  -5   1   80.94    9.50
  14   5   1   82.68   12.37
  14  -5   1   71.31   13.87
 -14   5  -1   76.52   11.22
 -14  -5  -1   86.39    9.00
  14  -5   2    1.69    4.67
  14   5   2    2.85    3.17
  14  -5   2    0.87    3.50
 -14   5  -2    1.53    3.33
 -14  -5  -2   -0.30    4.48
  14  -5   3   58.06    9.72
  14   5   3   52.77   29.19
  14  -5   3   46.88    6.61
 -14   5  -3   51.30   10.89
  14  -5   4    5.32    7.68
  14   5   4    6.94    6.98
 -14   5  -4    2.39    2.30
  14  -5   5  107.16   11.69
  14   5   5  115.57   11.71
 -14   5  -5   91.10   13.41
  14   5   6   12.65   12.47
 -14   5  -6   10.26    3.72
  14  -5   7   86.44   12.28
  14   5   7   87.32   37.39
  14  -5   8   11.43   12.40
  14   5   8    7.84    9.53
  14  -5   9    1.70    5.39
  14   5   9    3.44    7.67
  14  -5  10    2.63    6.42
  14   5  10    3.07    9.17
  14  -5  11   42.27   18.68
  14   5  11   37.46   19.97
  14  -6 -10   18.78   26.20
 -14   6  10   27.60   14.43
 -14  -6  10   34.45   19.95
  14  -6  -9   50.60   13.58
 -14   6   9   50.14   15.79
 -14  -6   9   66.94    9.19
  14  -6  -8   16.44   27.33
 -14   6   8   31.45   12.71
 -14  -6   8   28.83   20.16
  14   6  -7   22.94    7.03
  14  -6  -7   26.81   16.40
 -14   6   7   26.97   11.10
 -14  -6   7   28.51   15.80
  14  -6  -6    1.16    3.82
  14   6  -6    1.60    3.27
  14  -6  -6    3.11    4.14
 -14   6   6    2.43    1.66
 -14  -6   6   -1.51    3.72
  14  -6  -5   41.83    9.73
  14   6  -5   45.21    7.41
  14  -6  -5   41.71   32.88
 -14   6   5   39.93   10.35
 -14  -6   5   43.60   18.46
  14  -6  -4   40.02   16.93
  14   6  -4   32.69   27.42
  14  -6  -4   40.70   10.04
 -14   6   4   44.74   12.34
 -14  -6   4   59.09   28.82
  14  -6  -3   78.59    8.52
  14   6  -3   86.88   10.45
  14  -6  -3   78.80    9.35
 -14   6   3   73.50   17.94
 -14  -6   3   82.10   11.39
  14  -6  -2   49.51   21.69
  14   6  -2   41.84   17.90
  14  -6  -2   49.97    7.98
 -14   6   2   38.74   11.57
 -14  -6   2   35.78   10.34
  14  -6  -1   16.29   11.06
  14   6  -1   12.70   13.44
  14  -6  -1    6.98   10.23
 -14   6   1   11.34    7.10
 -14  -6   1   10.82    8.00
  14  -6   0    2.60    4.31
  14   6   0    1.96    2.57
  14  -6   0    1.08    3.54
 -14   6   0    0.84    2.05
 -14  -6   0    2.61    2.76
  14  -6   1   79.71   49.45
  14   6   1    9.10    6.43
  14  -6   1    8.75    6.59
 -14   6  -1    9.31    4.85
 -14  -6  -1   17.80   14.75
  14  -6   2   85.84   15.27
  14   6   2   42.97   26.96
  14  -6   2   40.50    6.03
 -14   6  -2   40.63   11.15
 -14  -6  -2   48.50   16.61
  14  -6   3  137.81   19.01
  14   6   3   84.38   12.92
 -14   6  -3   69.06    6.82
  14  -6   4   47.27   37.11
  14   6   4   47.53    9.77
  14  -6   5   44.11   10.59
  14   6   5   40.15   28.40
  14  -6   6    2.66    3.78
  14   6   6    0.91    3.24
  14  -6   7   21.25   28.07
  14   6   7   28.78   18.00
  14  -6   8   29.19   29.74
  14   6   8   27.60   32.37
  14  -6   9   84.96   14.57
  14   6   9   64.99   11.30
  14  -6  10   32.04   19.21
  14   6  10   30.60   25.11
  14  -7  -9    2.25    6.05
 -14   7   9    1.92    1.55
 -14  -7   9    0.90    2.64
  14  -7  -8   30.63   32.18
 -14   7   8   37.76    8.94
 -14  -7   8   47.57   22.81
  14  -7  -7   73.09   10.75
 -14   7   7   73.92   16.47
 -14  -7   7   94.42    9.37
  14  -7  -6   28.70    8.46
  14   7  -6   35.94   10.06
  14  -7  -6   26.11   19.68
 -14   7   6   27.62   13.69
 -14  -7   6   36.47    8.52
  14  -7  -5  126.61   13.94
  14   7  -5  141.23   23.80
  14  -7  -5  124.86   16.37
 -14   7   5  130.84   13.42
 -14  -7   5  143.83   17.07
  14  -7  -4   30.32   13.97
  14   7  -4   39.67   14.97
  14  -7  -4   23.39   19.75
 -14   7   4   43.91   11.05
 -14  -7   4   41.81   17.65
  14  -7  -3    0.80    4.72
  14   7  -3    0.87    2.45
  14  -7  -3    1.09    2.58
 -14   7   3    1.40    3.15
 -14  -7   3   -2.33    3.93
  14  -7  -2   11.15    5.66
  14   7  -2    7.92    5.16
  14  -7  -2    9.54    6.48
 -14  -7   2    7.94    5.25
  14  -7  -1   55.15   10.00
  14   7  -1   66.64   10.07
  14  -7  -1   59.37   11.42
 -14  -7   1   57.82   20.29
  14  -7   0   15.94    8.93
  14   7   0    9.74   10.44
  14  -7   0    9.96   12.41
 -14  -7   0   13.61    9.79
  14  -7   1   63.09    8.39
  14   7   1   67.97   15.89
  14  -7   1   62.16    7.36
 -14  -7  -1   69.78   15.98
  14  -7   2    9.72    4.88
  14   7   2    4.68    5.77
  14  -7   2    6.26    4.05
  14  -7   3    4.29    6.22
  14   7   3    1.55    4.90
  14  -7   4   57.08   36.39
  14   7   4   30.72   27.97
  14  -7   5  148.91   43.38
  14   7   5  137.94   21.81
  14  -7   6   38.15   17.16
  14   7   6   22.58   27.90
  14  -7   7  114.31   37.05
  14   7   7   81.86   11.52
  14  -7   8   53.54   28.07
  14   7   8   41.23    9.12
  14  -7   9    6.71    8.75
  14   7   9    3.82    4.45
  14  -8  -8   40.40   26.60
 -14  -8   8   53.95    8.07
  14  -8  -7   14.32    6.91
 -14  -8   7   10.26    6.69
  14  -8  -6    9.24    7.24
  14   8  -6    4.79    8.24
  14  -8  -6   12.42    9.74
 -14  -8   6   15.20    6.42
  14  -8  -5    7.66    5.78
  14   8  -5    6.45    7.25
  14  -8  -5    9.04    7.48
 -14  -8   5   12.25    7.75
  14  -8  -4   73.02   23.43
  14   8  -4   71.30   10.36
  14  -8  -4   72.67   11.24
 -14  -8   4   67.30   11.55
  14  -8  -3   25.52   17.40
  14   8  -3   22.02   13.87
  14  -8  -3   25.32   13.86
 -14  -8   3   31.35   12.70
  14  -8  -2   27.54    6.73
  14   8  -2   18.97   20.79
  14  -8  -2   16.28   15.69
 -14  -8   2   23.74   17.59
  14  -8  -1   22.67   11.44
  14   8  -1   14.77   16.26
  14  -8  -1   18.44   14.87
 -14  -8   1   24.39   14.62
  14  -8   0  110.44   13.37
  14   8   0  114.01   13.98
  14  -8   0  112.49   14.24
 -14  -8   0  121.30   13.27
  14  -8   1   30.26   14.44
  14   8   1   36.92   10.51
  14  -8   1   18.15   21.00
 -14  -8  -1   24.17   11.75
  14  -8   2   39.03    9.75
  14   8   2   17.24   16.74
  14  -8   2   17.35   17.38
 -14  -8  -2   28.68   13.35
  14  -8   3   24.76   14.81
  14   8   3   28.23   21.43
  14  -8   4   88.21   37.26
  14   8   4   84.08   14.49
  14  -8   5   12.30    9.38
  14   8   5    3.39    4.20
  14  -8   6   13.64   16.33
  14   8   6   15.76   14.66
  14  -8   7   12.93    7.17
  14   8   7    9.31   10.81
  14  -8   8   37.86   29.57
  14   8   8   45.56    8.48
  14  -9  -7   17.87   30.44
 -14  -9   7   31.88   11.65
  14  -9  -6   11.70   12.15
  14   9  -6   14.42   18.62
  14  -9  -6   15.45    8.42
 -14  -9   6   19.31   13.56
  14  -9  -5   29.25   19.13
  14   9  -5   29.63   19.10
  14  -9  -5   23.76   29.07
 -14  -9   5   29.88   14.04
  14  -9  -4   13.27    7.47
  14   9  -4    9.18    6.17
  14  -9  -4   14.04    9.15
 -14  -9   4   14.83    9.19
  14  -9  -3    1.73    2.81
  14   9  -3    0.47    4.05
  14  -9  -3    1.33    2.33
 -14  -9   3    3.65    4.25
  14  -9  -2   41.02   15.18
  14   9  -2   33.01   21.20
  14  -9  -2   40.75   11.26
 -14  -9   2   50.54   25.06
  14  -9  -1   11.51    9.36
  14   9  -1   10.51    7.23
  14  -9  -1   12.18    9.63
 -14  -9   1   16.62    8.54
  14  -9   0   50.36   19.60
  14   9   0   56.07   15.63
  14  -9   0   46.22    8.59
 -14  -9   0   47.91   25.12
  14  -9   1   17.59    9.36
  14   9   1   12.72   13.23
  14  -9   1   12.23    8.16
 -14  -9  -1   13.50    8.89
  14  -9   2   49.23   17.73
  14   9   2   39.39   15.51
 -14  -9  -2   36.87   26.55
  14  -9   3   -1.33    4.12
  14   9   3    1.94    4.08
  14  -9   4    9.95   12.15
  14   9   4   11.43   11.09
  14  -9   5   32.01   17.85
  14   9   5   23.31   19.29
  14  -9   6   15.45   10.73
  14   9   6   13.76   15.27
  14  -9   7   23.42   18.12
  14   9   7   25.41   26.35
  14 -10  -5   12.83    9.24
  14  10  -5    7.73   10.55
  14 -10  -5    8.42   13.85
 -14 -10   5   10.45   13.93
  14 -10  -4   10.07   10.23
  14  10  -4    5.06   11.80
  14 -10  -4    9.17    9.71
 -14 -10   4   11.94    6.47
  14 -10  -3   30.49   24.90
  14  10  -3   32.78   11.82
  14 -10  -3   25.82   17.81
 -14 -10   3   36.06   14.73
  14 -10  -2   40.50   19.99
  14  10  -2   48.68   13.54
  14 -10  -2   31.58   30.52
 -14 -10   2   53.33    8.49
  14 -10  -1   35.45   20.57
  14  10  -1   53.33   18.67
 -14 -10   1   60.48   12.26
  14 -10   0   17.61   12.64
  14  10   0   13.19   13.49
  14 -10   0    9.94    8.02
 -14 -10   0   16.65   12.28
  14 -10   1   49.17   20.89
  14  10   1   41.72   26.63
  14 -10   1   47.06   12.75
 -14 -10  -1   39.65   20.69
  14 -10   2   48.58   27.29
  14  10   2   45.74   21.13
 -14 -10  -2   50.21    9.24
  14 -10   3   34.26   26.14
  14  10   3   30.21   16.81
  14 -10   4   11.63    6.82
  14  10   4    8.27   10.20
  14 -10   5   17.62   10.56
  14  10   5   12.83   15.25
  14 -11  -2    9.79   10.91
  14  11  -2    5.83   17.86
  14 -11  -2    9.55    8.41
 -14 -11   2   15.93    6.69
  14 -11  -1    4.88    5.02
  14  11  -1    5.72    7.60
  14 -11  -1    2.28    3.91
 -14 -11   1    4.23    4.22
  14 -11   0   11.95    6.03
  14  11   0   12.51   17.98
  14 -11   0    6.17   13.78
 -14 -11   0   19.33   12.08
  14 -11   1    8.29    4.61
  14  11   1    3.43    4.59
  14 -11   1    2.27    3.16
 -14 -11  -1    2.92    4.04
  14 -11   2   14.21   14.63
  14  11   2   11.34   12.98
 -14 -11  -2    7.28    9.48
  15   0 -10    6.23    6.76
 -15   0  10    7.04    5.79
  15   0  -9   58.61   12.27
 -15   0   9   58.80   20.84
  15   0  -8   17.35   20.08
 -15   0   8   19.23   16.72
  15   0  -7   17.26   11.07
 -15   0   7   20.66   10.60
  15   0  -6    1.89    5.57
  15   0  -6    5.07    5.57
 -15   0   6    5.56    4.57
  15   0  -5   38.30    9.65
  15   0  -5   35.38   28.39
 -15   0   5   34.73   18.32
  15   0  -4    7.85    5.69
  15   0  -4    9.62    5.89
 -15   0   4    3.52    4.76
  15   0  -3  190.44   18.67
  15   0  -3  175.49   16.94
 -15   0   3  178.91   30.28
  15   0  -2   43.74    9.69
  15   0  -2   40.57    6.94
 -15   0   2   45.21   17.88
  15   0  -1  125.49   15.86
  15   0  -1  113.63   11.02
 -15   0   1  129.17   12.92
  15   0   0    7.55    8.08
  15   0   0    7.69    8.06
 -15   0   0    6.53    7.51
  15   0   1  126.85   14.53
  15   0   1  102.68   20.25
 -15   0  -1  132.02   13.25
  15   0   2   41.11   14.11
  15   0   2   35.63    9.38
 -15   0  -2   45.82   16.03
  15   0   3  175.36   18.18
  15   0   3  162.43   16.52
 -15   0  -3  174.98   16.21
  15   0   4   10.15    9.58
 -15   0  -4    5.34    4.15
  15   0   5   36.62   14.51
  15   0   6    4.66    6.09
  15   0   7   24.04   15.73
  15   0   8   15.92   13.34
  15   0   9   73.31   14.54
  15   0  10   13.17    9.53
  15  -1 -10   69.07   15.03
  15   1 -10   47.18   23.62
 -15   1  10   58.63   16.25
 -15  -1  10   59.73   11.42
  15  -1  -9    4.09    5.74
  15   1  -9   10.71    9.81
 -15   1   9    8.39    4.30
 -15  -1   9    8.73    4.05
  15  -1  -8   22.13   23.60
  15   1  -8   28.24   22.89
 -15   1   8   31.42   14.46
 -15  -1   8   17.86   18.65
  15  -1  -7   28.47   25.45
  15   1  -7   29.97   31.62
 -15   1   7   45.20   14.67
 -15  -1   7   28.95   17.83
  15  -1  -6    7.52    8.97
  15   1  -6    4.44    7.42
  15  -1  -6    4.87    5.59
  15   1  -6   10.40    5.62
 -15   1   6    9.84    4.17
 -15  -1   6   10.29    7.04
  15  -1  -5   43.13   11.87
  15   1  -5   47.52   11.09
  15  -1  -5   48.82   21.97
  15   1  -5   54.23   11.48
 -15   1   5   55.77    7.04
 -15  -1   5   49.27   13.39
  15  -1  -4   25.66   20.30
  15   1  -4   14.96   17.06
  15  -1  -4   25.06   21.28
 -15   1   4   28.99    9.77
 -15  -1   4   34.13   20.08
  15  -1  -3    9.45   10.53
  15   1  -3    7.05    7.07
  15  -1  -3    9.49    6.83
 -15   1   3   13.76   10.82
 -15  -1   3    7.60    5.61
  15  -1  -2   85.20    8.53
  15   1  -2  108.22    9.47
  15  -1  -2   88.00   12.12
 -15   1   2  104.22    8.75
 -15  -1   2  100.89    8.50
  15  -1  -1   29.16   23.26
  15   1  -1   26.73   18.90
  15  -1  -1   27.91   16.04
 -15   1   1   29.76   10.56
 -15  -1   1   32.13   13.68
  15  -1   0   10.48   12.69
  15   1   0   18.56   14.19
  15  -1   0   11.51   14.25
 -15   1   0   14.71    6.09
 -15  -1   0   13.58    5.31
  15  -1   1   32.80   19.55
  15   1   1   18.35   19.37
  15  -1   1   24.65   21.30
  15   1   1   23.49   18.59
 -15   1  -1   28.39   11.92
 -15  -1  -1   27.09   11.66
  15  -1   2   88.92   17.45
  15   1   2   94.40   19.91
  15  -1   2   97.32    8.91
  15   1   2   83.89   17.02
 -15   1  -2  100.67   27.05
 -15  -1  -2   97.72    8.52
  15  -1   3    9.77    8.00
  15   1   3   11.54    7.96
  15  -1   3    6.51    8.04
  15   1   3    6.66    6.84
 -15   1  -3    4.40    5.91
 -15  -1  -3    8.15    6.45
  15  -1   4   30.79   18.10
  15   1   4   26.79   31.59
 -15   1  -4   25.14   10.88
  15  -1   5   51.00   14.03
  15   1   5   42.62   19.93
  15  -1   6    9.11   11.24
  15   1   6    3.60    5.81
  15  -1   7   28.51   25.71
  15   1   7   27.33   21.38
  15  -1   8   33.72   12.54
  15   1   8   28.86    9.17
  15  -1   9    6.67    8.35
  15   1   9    8.76   11.57
  15  -1  10   65.29   12.85
  15   1  10   69.83   35.57
  15  -2 -10   10.68   11.73
  15   2 -10    5.17    5.20
 -15   2  10   12.28   10.48
 -15  -2  10    9.85    6.43
  15  -2  -9   62.89   11.39
  15   2  -9   76.12   12.75
 -15   2   9   66.48   16.22
 -15  -2   9   61.17   20.55
  15  -2  -8    2.85    8.05
 -15   2   8    4.96    5.67
 -15  -2   8    6.34    5.76
  15  -2  -7   67.19   12.19
 -15   2   7   91.17   27.28
 -15  -2   7   75.52   21.19
  15  -2  -6   72.40    9.82
  15   2  -6   69.83    8.72
  15  -2  -6   71.69   15.02
 -15   2   6   82.74   17.14
 -15  -2   6   66.68   25.12
  15  -2  -5   57.87   11.95
  15   2  -5   50.75    7.98
  15  -2  -5   68.26   10.08
 -15   2   5   48.31   16.34
 -15  -2   5   58.72   17.16
  15  -2  -4   11.46    6.18
  15   2  -4    3.40    4.91
  15  -2  -4    4.57    5.51
 -15   2   4   10.54    5.15
 -15  -2   4    6.34    5.02
  15  -2  -3   27.28   12.54
  15   2  -3   23.35   20.67
  15  -2  -3   27.67   14.57
 -15   2   3   31.15   11.03
 -15  -2   3   31.69   15.65
  15  -2  -2   27.41   11.03
  15   2  -2   21.72   18.52
  15  -2  -2   23.58   18.96
 -15   2   2   25.97   16.18
 -15  -2   2   29.68   12.80
  15  -2  -1   21.89   18.72
  15   2  -1   22.81   11.04
  15  -2  -1   21.99   19.44
 -15   2   1   23.74   10.73
 -15  -2   1   23.38   15.54
  15  -2   0    8.68    8.24
  15   2   0    3.86    3.96
  15  -2   0    7.86    8.68
 -15   2   0    5.28    3.51
 -15  -2   0    2.58    4.79
  15  -2   1   20.58   13.83
  15   2   1   26.33   14.43
  15  -2   1   20.09   16.79
 -15   2  -1   26.97   13.68
 -15  -2  -1   29.92   12.77
  15  -2   2   27.61    7.46
  15   2   2   25.25   22.20
  15  -2   2   10.97   15.11
 -15   2  -2   25.19   15.34
 -15  -2  -2   19.10   12.31
  15  -2   3   24.32   17.84
  15   2   3   32.33   19.09
 -15   2  -3   28.91   11.91
 -15  -2  -3   26.78   18.09
  15  -2   4    4.14    6.64
  15   2   4    5.27    5.21
 -15   2  -4    5.44    3.65
  15  -2   5   37.67   31.48
  15   2   5   60.96   11.24
 -15   2  -5   65.08    6.72
  15  -2   6   81.75   11.98
  15   2   6   72.90   15.59
  15  -2   7  102.52   14.51
  15   2   7   70.20   12.60
  15  -2   8    3.75    3.88
  15   2   8    3.65    7.89
  15  -2   9   75.88   12.03
  15   2   9   53.52   21.51
  15  -2  10    9.06   11.49
  15   2  10    4.77    9.52
  15  -3 -10    4.07    5.37
 -15   3  10    7.91    6.23
 -15  -3  10    4.94    5.91
  15  -3  -9    9.74   14.88
 -15   3   9   11.02    8.39
 -15  -3   9   12.18    8.11
  15  -3  -8  114.57   13.12
 -15   3   8  122.04   24.16
 -15  -3   8   97.90   18.26
  15  -3  -7    8.52   10.05
 -15   3   7   12.72    6.13
 -15  -3   7    8.85    4.67
  15  -3  -6    8.61   11.10
  15   3  -6    1.54    4.06
  15  -3  -6    3.10    7.52
 -15   3   6    1.65    1.51
 -15  -3   6    1.97    3.06
  15  -3  -5    7.24    9.45
  15   3  -5   12.33   14.71
  15  -3  -5   10.29   13.95
 -15   3   5   16.63    7.73
 -15  -3   5   14.19   14.34
  15  -3  -4   74.56   10.92
  15   3  -4   56.68   16.88
  15  -3  -4   61.62   21.52
 -15   3   4   61.82    6.59
 -15  -3   4   73.21   10.77
  15  -3  -3   49.95    7.77
  15   3  -3   58.65   11.67
  15  -3  -3   41.71   20.78
 -15   3   3   62.88   13.72
 -15  -3   3   52.33   22.36
  15  -3  -2    7.15    7.74
  15   3  -2    7.34    5.91
  15  -3  -2    5.40    6.78
 -15   3   2    9.63    4.90
 -15  -3   2   13.08    7.09
  15  -3  -1   68.33    8.93
  15   3  -1   62.69    8.62
  15  -3  -1   57.83   10.17
 -15   3   1   67.63    6.80
 -15  -3   1   68.30   13.39
  15  -3   0   11.94   11.88
  15   3   0    6.99    7.76
  15  -3   0    5.52    5.91
 -15   3   0    7.64    8.97
 -15  -3   0    9.56    6.09
  15  -3   1   55.43    8.38
  15   3   1   61.24   23.94
  15  -3   1   57.22    7.28
 -15   3  -1   62.61   14.99
 -15  -3  -1   61.18   17.75
  15   3   2    8.02    6.15
  15  -3   2    3.87    4.98
 -15   3  -2   11.33    4.06
 -15  -3  -2    9.89    7.09
  15  -3   3   52.88   11.91
  15   3   3   51.47   23.68
 -15   3  -3   50.42   11.65
 -15  -3  -3   54.62    7.41
  15  -3   4   62.64   18.35
  15   3   4   66.78   11.26
 -15   3  -4   72.88    8.52
  15  -3   5   10.51   11.21
 -15   3  -5   15.28    8.22
  15  -3   6    2.58    7.10
  15   3   6    3.93    4.60
  15  -3   7   13.79   11.84
  15   3   7   12.48    8.73
  15  -3   8  129.77   20.51
  15   3   8  126.05   14.86
  15  -3   9   12.41    7.52
  15   3   9    6.73   14.71
  15  -3  10   11.03    9.61
  15   3  10    6.69    6.70
  15  -4  -9   13.23    9.62
 -15   4   9   11.74   12.61
 -15  -4   9   12.39    7.56
  15  -4  -8   21.02   19.72
 -15   4   8   29.93   14.81
 -15  -4   8   22.63   13.95
  15  -4  -7    1.83    3.42
 -15   4   7    4.53    3.93
 -15  -4   7    3.01    3.37
  15  -4  -6    0.92    2.06
  15   4  -6    3.43    3.42
  15  -4  -6    2.40    6.14
 -15   4   6    1.78    2.40
 -15  -4   6    2.82    5.11
  15  -4  -5   11.64   13.76
  15   4  -5    6.44    8.07
  15  -4  -5    4.74    5.44
 -15   4   5    7.66    4.25
 -15  -4   5   10.44    5.58
  15  -4  -4  161.08   38.82
  15   4  -4   84.78    9.99
  15  -4  -4   87.25   15.14
 -15   4   4   82.80   19.95
 -15  -4   4   94.03   11.43
  15  -4  -3   28.00   12.76
  15   4  -3   22.62   22.39
  15  -4  -3   20.45   17.31
 -15   4   3   28.25   16.88
 -15  -4   3   33.43   20.01
  15  -4  -2    4.43    3.74
  15   4  -2    5.00    6.39
  15  -4  -2    5.03    8.37
 -15   4   2    2.65    2.20
 -15  -4   2    4.57    5.47
  15  -4  -1   17.42   10.48
  15   4  -1   18.57   14.48
  15  -4  -1   15.61   16.27
 -15   4   1   17.03    8.04
 -15  -4   1   21.91   12.27
  15  -4   0  136.73   15.23
  15   4   0  145.91   16.14
  15  -4   0  124.65   13.90
 -15   4   0  155.69   28.82
 -15  -4   0  133.81   14.92
  15  -4   1   13.52   11.39
  15   4   1   16.13   13.05
  15  -4   1   13.96    9.58
 -15   4  -1   21.31    8.27
 -15  -4  -1   14.75   11.07
  15  -4   2    2.20    5.39
  15   4   2    4.67    3.80
 -15   4  -2    5.22    2.84
 -15  -4  -2    3.51    4.64
  15  -4   3   26.62    9.52
  15   4   3   31.69    8.79
 -15   4  -3   21.67   11.95
 -15  -4  -3   20.81   19.91
  15  -4   4   72.73    9.59
  15   4   4  101.88   14.08
 -15   4  -4   76.84   19.62
  15  -4   5    8.12    6.88
 -15   4  -5   11.31    8.19
  15  -4   6    5.11    5.03
  15   4   6    3.82    5.59
 -15   4  -6    1.09    1.70
  15  -4   7    5.27    5.25
  15   4   7    1.84    5.07
  15  -4   8   21.27    7.56
  15   4   8   26.52   30.72
  15  -4   9   17.07   11.61
  15   4   9    8.25   18.41
  15  -5  -9   31.86   27.24
 -15   5   9   41.33   13.99
 -15  -5   9   44.00   18.07
  15  -5  -8   19.40   15.26
 -15   5   8   26.71   11.53
 -15  -5   8   25.17   13.78
  15  -5  -7   22.31   14.89
 -15   5   7   21.50   13.99
 -15  -5   7   23.90   14.74
  15  -5  -6    5.19    5.34
  15   5  -6    6.92   10.42
  15  -5  -6    8.37    5.50
 -15   5   6    4.86    6.33
 -15  -5   6    3.92    6.42
  15  -5  -5   19.05   10.86
  15   5  -5   11.83    9.52
  15  -5  -5   15.40   10.77
 -15   5   5   17.63   12.62
 -15  -5   5   13.58   11.77
  15  -5  -4   22.04   10.37
  15   5  -4   24.48   15.68
  15  -5  -4   27.66    7.68
 -15   5   4   24.03   10.07
 -15  -5   4   21.70   14.34
  15  -5  -3  137.86   32.05
  15   5  -3  132.82   14.85
  15  -5  -3  106.61   14.82
 -15   5   3  106.76   10.87
 -15  -5   3  134.12   17.31
  15  -5  -2  259.93  107.10
  15   5  -2   50.10   14.72
  15  -5  -2   41.72    9.81
 -15   5   2   49.59   11.02
 -15  -5   2   49.98   16.33
  15  -5  -1   22.00   21.46
  15   5  -1   19.30   10.43
  15  -5  -1   11.65   10.16
 -15   5   1   18.61    8.35
 -15  -5   1   20.98   10.35
  15  -5   0   -1.53    4.50
  15   5   0    2.79    4.00
  15  -5   0    3.00    4.08
 -15   5   0    2.61    3.08
 -15  -5   0   -0.24    3.82
  15  -5   1   23.81   19.47
  15   5   1   15.35    9.45
  15  -5   1   18.18   12.42
 -15   5  -1   16.03    7.31
 -15  -5  -1   16.93    9.91
  15  -5   2   48.43    9.01
  15   5   2   51.39   14.79
  15  -5   2   43.00    6.84
 -15   5  -2   48.91   19.50
 -15  -5  -2   64.00   10.47
  15  -5   3  109.75   15.38
  15   5   3  124.92   15.17
 -15   5  -3  109.25   12.37
 -15  -5  -3  132.16   14.46
  15  -5   4   17.05   20.74
  15   5   4   20.18   18.71
 -15   5  -4   22.00   12.72
  15  -5   5   16.04   13.44
  15   5   5   12.26    9.63
 -15   5  -5   10.86    8.50
  15  -5   6    8.89    6.73
  15   5   6    6.00   10.87
  15  -5   7   16.64   15.99
  15   5   7   19.19   23.56
  15  -5   8   15.83   21.35
  15   5   8   20.96    8.45
  15  -5   9   34.56   25.29
  15   5   9   41.73    9.44
  15  -6  -8    8.56    9.42
 -15   6   8    5.21    2.33
  15  -6  -7    5.68   11.37
 -15  -6   7    9.47    6.51
  15  -6  -6  239.60   16.76
  15   6  -6  259.51   17.21
  15  -6  -6  239.09   15.84
 -15   6   6  280.83   17.50
 -15  -6   6  257.16   26.94
  15  -6  -5    2.80    2.44
  15   6  -5    2.35    2.49
  15  -6  -5    4.63    5.22
 -15   6   5    1.02    1.53
 -15  -6   5    4.19    4.82
  15  -6  -4   12.71   10.30
  15   6  -4    9.41   12.50
  15  -6  -4   12.92    9.64
 -15   6   4   12.34    4.16
 -15  -6   4   14.19    7.56
  15  -6  -3    3.14    5.83
  15   6  -3    1.40    2.99
  15  -6  -3   -1.95    4.53
 -15   6   3    0.80    1.89
 -15  -6   3    2.73    4.88
  15  -6  -2   22.61   20.54
  15   6  -2   23.96    6.85
  15  -6  -2   20.25   16.68
 -15   6   2   25.36    7.85
 -15  -6   2   33.54   20.00
  15  -6  -1    3.21    3.56
  15   6  -1    2.77    5.36
  15  -6  -1    1.87    5.90
 -15  -6   1    5.36    5.43
  15  -6   0    8.85    4.88
  15   6   0    6.88    7.43
  15  -6   0    4.11    6.30
 -15   6   0    5.23    2.89
 -15  -6   0   10.00    5.27
  15  -6   1    9.57    9.65
  15   6   1    4.24    4.89
  15  -6   1    5.41    5.17
 -15  -6  -1    4.01    3.21
  15  -6   2  134.62  106.68
  15   6   2   25.11   21.34
 -15  -6  -2   24.71   21.96
  15  -6   3    3.84    7.80
  15   6   3    2.50    5.31
 -15  -6  -3    1.28    1.62
  15  -6   4   14.37   17.50
  15   6   4   16.68   17.56
  15  -6   5    2.82    5.50
  15   6   5    0.90    5.07
  15  -6   6  342.92   22.79
  15   6   6  260.89   28.43
  15  -6   7   12.92   11.76
  15   6   7    8.92    7.63
  15  -6   8    6.08   10.71
  15   6   8    9.51    8.81
  15  -7  -7   52.04   22.33
 -15  -7   7   66.21    8.53
  15  -7  -6   -0.21    3.41
  15   7  -6    1.13    2.71
  15  -7  -6    6.29    6.71
 -15  -7   6    1.09    2.55
  15  -7  -5   45.66   24.34
  15   7  -5   68.82   10.92
  15  -7  -5   50.55   22.43
 -15  -7   5   66.19   22.65
  15  -7  -4    9.37    9.83
  15   7  -4    6.54    9.72
  15  -7  -4    8.45    5.51
 -15  -7   4   10.99    9.13
  15  -7  -3   67.48   24.19
  15   7  -3   66.65   12.95
  15  -7  -3   71.31   21.02
 -15  -7   3   81.29   11.48
  15  -7  -2   64.91   13.44
  15   7  -2   84.37   19.55
  15  -7  -2   65.67   13.95
 -15  -7   2   78.68   26.99
  15  -7  -1    2.87    4.70
  15   7  -1    3.96    4.73
  15  -7  -1    5.05    5.14
 -15  -7   1    2.49    4.47
  15  -7   0   12.58    8.94
  15   7   0   10.86   10.51
  15  -7   0    5.91   10.09
 -15  -7   0   15.99   12.31
  15  -7   1    1.39    4.14
  15   7   1    1.60    4.14
  15  -7   1    2.09    3.51
 -15  -7  -1    1.09    4.75
  15  -7   2   75.13   15.55
  15   7   2   79.63   12.22
 -15  -7  -2   87.33   13.85
  15  -7   3   64.48   19.67
  15   7   3   65.42    9.40
 -15  -7  -3   62.72   12.33
  15  -7   4   10.48   11.37
  15   7   4    8.81    7.98
  15  -7   5   87.09   15.64
  15   7   5   64.97   31.77
  15  -7   6    4.03    5.60
  15   7   6    3.22    5.88
  15  -7   7   64.31   20.12
  15   7   7   53.02   36.17
  15  -8  -6    0.63    1.72
  15   8  -6    1.90    2.10
  15  -8  -6    2.98    3.03
 -15  -8   6    1.36    2.92
  15  -8  -5   13.21   15.41
  15   8  -5   16.19   10.76
  15  -8  -5   14.88   12.05
 -15  -8   5   22.32    8.98
  15  -8  -4   12.31    7.94
  15   8  -4   11.53   11.87
  15  -8  -4    7.73   10.77
 -15  -8   4   13.76    5.98
  15  -8  -3   19.97   12.84
  15   8  -3   17.32   18.89
  15  -8  -3   15.90   15.47
  15  -8  -2    7.10    5.67
  15   8  -2    7.46   12.41
  15  -8  -2    6.20    6.30
 -15  -8   2   10.90    9.68
  15  -8  -1   17.69   13.37
  15   8  -1   15.34   21.31
  15  -8  -1   11.52   17.73
 -15  -8   1   19.35   11.52
  15  -8   0  120.80   12.21
  15   8   0  112.19   11.23
  15  -8   0  114.18    9.80
 -15  -8   0  123.90   32.92
  15  -8   1   21.70   18.59
  15   8   1   16.70   16.94
  15  -8   1   14.25   13.58
 -15  -8  -1   20.18    9.27
  15  -8   2    4.00    3.97
  15   8   2    7.42    8.26
 -15  -8  -2    5.80    4.66
  15  -8   3   33.17   11.23
  15   8   3   24.36   24.72
 -15  -8  -3   24.75   12.66
  15  -8   4   15.24    6.48
  15   8   4    9.88   19.59
  15  -8   5   17.58   20.09
  15   8   5   15.45   18.00
  15  -8   6    2.41    4.86
  15   8   6    1.45    4.28
  15  -9  -3   14.37   13.03
  15   9  -3   18.78   17.13
  15  -9  -3   12.82   16.52
 -15  -9   3   15.06    8.91
  15  -9  -2    8.11    5.29
  15   9  -2    6.38    6.82
  15  -9  -2    6.69    3.30
 -15  -9   2    6.79    5.18
  15  -9  -1  103.65   15.38
  15   9  -1   90.72   16.31
  15  -9  -1   84.79   15.47
 -15  -9   1  108.95   13.23
  15  -9   0   -0.55    4.33
  15   9   0    1.00    4.75
  15  -9   0    2.81    4.38
 -15  -9   0    2.23    3.49
  15  -9   1  106.95   11.84
  15   9   1  105.23   12.13
 -15  -9  -1  107.60   11.94
  15  -9   2   14.85    7.86
  15   9   2   10.94   10.29
 -15  -9  -2    7.83    7.21
  15  -9   3   25.87   14.91
  15   9   3   13.35   14.26
 -15  -9  -3   23.64   11.56
  16   0  -8    7.51    5.88
 -16   0   8   16.35    8.19
  16   0  -7   80.13   13.02
 -16   0   7   96.37   11.03
  16   0  -6    4.65    5.59
 -16   0   6    7.06    5.97
  16   0  -5   16.47   16.53
  16   0  -5   28.13   18.57
 -16   0   5   28.01   17.28
  16   0  -4    1.89    3.26
  16   0  -4    1.18    3.57
 -16   0   4    2.33    1.91
  16   0  -3   36.83    6.49
  16   0  -3   28.23    7.31
 -16   0   3   44.27   19.39
  16   0  -2    4.49    4.77
  16   0  -2    6.49    5.07
 -16   0   2    5.93    5.61
  16   0  -1    2.57    2.43
  16   0  -1    2.89    3.64
 -16   0   1    3.49    3.04
  16   0   0   65.64   12.19
  16   0   0   64.70   14.06
 -16   0   0   67.21   22.17
  16   0   1    0.87    2.78
  16   0   1    1.69    2.39
 -16   0  -1    0.53    1.78
  16   0   2    5.73    4.84
  16   0   2    4.79    3.45
 -16   0  -2    5.79    6.31
  16   0   3   42.30   10.04
 -16   0  -3   31.69   14.32
  16   0   4    2.65    4.86
 -16   0  -4    2.05    3.01
  16   0   5   26.65   27.11
 -16   0  -5   27.57    8.53
  16   0   6    5.62    5.87
  16   0   7   81.45   15.53
  16   0   8    9.66   15.01
  16  -1  -8    4.65    8.69
  16   1  -8   11.78   11.96
 -16   1   8   13.83    7.92
 -16  -1   8    8.73    3.87
  16  -1  -7    6.80    8.38
  16   1  -7    2.73    6.47
 -16   1   7    1.01    3.77
 -16  -1   7    0.82    3.02
  16  -1  -6   56.64   28.08
  16   1  -6   67.30    9.86
 -16   1   6   64.71   28.26
 -16  -1   6   77.89   23.35
  16  -1  -5    3.47    4.15
  16   1  -5    2.63    4.24
  16  -1  -5    3.41    3.40
  16   1  -5    6.46    4.96
 -16   1   5    6.32    6.90
 -16  -1   5    3.93    3.27
  16  -1  -4   29.14    6.19
  16   1  -4   14.33   18.44
  16  -1  -4   31.92   19.21
  16   1  -4   15.75   21.73
 -16   1   4   25.17   11.35
 -16  -1   4   35.51   19.65
  16  -1  -3   27.93   28.36
  16   1  -3   44.21   12.75
  16  -1  -3   27.66   23.44
  16   1  -3   25.15   23.68
 -16   1   3   40.18   20.03
 -16  -1   3   35.95   13.04
  16  -1  -2   47.27   21.81
  16   1  -2   39.60    8.57
  16  -1  -2   42.72    7.42
  16   1  -2   34.53   23.51
 -16   1   2   43.09   17.18
 -16  -1   2   45.81   21.33
  16  -1  -1   42.79   12.79
  16   1  -1   36.61   11.95
  16  -1  -1   45.36    7.74
  16   1  -1   44.82   10.96
 -16   1   1   41.30   10.83
 -16  -1   1   45.35   24.83
  16  -1   0    2.64    3.90
  16   1   0    3.61    5.20
  16  -1   0    3.14    5.66
  16   1   0    5.88    4.63
 -16   1   0    4.20    3.96
 -16  -1   0    2.89    4.00
  16  -1   1   30.88   28.79
  16   1   1   51.48   10.54
  16  -1   1   18.82   22.30
  16   1   1   42.22   19.09
 -16   1  -1   40.65   19.58
 -16  -1  -1   44.33   18.52
  16  -1   2   33.64   27.80
  16   1   2   49.19   14.62
  16  -1   2   26.73   21.98
  16   1   2   30.33   23.37
 -16   1  -2   51.89   26.23
 -16  -1  -2   36.25    9.68
  16  -1   3   28.41   29.10
  16   1   3   46.30   10.13
 -16   1  -3   36.98   18.14
 -16  -1  -3   34.87   16.87
  16  -1   4   25.60   12.31
  16   1   4   36.30   24.26
 -16   1  -4   24.48   11.25
 -16  -1  -4   25.81    6.19
  16  -1   5    6.17    8.79
  16   1   5    5.19    5.27
 -16   1  -5    3.24    6.87
  16  -1   6   72.66   11.53
  16   1   6   74.97   12.87
  16  -1   7    2.86    4.77
  16   1   7    2.56    3.99
  16  -1   8   11.47    6.33
  16   1   8    7.44    8.49
  16  -2  -8    1.80    3.27
  16   2  -8    3.71    5.30
 -16   2   8    1.14    2.85
 -16  -2   8    1.10    1.94
  16  -2  -7   14.89   18.14
  16   2  -7   14.65   16.19
 -16   2   7   20.44   10.89
 -16  -2   7   21.17   10.60
  16  -2  -6    6.78    9.23
 -16   2   6    4.07    4.31
 -16  -2   6    3.11    3.95
  16  -2  -5    4.00    6.90
  16   2  -5    6.04    6.99
  16  -2  -5    4.54    6.66
 -16   2   5    5.54    6.63
 -16  -2   5    9.21    5.20
  16  -2  -4    8.06   15.34
  16   2  -4    9.51   12.72
  16  -2  -4   15.94   15.32
 -16   2   4   18.25    7.46
 -16  -2   4   20.13    9.82
  16  -2  -3   40.48    9.31
  16   2  -3   38.01   18.03
  16  -2  -3   34.53   25.68
 -16   2   3   43.13   21.48
 -16  -2   3   43.99   18.04
  16  -2  -2   47.76   13.15
  16   2  -2   58.31    9.66
  16  -2  -2   42.21   38.22
 -16   2   2   55.09   20.57
 -16  -2   2   56.95   24.31
  16  -2  -1   53.37   10.88
  16   2  -1   56.75   11.02
  16  -2  -1   57.76   11.22
 -16   2   1   55.73   12.74
 -16  -2   1   54.57   18.99
  16  -2   0    6.80    7.55
  16   2   0    5.00    4.15
  16  -2   0    3.52    3.98
 -16   2   0    2.60    2.88
 -16  -2   0    2.61    2.65
  16  -2   1   51.34   23.19
  16   2   1   54.25   10.92
  16  -2   1   44.89   11.27
 -16   2  -1   49.83   16.06
 -16  -2  -1   64.79   20.59
  16  -2   2   50.18   20.58
  16   2   2   54.25   23.94
 -16   2  -2   60.38   21.09
 -16  -2  -2   63.53   28.83
  16  -2   3   43.46    9.08
  16   2   3   46.03   21.58
 -16   2  -3   51.16    9.56
 -16  -2  -3   44.04   13.41
  16  -2   4   10.08   12.96
  16   2   4   12.23   16.43
 -16   2  -4   22.13    9.13
 -16  -2  -4   11.26   15.35
  16  -2   5   12.88    8.66
  16   2   5   13.84   11.04
 -16   2  -5    6.56    8.79
  16  -2   6    6.79    7.38
  16   2   6    2.86    4.20
 -16   2  -6    3.14    6.32
  16  -2   7   17.92   19.65
  16   2   7   17.11   17.37
  16  -2   8    1.14    6.81
  16   2   8    3.81    5.60
  16  -3  -7   15.05   24.43
 -16   3   7   41.15   19.69
 -16  -3   7   24.55   10.62
  16  -3  -6    2.87    4.98
 -16   3   6    7.92    4.94
 -16  -3   6    3.77    4.15
  16  -3  -5   39.31   22.29
  16   3  -5   33.30   15.96
  16  -3  -5   52.68   10.81
 -16   3   5   38.36    9.68
 -16  -3   5   49.82   23.00
  16  -3  -4   21.68   14.46
  16   3  -4   15.42   20.14
  16  -3  -4   22.41   15.21
 -16   3   4   21.80   10.45
 -16  -3   4   21.05   16.98
  16  -3  -3    8.70   18.20
  16   3  -3   13.08   12.28
  16  -3  -3   10.79   11.76
 -16   3   3   13.69   11.74
 -16  -3   3   18.21    8.25
  16  -3  -2   11.65   12.66
  16   3  -2   11.02   11.40
  16  -3  -2   12.60    8.96
 -16   3   2   28.74    5.19
 -16  -3   2   18.44    6.40
  16  -3  -1   22.80   10.76
  16   3  -1   20.27   16.04
  16  -3  -1   18.03   13.43
 -16   3   1   20.70    7.74
 -16  -3   1   20.37   11.40
  16  -3   0   81.63   12.37
  16   3   0   91.75   16.47
  16  -3   0   81.80   11.63
 -16   3   0   84.68   27.65
 -16  -3   0   87.82   11.02
  16  -3   1   16.36   14.45
  16   3   1   13.71   14.35
  16  -3   1   12.10   17.19
 -16   3  -1   19.71   13.52
 -16  -3  -1   16.02   11.38
  16  -3   2   12.19   14.87
  16   3   2   14.47   18.35
 -16   3  -2   14.27    5.87
 -16  -3  -2   21.11    7.17
  16  -3   3   15.20   12.77
  16   3   3   17.31    9.25
 -16   3  -3   14.42    5.50
 -16  -3  -3   15.05   13.75
  16  -3   4   17.10   18.23
  16   3   4   28.33    7.77
 -16   3  -4   24.63   12.55
 -16  -3  -4   19.95    8.21
  16  -3   5   41.53   12.58
  16   3   5   50.48   11.56
 -16   3  -5   40.34    9.69
  16  -3   6    0.81    4.87
  16   3   6    9.05    8.00
 -16   3  -6    2.18    5.42
  16  -3   7   27.03   12.04
  16   3   7   17.82   22.40
  16  -4  -7    7.93    7.74
 -16   4   7    9.62    4.92
 -16  -4   7    9.04    9.66
  16  -4  -6    2.27    5.02
 -16   4   6    5.61    4.09
 -16  -4   6    2.61    3.91
  16  -4  -5    6.83    3.57
  16   4  -5    5.69   10.37
  16  -4  -5    7.24    5.70
 -16   4   5    7.67    5.85
 -16  -4   5    9.34    4.23
  16   4  -4   95.19    9.65
  16  -4  -4   87.46   14.53
 -16   4   4   87.25    7.80
 -16  -4   4   91.08   32.99
  16  -4  -3   41.55    8.65
  16   4  -3   24.80   19.51
  16  -4  -3   34.48    7.71
 -16   4   3   26.95   16.04
 -16  -4   3   37.48   16.96
  16  -4  -2    6.77    9.96
  16   4  -2    5.16    8.53
  16  -4  -2   11.42    6.81
 -16   4   2    4.22    2.95
 -16  -4   2    5.78    3.69
  16  -4  -1    0.54    4.38
  16   4  -1    5.68    4.85
  16  -4  -1    3.26    4.83
 -16   4   1    1.39    1.87
  16   4   0    8.12    8.47
  16  -4   0   12.12   13.53
 -16   4   0   12.05    6.28
 -16  -4   0   21.29    7.93
  16  -4   1    2.18    4.66
  16   4   1    4.38    7.21
  16  -4   1    2.07    4.42
 -16   4  -1    2.90    2.82
 -16  -4  -1    2.80    3.87
  16  -4   2    4.22    4.52
  16   4   2    4.13    6.19
 -16   4  -2    5.37    3.68
 -16  -4  -2    4.40    2.71
  16  -4   3   14.57   20.58
  16   4   3   37.22   10.67
 -16   4  -3   32.35   12.30
 -16  -4  -3   23.51   13.38
  16  -4   4   94.48   10.88
  16   4   4   85.26   37.01
 -16   4  -4   80.24   18.99
 -16  -4  -4   98.22    9.68
  16  -4   5   12.46    8.90
  16   4   5   11.74    8.51
 -16   4  -5    8.17    6.77
  16  -4   6    1.47    5.57
  16   4   6    4.01    5.85
 -16   4  -6    1.57    2.41
  16  -4   7    8.91   13.06
  16   4   7    9.94    9.83
 -16   4  -7    5.03    9.01
  16  -5  -6    9.16   22.73
 -16   5   6   22.43   14.39
 -16  -5   6   23.67   18.21
  16  -5  -5  105.43   12.92
  16   5  -5  108.91   14.60
  16  -5  -5  106.66   16.05
 -16   5   5  100.80   11.17
 -16  -5   5  121.46   11.23
  16  -5  -4   10.05    7.38
  16   5  -4    5.00    8.84
  16  -5  -4    7.20    9.66
 -16   5   4   10.21    5.40
 -16  -5   4   11.80    7.21
  16  -5  -3    3.69    3.15
  16   5  -3    2.38    4.34
  16  -5  -3    5.11    6.85
 -16   5   3    3.54    3.18
 -16  -5   3    3.37    4.87
  16  -5  -2    9.26    8.96
  16   5  -2    9.76   12.07
  16  -5  -2    8.59    9.72
 -16  -5   2    4.36    7.22
  16  -5  -1   73.56   17.99
  16   5  -1   34.82   14.97
  16  -5  -1   21.65   24.77
 -16   5   1   27.07   16.87
 -16  -5   1   38.08   16.73
  16  -5   0    4.76    7.35
  16   5   0    1.18    2.71
  16  -5   0    1.19    1.79
 -16   5   0    0.48    2.48
 -16  -5   0    2.83    2.66
  16  -5   1   33.57    7.15
  16   5   1   40.10   18.80
  16  -5   1   17.46   18.96
 -16   5  -1   31.67   14.88
 -16  -5  -1   37.22   17.45
  16  -5   2    4.41    3.75
  16   5   2   11.58    6.97
 -16   5  -2    5.08    5.02
 -16  -5  -2    4.55    5.38
  16  -5   3    2.27    2.83
  16   5   3    5.14    6.16
 -16  -5  -3    3.27    4.56
  16  -5   4   10.92    6.96
  16   5   4   13.19   10.62
 -16  -5  -4    9.05   10.15
  16  -5   5  103.54   22.22
  16   5   5  107.34   15.77
  16  -5   6   15.54   25.84
  16   5   6   24.35   16.90
  16  -6  -5   16.34   10.04
  16   6  -5   19.12    9.92
  16  -6  -5   17.71   17.56
 -16   6   5   19.51   11.59
 -16  -6   5   24.81   16.99
  16  -6  -4    6.92    4.24
  16   6  -4    5.30    6.19
  16  -6  -4    4.01    9.66
 -16   6   4    2.92    3.31
 -16  -6   4    7.33    4.44
  16  -6  -3   18.38   12.94
  16   6  -3   16.15   16.43
  16  -6  -3   17.99   15.24
 -16  -6   3   22.07   14.73
  16  -6  -2   92.29   11.93
  16   6  -2  109.98   13.53
  16  -6  -2   95.36   16.19
 -16  -6   2  111.65   10.08
  16  -6  -1    9.42    5.88
  16   6  -1   10.63    8.68
  16  -6  -1    6.12    5.55
 -16  -6   1    9.53    6.80
  16  -6   0    3.82    4.87
  16   6   0    0.82    4.39
  16  -6   0    0.23    3.30
 -16  -6   0    1.90    4.95
  16  -6   1   11.54    8.63
  16   6   1    6.87    6.86
 -16  -6  -1    7.71    5.98
  16  -6   2  229.19   24.59
  16   6   2   97.00   18.29
 -16  -6  -2  104.73   20.11
  16  -6   3   26.49   34.49
  16   6   3   10.88   19.65
 -16  -6  -3   20.99    6.82
  16  -6   4   15.28   13.18
  16   6   4    2.60    3.42
 -16  -6  -4    5.38    4.31
  16  -6   5   30.29   35.00
  16   6   5   19.66   26.51
  16  -7  -3   11.87    8.28
  16   7  -3    5.66    8.96
  16  -7  -3    9.32   12.51
 -16  -7   3   10.31   11.80
  16  -7  -2    3.12    3.17
  16   7  -2    1.54    3.96
  16  -7  -2    1.34    2.88
 -16  -7   2   -0.86    4.61
  16  -7  -1   35.48   17.16
  16   7  -1   47.66   12.78
  16  -7  -1   33.90   21.27
 -16  -7   1   36.49   17.01
  16  -7   0    7.12   12.94
  16   7   0    7.11    7.69
  16  -7   0    8.44    8.77
 -16  -7   0   14.78    5.77
  16  -7   1   38.96   24.93
  16   7   1   38.39   23.32
 -16  -7  -1   43.27   31.48
  16  -7   2    5.34    7.60
  16   7   2    3.60    6.87
 -16  -7  -2    2.71    3.56
  16  -7   3    4.98    8.26
  16   7   3   13.90   11.29
 -16  -7  -3    8.61    6.09
  17   0  -5   28.33   10.57
  17   0  -5   20.23   28.62
 -17   0   5   31.92   20.53
  17   0  -4   56.89    8.04
  17   0  -4   42.31   15.45
 -17   0   4   51.38   17.21
  17   0  -3   10.94   13.54
  17   0  -3   18.19   15.65
 -17   0   3   21.18   12.49
  17   0  -2   14.10   11.53
  17   0  -2    8.77   12.65
 -17   0   2   17.42    8.39
  17   0  -1    1.78    4.58
  17   0  -1    3.20    6.47
 -17   0   1    2.72    4.53
  17   0   0    2.20    5.60
  17   0   0    2.55    1.73
 -17   0   0    2.28    4.44
  17   0   1    5.14    8.30
  17   0   1    0.57    3.71
 -17   0  -1   -0.20    2.60
  17   0   2   11.45   16.29
 -17   0  -2   21.38   10.65
  17   0   3   17.56   25.04
 -17   0  -3   19.66    9.47
  17   0   4   49.17   19.81
 -17   0  -4   49.92   18.14
  17   0   5   32.54   16.03
 -17   0  -5   30.09   12.10
  17  -1  -4   37.81   16.38
  17   1  -4   36.95    9.22
  17  -1  -4   36.59   16.67
  17   1  -4   38.88   16.47
 -17   1   4   45.10   14.00
 -17  -1   4   46.89   26.83
  17  -1  -3    4.04    7.88
  17   1  -3    5.87    3.73
  17  -1  -3    6.99    6.58
  17   1  -3    8.22    9.52
 -17   1   3    2.39    4.32
 -17  -1   3    7.02    4.26
  17  -1  -2   14.87    6.42
  17   1  -2    9.43   10.64
  17  -1  -2   12.09   13.45
  17   1  -2   12.64    7.06
 -17   1   2   17.03   12.29
 -17  -1   2   13.08   11.82
  17  -1  -1   12.09    8.52
  17   1  -1   10.34   16.59
  17  -1  -1    8.13    8.70
  17   1  -1   12.30   15.14
 -17   1   1   13.86    9.07
 -17  -1   1   13.04    7.10
  17  -1   0   32.16    7.25
  17   1   0   36.33   10.04
  17  -1   0   19.11   20.81
  17   1   0   24.09   14.78
 -17   1   0   31.09   13.22
 -17  -1   0   37.24   13.38
  17  -1   1    7.13   18.74
  17   1   1    9.22   13.98
  17   1   1    7.97    9.27
 -17   1  -1   14.89   10.23
 -17  -1  -1   16.51   11.50
  17  -1   2    6.54   13.24
  17   1   2   16.48   18.89
 -17   1  -2   13.21   10.15
 -17  -1  -2   17.02    9.47
  17  -1   3    6.86    4.07
  17   1   3    9.68    8.31
 -17   1  -3    4.26    3.76
 -17  -1  -3    5.26    3.35
  17  -1   4   33.77   26.37
  17   1   4   48.84   12.50
 -17   1  -4   36.90   19.44
 -17  -1  -4   37.76    8.63
  17  -2  -4    5.12    8.83
  17   2  -4    6.18    7.15
  17  -2  -4    6.24    5.81
  17   2  -4    4.70    8.03
 -17   2   4    7.37    3.33
 -17  -2   4    3.55    2.24
  17  -2  -3    9.81   11.85
  17   2  -3   10.34    8.47
  17  -2  -3    9.82   10.32
  17   2  -3    5.13   10.47
 -17   2   3    9.88    7.66
 -17  -2   3   13.58    8.51
  17  -2  -2   33.90    9.44
  17   2  -2   38.24   13.55
  17  -2  -2   20.87   15.51
  17   2  -2   24.52   29.49
 -17   2   2   37.33   17.02
 -17  -2   2   37.76   15.55
  17  -2  -1   26.75   29.29
  17   2  -1   37.13   22.95
  17  -2  -1   24.78   18.13
  17   2  -1   42.78   12.61
 -17   2   1   37.06   19.33
 -17  -2   1   36.99   22.07
  17  -2   0    4.76    6.78
  17   2   0   10.81    8.83
  17  -2   0    5.55   13.45
  17   2   0    6.58   10.76
 -17   2   0    7.69    6.23
 -17  -2   0    5.61    5.98
  17  -2   1   39.59   17.72
  17   2   1   39.35   16.65
  17   2   1   25.86   16.86
 -17   2  -1   33.90   19.05
 -17  -2  -1   40.56   26.40
  17  -2   2   40.51   21.00
  17   2   2   42.95   10.89
 -17   2  -2   33.31   11.14
 -17  -2  -2   38.59   14.13
  17  -2   3   11.01    7.64
  17   2   3    7.95   11.12
 -17   2  -3   10.71    5.07
  17  -2   4    5.82    8.80
  17   2   4    7.04    8.57
 -17   2  -4    5.10    4.26
 -17  -2  -4    6.42    4.69
  17  -3  -3   30.59   11.40
  17   3  -3   36.22   15.40
  17  -3  -3   29.20   21.50
 -17   3   3   37.15   16.96
 -17  -3   3   37.75   15.60
  17  -3  -2   23.22   15.05
  17   3  -2   20.81   11.76
  17  -3  -2   20.07   21.80
 -17   3   2   27.19    9.91
 -17  -3   2   29.11   12.51
  17  -3  -1   20.38    6.39
  17   3  -1   15.55   18.40
  17  -3  -1   13.55    8.91
 -17   3   1   13.84   15.93
 -17  -3   1   19.47   11.23
  17  -3   0    2.44    2.48
  17   3   0    6.10    6.55
  17  -3   0    2.36    5.92
 -17   3   0    0.82    2.10
 -17  -3   0    3.95    5.02
  17  -3   1   17.72    6.98
  17   3   1   11.25   20.65
 -17   3  -1   10.70   13.51
 -17  -3  -1   19.26   10.19
  17  -3   2   21.78   15.17
  17   3   2   33.73   23.19
 -17   3  -2   28.54   12.02
 -17  -3  -2   27.76   17.31
  17  -3   3   38.24   18.19
  17   3   3   28.19    7.99
 -17   3  -3   31.36   20.49
 -17  -3  -3   40.59    9.79
  17  -4  -2    6.84    9.69
  17   4  -2    6.08    6.87
  17  -4  -2    6.25    7.48
 -17   4   2    6.68    3.45
 -17  -4   2    7.71    5.04
  17  -4  -1    3.32    8.46
  17   4  -1    6.43    9.93
  17  -4  -1    4.39    5.01
 -17   4   1    9.08    4.11
 -17  -4   1    9.43    5.03
  17  -4   0    5.03   12.42
  17   4   0    8.06   11.66
  17  -4   0    5.05    7.06
 -17   4   0    9.27    5.34
 -17  -4   0    9.93    4.48
  17  -4   1    3.32    5.00
  17   4   1    6.20    8.42
 -17   4  -1    6.92    3.40
 -17  -4  -1    9.81    6.30
  17  -4   2    0.81    6.08
  17   4   2    7.83    7.97
 -17   4  -2    6.21    4.94
 -17  -4  -2    3.57    3.89
   0   0   0    0.00    0.00
;
_shelx_hkl_checksum              83388
#END Tags that were not found in dictionaries
loop_
_space_group_symop_operation_xyz
'x, y, z'
'-x+1/2, -y, z+1/2'
'x+1/2, -y+1/2, -z'
'-x, y+1/2, -z+1/2'
loop_
_atom_site_label
_atom_site_type_symbol
_atom_site_fract_x
_atom_site_fract_y
_atom_site_fract_z
_atom_site_U_iso_or_equiv
_atom_site_adp_type
_atom_site_occupancy
_atom_site_site_symmetry_order
_atom_site_calc_flag
_atom_site_refinement_flags_posn
_atom_site_refinement_flags_adp
Cu1 Cu -0.70060(4) -0.20674(4) 0.33602(3) 0.02811(14) Uani 1 1 d . .
Cu2 Cu -0.42989(4) -0.45121(4) 0.41501(3) 0.02860(14) Uani 1 1 d . .
N1 N -0.6218(3) -0.2392(3) 0.4289(2) 0.0324(9) Uani 1 1 d . .
N2 N -0.4837(3) -0.3965(3) 0.3176(2) 0.0319(9) Uani 1 1 d . .
N3 N -0.7990(3) -0.2023(3) 0.2477(2) 0.0319(8) Uani 1 1 d . .
N4 N -0.7808(3) -0.1631(3) 0.1744(2) 0.0353(9) Uani 1 1 d . .
H4A H -0.7259 -0.1349 0.1615 0.042 Uiso 1 1 calc R U
N5 N -0.3998(3) -0.5094(3) 0.5848(3) 0.0355(9) Uani 1 1 d . .
H5A H -0.3764 -0.4542 0.5950 0.043 Uiso 1 1 calc R U
N6 N -0.4319(3) -0.5373(3) 0.5106(2) 0.0325(8) Uani 1 1 d . .
C1 C -0.7453(4) -0.1482(3) 0.4984(3) 0.0298(10) Uani 1 1 d . .
C2 C -0.5670(5) -0.1186(4) 0.5239(4) 0.0531(15) Uani 1 1 d . .
H2A H -0.5021 -0.1472 0.5293 0.080 Uiso 1 1 calc R U
H2B H -0.5833 -0.0861 0.5746 0.080 Uiso 1 1 calc R U
H2C H -0.5662 -0.0749 0.4783 0.080 Uiso 1 1 calc R U
C3 C -0.6443(4) -0.1937(4) 0.5075(3) 0.0358(11) Uani 1 1 d . .
H3A H -0.6451 -0.2397 0.5530 0.043 Uiso 1 1 calc R U
C4 C -0.5592(3) -0.3069(3) 0.4186(3) 0.0281(9) Uani 1 1 d . .
C5 C -0.5525(3) -0.3350(3) 0.3290(3) 0.0293(9) Uani 1 1 d . .
C6 C -0.4598(4) -0.4379(4) 0.2384(3) 0.0434(14) Uani 1 1 d . .
H6A H -0.5217 -0.4549 0.2092 0.052 Uiso 1 1 calc R U
C7 C -0.3983(7) -0.3719(5) 0.1843(4) 0.089(3) Uani 1 1 d . .
H7A H -0.4367 -0.3165 0.1723 0.133 Uiso 1 1 calc R U
H7B H -0.3811 -0.4029 0.1331 0.133 Uiso 1 1 calc R U
H7C H -0.3382 -0.3546 0.2134 0.133 Uiso 1 1 calc R U
C8 C -0.3994(4) -0.5251(3) 0.2560(3) 0.0323(10) Uani 1 1 d . .
C9 C -0.8516(6) -0.1343(5) 0.0360(4) 0.068(2) Uani 1 1 d . .
H9A H -0.7898 -0.1005 0.0302 0.101 Uiso 1 1 calc R U
H9B H -0.9067 -0.0924 0.0260 0.101 Uiso 1 1 calc R U
H9C H -0.8535 -0.1848 -0.0036 0.101 Uiso 1 1 calc R U
C10 C -0.8592(4) -0.1733(3) 0.1226(3) 0.0403(12) Uani 1 1 d . .
C11 C -0.9299(4) -0.2240(3) 0.1639(3) 0.0326(10) Uani 1 1 d . .
C12 C -0.8893(4) -0.2406(3) 0.2424(3) 0.0345(11) Uani 1 1 d . .
C13 C -0.9312(5) -0.2898(5) 0.3140(3) 0.069(2) Uani 1 1 d . .
H13A H -0.8844 -0.2879 0.3594 0.104 Uiso 1 1 calc R U
H13B H -0.9444 -0.3540 0.2992 0.104 Uiso 1 1 calc R U
H13C H -0.9926 -0.2600 0.3305 0.104 Uiso 1 1 calc R U
C14 C -0.4662(4) -0.7497(3) 0.6357(4) 0.0416(13) Uani 1 1 d . .
H14A H -0.4486 -0.7962 0.5963 0.050 Uiso 1 1 d R U
H14B H -0.4284 -0.7924 0.6676 0.050 Uiso 1 1 d R U
C15 C -0.5053(5) -0.6782(4) 0.4498(4) 0.0538(15) Uani 1 1 d . .
H15A H -0.5046 -0.6401 0.4004 0.081 Uiso 1 1 calc R U
H15B H -0.5730 -0.6955 0.4629 0.081 Uiso 1 1 calc R U
H15C H -0.4663 -0.7339 0.4406 0.081 Uiso 1 1 calc R U
C16 C -0.4624(3) -0.6247(3) 0.5198(3) 0.0327(10) Uani 1 1 d . .
C17 C -0.4491(3) -0.6531(3) 0.6023(3) 0.0339(11) Uani 1 1 d . .
C18 C -0.4083(4) -0.5772(4) 0.6418(3) 0.0359(11) Uani 1 1 d . .
C19 C -0.3765(6) -0.5587(5) 0.7286(4) 0.0635(19) Uani 1 1 d . .
H19A H -0.3873 -0.6139 0.7619 0.095 Uiso 1 1 calc R U
H19B H -0.4148 -0.5075 0.7510 0.095 Uiso 1 1 calc R U
H19C H -0.3066 -0.5428 0.7294 0.095 Uiso 1 1 calc R U
C20 C -0.8214(5) -0.5159(5) 0.1601(6) 0.185(6) Uani 1 1 d G U
H20A H -0.8728 -0.4728 0.1519 0.222 Uiso 1 1 calc R U
C21 C -0.8344(6) -0.5897(6) 0.2145(6) 0.199(5) Uani 1 1 d G U
H21A H -0.8946 -0.5965 0.2431 0.239 Uiso 1 1 calc R U
C22 C -0.7583(7) -0.6534(5) 0.2268(5) 0.198(6) Uani 1 1 d G U
H22A H -0.7671 -0.7033 0.2636 0.237 Uiso 1 1 calc R U
C23 C -0.6692(6) -0.6433(5) 0.1846(5) 0.155(6) Uani 1 1 d G .
H23A H -0.6177 -0.6864 0.1928 0.186 Uiso 1 1 calc R U
C24 C -0.6562(5) -0.5695(6) 0.1302(5) 0.143(5) Uani 1 1 d G .
H24A H -0.5959 -0.5627 0.1016 0.171 Uiso 1 1 calc R U
C25 C -0.7323(6) -0.5058(5) 0.1179(5) 0.116(4) Uani 1 1 d G .
O1 O -0.7817(3) -0.1100(3) 0.5588(2) 0.0418(9) Uani 1 1 d . .
O2 O -0.7846(2) -0.1490(2) 0.4252(2) 0.0338(7) Uani 1 1 d . .
O3 O -0.6114(3) -0.2983(3) 0.2763(2) 0.0401(8) Uani 1 1 d . .
O4 O -0.5070(3) -0.3489(2) 0.4717(2) 0.0353(8) Uani 1 1 d . .
O5 O -0.3782(2) -0.5426(2) 0.3310(2) 0.0337(7) Uani 1 1 d . .
O6 O -0.3728(3) -0.5728(2) 0.1967(2) 0.0459(10) Uani 1 1 d . .
O7 O -0.6527(7) -0.3575(5) 0.0907(6) 0.169(3) Uani 1 1 d . U
H7F H -0.6524 -0.3503 0.1428 0.203 Uiso 1 1 d R U
C27 C -0.7144(11) -0.4329(9) -0.0232(8) 0.151(4) Uani 1 1 d . U
H27A H -0.7387 -0.3773 -0.0517 0.181 Uiso 1 1 calc R U
H27B H -0.6441 -0.4401 -0.0370 0.181 Uiso 1 1 calc R U
C26 C -0.7232(12) -0.4182(8) 0.0659(8) 0.151(4) Uani 1 1 d . U
H26A H -0.7869 -0.3850 0.0734 0.182 Uiso 1 1 calc R U
C28 C -0.7642(14) -0.5076(11) -0.0521(8) 0.208(8) Uani 1 1 d . .
H28A H -0.7516 -0.5145 -0.1107 0.313 Uiso 1 1 calc R U
H28B H -0.8347 -0.4989 -0.0430 0.313 Uiso 1 1 calc R U
H28C H -0.7422 -0.5630 -0.0232 0.313 Uiso 1 1 calc R U
loop_
_atom_site_aniso_label
_atom_site_aniso_U_11
_atom_site_aniso_U_22
_atom_site_aniso_U_33
_atom_site_aniso_U_23
_atom_site_aniso_U_13
_atom_site_aniso_U_12
Cu1 0.0298(3) 0.0289(3) 0.0256(3) 0.0006(2) -0.0034(2) 0.0054(2)
Cu2 0.0311(3) 0.0289(3) 0.0259(3) 0.0001(2) -0.0009(2) 0.0072(2)
N1 0.035(2) 0.040(2) 0.022(2) -0.0004(16) -0.0011(17) 0.0149(17)
N2 0.039(2) 0.0320(19) 0.025(2) -0.0027(16) -0.0028(17) 0.0118(17)
N3 0.0302(19) 0.036(2) 0.029(2) 0.0055(17) -0.0072(17) -0.0069(19)
N4 0.035(2) 0.039(2) 0.032(2) 0.0065(17) -0.0070(19) -0.0126(17)
N5 0.042(2) 0.033(2) 0.032(2) 0.0010(18) -0.001(2) -0.0144(17)
N6 0.038(2) 0.0285(19) 0.030(2) 0.0019(15) -0.0013(18) -0.0031(18)
C1 0.030(2) 0.031(2) 0.028(3) 0.0016(19) 0.003(2) 0.0033(19)
C2 0.043(3) 0.074(4) 0.043(3) -0.020(3) -0.012(3) 0.006(3)
C3 0.045(3) 0.042(3) 0.021(2) 0.002(2) 0.000(2) 0.018(2)
C4 0.026(2) 0.033(2) 0.026(2) -0.0001(18) -0.002(2) 0.0055(18)
C5 0.036(2) 0.027(2) 0.024(2) -0.0004(18) 0.001(2) 0.0067(18)
C6 0.058(3) 0.042(3) 0.030(3) -0.011(2) -0.011(2) 0.027(3)
C7 0.161(9) 0.059(4) 0.046(4) 0.023(3) 0.042(5) 0.043(5)
C8 0.032(2) 0.031(2) 0.034(3) -0.005(2) -0.001(2) 0.0034(18)
C9 0.092(5) 0.066(4) 0.045(4) 0.021(3) -0.029(4) -0.042(4)
C10 0.053(3) 0.032(2) 0.036(3) 0.001(2) -0.020(3) -0.008(2)
C11 0.033(2) 0.025(2) 0.039(3) -0.0040(19) -0.011(2) -0.0015(18)
C12 0.034(2) 0.038(2) 0.032(3) 0.000(2) -0.002(2) -0.009(2)
C13 0.072(4) 0.096(5) 0.041(3) 0.008(3) -0.002(3) -0.045(4)
C14 0.036(3) 0.031(2) 0.058(4) 0.017(2) 0.018(3) 0.003(2)
C15 0.068(4) 0.045(3) 0.049(4) -0.004(3) 0.002(3) -0.017(3)
C16 0.030(2) 0.032(2) 0.036(3) 0.0009(19) 0.007(2) -0.0039(18)
C17 0.029(2) 0.033(2) 0.039(3) 0.010(2) 0.007(2) -0.0056(18)
C18 0.035(3) 0.045(3) 0.027(3) 0.009(2) 0.002(2) -0.007(2)
C19 0.080(5) 0.068(4) 0.042(4) 0.010(3) -0.010(3) -0.032(4)
C20 0.139(9) 0.136(9) 0.281(15) 0.089(10) 0.097(10) 0.046(8)
C21 0.155(9) 0.130(8) 0.313(13) 0.112(9) 0.110(9) 0.048(7)
C22 0.134(10) 0.134(9) 0.325(15) 0.108(10) 0.103(11) 0.041(8)
C23 0.134(11) 0.094(8) 0.237(16) 0.048(9) 0.025(11) 0.019(7)
C24 0.095(8) 0.117(9) 0.216(15) 0.021(10) 0.029(9) 0.001(7)
C25 0.103(8) 0.083(6) 0.161(10) 0.021(7) 0.019(8) 0.006(6)
O1 0.0351(19) 0.056(2) 0.035(2) -0.0034(16) 0.0069(16) 0.0157(17)
O2 0.0322(17) 0.0384(17) 0.0307(19) -0.0001(14) -0.0002(15) 0.0097(14)
O3 0.049(2) 0.0462(19) 0.0252(18) -0.0046(15) -0.0089(15) 0.0205(18)
O4 0.0411(19) 0.0393(18) 0.0256(18) -0.0008(14) -0.0019(15) 0.0195(16)
O5 0.0425(18) 0.0328(16) 0.0257(17) -0.0025(14) -0.0015(15) 0.0117(14)
O6 0.061(2) 0.043(2) 0.034(2) -0.0102(15) 0.0028(18) 0.0187(18)
O7 0.215(8) 0.096(5) 0.197(7) 0.013(5) -0.014(7) -0.058(5)
C27 0.170(10) 0.139(8) 0.144(9) -0.003(8) -0.015(9) -0.064(8)
C26 0.184(8) 0.091(5) 0.180(7) 0.004(6) -0.022(7) -0.059(6)
C28 0.24(2) 0.175(14) 0.214(17) -0.029(13) -0.068(16) -0.056(14)
loop_
_atom_type_symbol
_atom_type_description
_atom_type_scat_dispersion_real
_atom_type_scat_dispersion_imag
_atom_type_scat_source
C C 0.0033 0.0016 'International Tables Vol C Tables 4.2.6.8 and 6.1.1.4'
H H 0.0000 0.0000 'International Tables Vol C Tables 4.2.6.8 and 6.1.1.4'
N N 0.0061 0.0033 'International Tables Vol C Tables 4.2.6.8 and 6.1.1.4'
O O 0.0106 0.0060 'International Tables Vol C Tables 4.2.6.8 and 6.1.1.4'
Cu Cu 0.3201 1.2651 'International Tables Vol C Tables 4.2.6.8 and 6.1.1.4'
loop_
_geom_angle_atom_site_label_1
_geom_angle_atom_site_label_2
_geom_angle_atom_site_label_3
_geom_angle
_geom_angle_site_symmetry_3
N1 Cu1 N3 165.55(17) .
N1 Cu1 O2 81.32(14) .
N3 Cu1 O2 97.37(16) .
N1 Cu1 O3 83.43(14) .
N3 Cu1 O3 94.36(16) .
O2 Cu1 O3 160.48(13) .
N1 Cu1 O6 98.74(17) 4_455
N3 Cu1 O6 95.70(15) 4_455
O2 Cu1 O6 93.71(14) 4_455
O3 Cu1 O6 100.60(15) 4_455
N2 Cu2 N6 154.00(18) .
N2 Cu2 O5 80.93(14) .
N6 Cu2 O5 97.17(15) .
N2 Cu2 O4 83.05(14) .
N6 Cu2 O4 95.33(15) .
O5 Cu2 O4 163.42(13) .
N2 Cu2 O1 109.68(16) 3_546
N6 Cu2 O1 96.32(15) 3_546
O5 Cu2 O1 94.35(14) 3_546
O4 Cu2 O1 95.07(14) 3_546
C4 N1 C3 125.6(4) .
C4 N1 Cu1 116.5(3) .
C3 N1 Cu1 117.5(3) .
C5 N2 C6 124.4(4) .
C5 N2 Cu2 115.9(3) .
C6 N2 Cu2 118.5(3) .
N4 N3 C12 106.5(4) .
N4 N3 Cu1 122.6(3) .
C12 N3 Cu1 130.7(3) .
N3 N4 C10 111.1(4) .
N6 N5 C18 111.7(4) .
C16 N6 N5 106.4(4) .
C16 N6 Cu2 133.0(3) .
N5 N6 Cu2 120.6(3) .
O1 C1 O2 124.7(4) .
O1 C1 C3 118.3(4) .
O2 C1 C3 116.9(4) .
N1 C3 C1 107.1(4) .
N1 C3 C2 109.0(4) .
C1 C3 C2 109.0(4) .
O4 C4 N1 129.2(4) .
O4 C4 C5 119.5(4) .
N1 C4 C5 111.3(4) .
O3 C5 N2 129.2(4) .
O3 C5 C4 119.5(4) .
N2 C5 C4 111.3(4) .
N2 C6 C8 107.0(4) .
N2 C6 C7 111.8(5) .
C8 C6 C7 109.0(5) .
O6 C8 O5 124.5(4) .
O6 C8 C6 117.9(4) .
O5 C8 C6 117.5(4) .
N4 C10 C11 107.3(4) .
N4 C10 C9 118.7(5) .
C11 C10 C9 134.0(5) .
C10 C11 C12 105.0(4) .
C10 C11 C14 128.7(5) 2_344
C12 C11 C14 126.1(5) 2_344
N3 C12 C11 110.1(4) .
N3 C12 C13 119.8(5) .
C11 C12 C13 130.1(5) .
C17 C14 C11 118.5(4) 2_345
N6 C16 C17 109.9(4) .
N6 C16 C15 121.6(5) .
C17 C16 C15 128.5(4) .
C18 C17 C16 105.1(4) .
C18 C17 C14 128.5(5) .
C16 C17 C14 126.0(5) .
N5 C18 C17 106.8(4) .
N5 C18 C19 119.4(5) .
C17 C18 C19 133.8(5) .
C21 C20 C25 120.0 .
C22 C21 C20 120.0 .
C21 C22 C23 120.0 .
C22 C23 C24 120.0 .
C25 C24 C23 120.0 .
C24 C25 C20 120.0 .
C24 C25 C26 124.5(8) .
C20 C25 C26 115.3(8) .
C1 O1 Cu2 133.6(3) 3_446
C1 O2 Cu1 115.3(3) .
C5 O3 Cu1 108.6(3) .
C4 O4 Cu2 109.0(3) .
C8 O5 Cu2 115.9(3) .
C8 O6 Cu1 142.7(3) 4_445
C28 C27 C26 114.6(13) .
O7 C26 C27 109.2(12) .
O7 C26 C25 115.2(11) .
C27 C26 C25 115.7(10) .
loop_
_geom_bond_atom_site_label_1
_geom_bond_atom_site_label_2
_geom_bond_distance
_geom_bond_site_symmetry_2
Cu1 N1 1.900(4) .
Cu1 N3 1.952(4) .
Cu1 O2 2.014(3) .
Cu1 O3 2.029(3) .
Cu1 O6 2.230(3) 4_455
Cu2 N2 1.906(4) .
Cu2 N6 1.982(4) .
Cu2 O5 2.016(3) .
Cu2 O4 2.022(3) .
Cu2 O1 2.226(3) 3_546
N1 C4 1.300(5) .
N1 C3 1.463(6) .
N2 C5 1.294(6) .
N2 C6 1.450(6) .
N3 N4 1.337(5) .
N3 C12 1.339(6) .
N4 C10 1.359(6) .
N5 N6 1.339(6) .
N5 C18 1.348(6) .
N6 C16 1.330(6) .
C1 O1 1.224(6) .
C1 O2 1.298(6) .
C1 C3 1.519(6) .
C2 C3 1.524(8) .
C4 O4 1.265(5) .
C4 C5 1.508(6) .
C5 O3 1.280(6) .
C6 C8 1.522(6) .
C6 C7 1.535(9) .
C8 O6 1.233(6) .
C8 O5 1.272(6) .
C9 C10 1.513(7) .
C10 C11 1.375(7) .
C11 C12 1.405(7) .
C11 C14 1.521(6) 2_344
C12 C13 1.471(7) .
C14 C17 1.508(6) .
C14 C11 1.521(6) 2_345
C15 C16 1.487(7) .
C16 C17 1.408(7) .
C17 C18 1.379(7) .
C18 C19 1.494(8) .
C20 C21 1.3900 .
C20 C25 1.3900 .
C21 C22 1.3900 .
C22 C23 1.3900 .
C23 C24 1.3900 .
C24 C25 1.3900 .
C25 C26 1.521(11) .
O1 Cu2 2.226(3) 3_446
O6 Cu1 2.230(3) 4_445
O7 C26 1.352(13) .
C27 C28 1.350(16) .
C27 C26 1.463(17) .
