#------------------------------------------------------------------------------
#$Date: 2016-03-23 22:33:44 +0200 (Wed, 23 Mar 2016) $
#$Revision: 179485 $
#$URL: svn://www.crystallography.net/cod/cif/4/33/82/4338274.cif $
#------------------------------------------------------------------------------
#
# This file is available in the Crystallography Open Database (COD),
# http://www.crystallography.net/
#
# All data on this site have been placed in the public domain by the
# contributors.
#
data_4338274
loop_
_publ_author_name
'Lin, Lang'
'Yu, Rongmin'
'Wu, Xiao-Yuan'
'Yang, Wen-Bin'
'Zhang, Jian'
'Guo, Xiang-Guang'
'Lin, Zu-Jin'
'Lu, Can-Zhong'
_publ_section_title
;
 Enantioselective inclusion of alcohols by solvent-controlled assembled
 flexible metal-organic frameworks.
;
_journal_issue                   10
_journal_name_full               'Inorganic chemistry'
_journal_page_first              4794
_journal_page_last               4796
_journal_paper_doi               10.1021/ic500436g
_journal_volume                  53
_journal_year                    2014
_chemical_absolute_configuration ad
_chemical_formula_moiety         'C19 H24 Cu2 N6 O6'
_chemical_formula_sum            'C19 H24 Cu2 N6 O6'
_chemical_formula_weight         559.52
_chemical_name_systematic
;
 ?
;
_space_group_crystal_system      tetragonal
_space_group_IT_number           96
_space_group_name_Hall           'P 4nw 2abw'
_space_group_name_H-M_alt        'P 43 21 2'
_symmetry_space_group_name_Hall  'P 4nw 2abw'
_symmetry_space_group_name_H-M   'P 43 21 2'
_atom_sites_solution_hydrogens   geom
_audit_creation_method           SHELXL-2013
_cell_angle_alpha                90
_cell_angle_beta                 90
_cell_angle_gamma                90
_cell_formula_units_Z            4
_cell_length_a                   13.5401(4)
_cell_length_b                   13.5401(4)
_cell_length_c                   16.1906(10)
_cell_measurement_reflns_used    8543
_cell_measurement_temperature    173(2)
_cell_measurement_theta_max      27.5398
_cell_measurement_theta_min      2.1272
_cell_volume                     2968.3(2)
_computing_cell_refinement       'CrystalClear (Rigaku Inc., 2008)'
_computing_data_collection       'CrystalClear (Rigaku Inc., 2008)'
_computing_data_reduction        'CrystalClear (Rigaku Inc., 2008)'
_computing_molecular_graphics    DIAMOND
_computing_publication_material  'SHELXL-2013 (Sheldrick, 2013)'
_computing_structure_refinement  'SHELXL-2013 (Sheldrick, 2013)'
_computing_structure_solution    'SHELXL-2013 (Sheldrick, 2013)'
_diffrn_ambient_temperature      173(2)
_diffrn_detector_area_resol_mean 28.5714
_diffrn_measured_fraction_theta_full 0.999
_diffrn_measured_fraction_theta_max 0.999
_diffrn_measurement_method       CCD_Profile_fitting
_diffrn_radiation_type           MoK\a
_diffrn_radiation_wavelength     0.71073
_diffrn_reflns_av_R_equivalents  0.0494
_diffrn_reflns_av_unetI/netI     0.0330
_diffrn_reflns_Laue_measured_fraction_full 0.999
_diffrn_reflns_Laue_measured_fraction_max 0.999
_diffrn_reflns_limit_h_max       15
_diffrn_reflns_limit_h_min       -17
_diffrn_reflns_limit_k_max       17
_diffrn_reflns_limit_k_min       -17
_diffrn_reflns_limit_l_max       21
_diffrn_reflns_limit_l_min       -21
_diffrn_reflns_number            23749
_diffrn_reflns_point_group_measured_fraction_full 0.999
_diffrn_reflns_point_group_measured_fraction_max 0.999
_diffrn_reflns_theta_full        25.242
_diffrn_reflns_theta_max         27.498
_diffrn_reflns_theta_min         2.127
_exptl_absorpt_coefficient_mu    1.470
_exptl_absorpt_correction_T_max  0.889
_exptl_absorpt_correction_T_min  0.863
_exptl_absorpt_correction_type   multi-scan
_exptl_crystal_colour            green
_exptl_crystal_density_diffrn    1.252
_exptl_crystal_description       block
_exptl_crystal_F_000             1144
_exptl_crystal_size_max          0.100
_exptl_crystal_size_mid          0.100
_exptl_crystal_size_min          0.080
_refine_diff_density_max         1.807
_refine_diff_density_min         -0.720
_refine_diff_density_rms         0.343
_refine_ls_abs_structure_details
;
 Flack x determined using 1311 quotients [(I+)-(I-)]/[(I+)+(I-)]
 (Parsons and Flack (2004), Acta Cryst. A60, s61).
;
_refine_ls_abs_structure_Flack   0.066(7)
_refine_ls_extinction_coef       0.042(5)
_refine_ls_extinction_expression Fc^*^=kFc[1+0.001xFc^2^\l^3^/sin(2\q)]^-1/4^
_refine_ls_extinction_method     SHELXL
_refine_ls_goodness_of_fit_ref   1.021
_refine_ls_hydrogen_treatment    mixed
_refine_ls_matrix_type           full
_refine_ls_number_parameters     151
_refine_ls_number_reflns         3419
_refine_ls_number_restraints     0
_refine_ls_restrained_S_all      1.021
_refine_ls_R_factor_all          0.0692
_refine_ls_R_factor_gt           0.0652
_refine_ls_shift/su_max          0.000
_refine_ls_shift/su_mean         0.000
_refine_ls_structure_factor_coef Fsqd
_refine_ls_weighting_details
;
 w=1/[\s^2^(Fo^2^)+(0.1537P)^2^+1.7862P]
 where P=(Fo^2^+2Fc^2^)/3
;
_refine_ls_weighting_scheme      calc
_refine_ls_wR_factor_gt          0.1900
_refine_ls_wR_factor_ref         0.1936
_reflns_Friedel_coverage         0.705
_reflns_Friedel_fraction_full    1.000
_reflns_Friedel_fraction_max     1.000
_reflns_number_gt                3390
_reflns_number_total             3419
_reflns_threshold_expression     'I > 2\s(I)'
_cod_data_source_file            ic500436g_si_001.cif
_cod_data_source_block           L-3-2-BuOH
_cod_depositor_comments
'Adding full bibliography for 4338272--4338281.cif.'
_cod_original_cell_volume        2968.3(3)
_cod_database_code               4338274
#BEGIN Tags that were not found in dictionaries:
_shelx_space_group_comment
;
The symmetry employed for this shelxl refinement is uniquely defined
by the following loop, which should always be used as a source of
symmetry information in preference to the above space-group names.
They are only intended as comments.
;
_shelx_estimated_absorpt_t_min   0.867
_shelx_estimated_absorpt_t_max   0.891
_shelxl_version_number           2013-2
_shelx_res_file
;
TITL a in P4(3)2(1)2
CELL 0.71073 13.5401 13.5401 16.1906 90 90 90
ZERR 4 0.0004 0.0004 0.001 0 0 0
LATT -1
SYMM 0.5-Y,0.5+X,0.75+Z
SYMM -X,-Y,0.5+Z
SYMM 0.5+Y,0.5-X,0.25+Z
SYMM 0.5+X,0.5-Y,0.25-Z
SYMM 0.5-X,0.5+Y,0.75-Z
SYMM +Y,+X,-Z
SYMM -Y,-X,0.5-Z

SFAC C H N O Cu
UNIT 76 96 24 24 8

L.S. 30
PLAN  10
SIZE 0.1 0.1 0.08
TEMP -100
FMAP 2
GRID
BOND
acta
MERG 2
REM <HKL>E:\? ? ?0?.\X-ray\(27)112828-Cu+OBA+CH2bpz(2-butanol)\a.hkl</HKL>

WGHT    0.153700    1.786200
EXTI    0.041568
FVAR       0.42750
CU1   5    0.303764    0.035312    0.033401    11.00000    0.03031    0.03021 =
         0.01760    0.00306   -0.00119    0.00366
O3    4    0.358369   -0.049742   -0.056803    11.00000    0.03042    0.03331 =
         0.02108    0.00142   -0.00019    0.00181
N2    3    0.344279   -0.028844    0.200484    11.00000    0.03523    0.03024 =
         0.01783    0.00239   -0.00423   -0.00118
AFIX  43
H2    2    0.362709    0.031966    0.211906    11.00000   -1.20000
AFIX   0
C7    1    0.305260   -0.185684    0.216073    11.00000    0.02424    0.02927 =
         0.02949    0.00810    0.00713    0.00465
O1    4    0.215563    0.129951    0.096388    11.00000    0.04024    0.03681 =
         0.02005    0.00320   -0.00205    0.01210
C1    1    0.350801   -0.014388   -0.130486    11.00000    0.02580    0.03588 =
         0.03050   -0.00267   -0.00415    0.00264
N1    3    0.317332   -0.060658    0.124469    11.00000    0.03162    0.03164 =
         0.02085    0.00394   -0.00049   -0.00159
N3    3    0.253319    0.106996   -0.059800    11.00000    0.03919    0.03626 =
         0.01597    0.00102   -0.00146    0.00813
C3    1    0.168822    0.183901    0.045967    11.00000    0.03226    0.03208 =
         0.02226    0.00021   -0.00106    0.00193
O2    4    0.446203    0.113484    0.056414    11.00000    0.04214    0.04732 =
         0.02088    0.00212   -0.00427   -0.01233
C6    1    0.292936   -0.155573    0.132864    11.00000    0.03365    0.03354 =
         0.02833   -0.00028    0.00360   -0.00579
C10   1    0.287420   -0.287420    0.250000    10.50000    0.02661    0.02661 =
         0.03709    0.00837    0.00837   -0.00022
AFIX  23
H10A  2    0.299967   -0.336033    0.205548    10.50000   -1.20000
H10B  2    0.336032   -0.299967    0.294452    10.50000   -1.20000
AFIX   0
C2    1    0.296632    0.083538   -0.139595    11.00000    0.04157    0.04476 =
         0.01846    0.00365    0.00064    0.01928
AFIX  13
H2A   2    0.244178    0.078529   -0.182873    11.00000   -1.20000
AFIX   0
C8    1    0.339268   -0.101481    0.255657    11.00000    0.02497    0.02866 =
         0.02594    0.00813    0.00312   -0.00167
C9    1    0.369479   -0.082222    0.343555    11.00000    0.05041    0.04943 =
         0.02454    0.00898   -0.00494   -0.01261
AFIX  33
H9A   2    0.389063   -0.012913    0.349542    11.00000   -1.50000
H9B   2    0.425270   -0.124966    0.358010    11.00000   -1.50000
H9C   2    0.313795   -0.096233    0.380404    11.00000   -1.50000
AFIX   0
C5    1    0.256974   -0.214021    0.060251    11.00000    0.08863    0.04443 =
         0.03074   -0.00216   -0.00428   -0.03122
AFIX  33
H5A   2    0.256981   -0.172080    0.010920    11.00000   -1.50000
H5B   2    0.189737   -0.237499    0.071040    11.00000   -1.50000
H5C   2    0.300686   -0.270708    0.051305    11.00000   -1.50000
AFIX   0
C4    1    0.371384    0.163726   -0.162159    11.00000    0.07312    0.04555 =
         0.02813    0.01376    0.00971    0.01127
AFIX  33
H4A   2    0.337119    0.226994   -0.168724    11.00000   -1.50000
H4B   2    0.404212    0.146203   -0.214075    11.00000   -1.50000
H4C   2    0.420743    0.169389   -0.118144    11.00000   -1.50000
AFIX   0
HKLF 4

REM  a in P4(3)2(1)2
REM R1 =  0.0652 for    3390 Fo > 4sig(Fo)  and  0.0692 for all    3419 data
REM    151 parameters refined using      0 restraints

END

WGHT      0.1098      1.3710

REM Highest difference peak  1.807,  deepest hole -0.720,  1-sigma level  0.343
Q1    1   0.0351 -0.0671  0.1462  11.00000  0.05    1.81
Q2    1  -0.0332  0.0332 -0.2500  10.50000  0.05    1.57
Q3    1  -0.0053  0.0126 -0.2135  11.00000  0.05    1.52
Q4    1   0.0761  0.0224  0.2048  11.00000  0.05    1.49
Q5    1   0.0525  0.0054  0.1944  11.00000  0.05    1.47
Q6    1   0.5229 -0.4484  0.0367  11.00000  0.05    1.46
Q7    1   0.0690  0.1019 -0.2449  11.00000  0.05    1.46
Q8    1   0.4857 -0.4857  0.2500  10.50000  0.05    1.38
Q9    1   0.4605 -0.5137  0.3320  11.00000  0.05    1.30
Q10   1   0.1675  0.1675  0.0000  10.50000  0.05    0.65
;
_shelx_res_checksum              81685
_shelx_hkl_file
;
   0   0   2    1.53    0.80
   0   0   2    1.86    1.71
   0   0  -2   -0.36    1.28
   0   0   2    2.41    1.27
   0   0   3    1.44    1.47
   0   0  -3    3.22    2.45
   0   0   4  133.22    8.41
   0   0  -4  122.12    7.37
   0   0   5   -0.18    4.08
   0   0  -5    3.93    3.42
   0   0   6    4.34    2.94
   0   0  -6   -0.32    4.18
   0   0   7   -0.97    4.10
   0   0  -7    3.44    3.64
   0   0   8  490.98   16.90
   0   0  -8  508.39   16.05
   0   0   9   -1.61    4.55
   0   0  -9    6.74    4.98
   0   0  10    2.37    3.79
   0   0 -10    5.40    4.46
   0   0  11    5.45    3.92
   0   0 -11    3.89    4.25
   0   0  12 4004.98  128.51
   0   0 -12 4216.71  173.16
   0   0  13    9.50    7.95
   0   0 -13    3.87    4.37
   0   0 -13    2.36    2.36
   0   0  14    4.19    3.86
   0   0 -14    4.68    4.53
   0   0 -14    1.81    1.74
   0   0  15    3.89    4.80
   0   0 -15    6.77    7.41
   0   0  16  244.73   20.38
   0   0 -16  223.79   31.31
   0   0  17   18.90    8.29
   0   0 -17    1.91    2.41
   0   0  18   11.49    9.69
   0   0 -18    8.80    5.99
   0   0  19    4.15    8.33
   0   0 -19    3.77    5.61
   0   0  20   22.39   11.11
   0   0 -20    6.90    7.38
   0   0  21   -0.54    7.77
   0   0 -21    9.25    4.80
   0  -1  -2  363.83   15.69
   0   1   2  336.22   14.91
  -1   0  -2  354.90   15.41
   1   0   2  365.28   15.91
  -1   0   2  343.04   14.97
   1   0  -2  341.19   14.92
   0  -1   2  347.35   15.06
   0   1  -2  356.76   15.45
   0   1  -2  356.03   15.69
   0  -1   2  351.35   15.28
   1   0  -2  350.64   15.23
  -1   0  -2  341.41   14.80
  -1   0   2  343.85   15.43
   1   0   2  362.29   15.55
   0  -1  -2  368.77   16.05
   0   1   2  332.82   14.52
   0  -1  -2  367.42   15.60
   1   0   2  355.58   14.84
   0   1  -2  342.44   14.81
   0  -1  -3  217.80   13.06
  -1   0  -3  211.93   10.70
  -1   0   3  201.65   11.24
   0  -1   3  203.25    9.69
   0   1  -3  192.32    9.16
   1   0  -3  187.16    9.16
  -1   0  -3  200.28    9.37
   1   0   3  205.48    9.55
   0  -1  -3  208.11   10.38
   0  -1  -4 1963.28   26.60
  -1   0  -4 1966.36   27.01
  -1   0   4 2021.50   27.78
   0  -1   4 1973.73   26.79
   0   1  -4 1932.48   27.22
   1   0  -4 1978.41   27.58
  -1   0  -4 1970.33   26.67
   0  -1  -4 1981.02   27.61
   0  -1  -5  218.09   11.14
  -1   0  -5  211.70   10.82
  -1   0   5  204.77   10.67
   0  -1   5  206.92   10.97
   0   1  -5  219.95   11.69
   1   0  -5  209.62   11.04
  -1   0  -5  206.38   11.37
   0  -1  -5  217.38   11.27
  -1   0  -6   18.54    4.78
  -1   0   6   17.90    4.72
   0  -1   6   24.99    6.41
   0   1   6   19.06    5.49
   0   1  -6   26.73    8.78
   1   0  -6   20.75    5.18
  -1   0  -6   24.92    7.68
   0  -1  -6   22.76    7.74
  -1   0  -7   17.34    6.10
  -1   0   7   22.22    4.69
   0  -1   7   19.31    5.76
   0   1   7   21.43    5.93
   0   1  -7   27.42    9.07
   1   0  -7   21.14    5.22
  -1   0  -7   19.74    5.92
   0  -1  -7   17.80    5.53
  -1   0   8  184.51   11.18
   0  -1   8  190.45    8.93
   0   1   8  192.01    9.54
   1   0   8  181.31    9.54
   0   1  -8  196.20    9.04
   1   0  -8  159.19    9.51
  -1   0  -8  175.81    8.28
   0  -1  -8  189.40    9.78
  -1   0   9 1589.01   38.59
   0  -1   9 1631.13   39.78
   0   1   9 1576.88   38.50
   1   0   9 1656.57   41.25
   0   1  -9 1687.90   41.10
   1   0  -9 1638.43   40.50
  -1   0  -9 1586.62   39.11
   0  -1  -9 1643.37   40.93
  -1   0  10  158.84   10.24
   0  -1  10  152.00   16.90
   0   1  10  174.39   10.06
   1   0  10  153.34    9.86
   0   1 -10  139.12    8.57
   1   0 -10  165.33   20.73
  -1   0 -10  163.08    8.96
   0  -1 -10  152.64    9.67
   0   1 -10  148.13    9.25
  -1   0  11   99.24   12.43
   0  -1  11   89.28   15.94
   0   1  11  110.98   23.40
   1   0  11   96.96   12.47
   0   1 -11  112.96   30.10
   1   0 -11  100.75   11.35
  -1   0 -11  101.55    8.13
   0  -1 -11  116.46   22.28
   0   1 -11   90.28    6.90
  -1   0  12 1160.13   49.69
   0  -1  12 1108.12   40.07
   0   1  12 1101.97   45.83
   1   0  12 1188.80   43.09
   0   1 -12 1154.03   41.81
   1   0 -12 1201.48   43.25
  -1   0 -12 1163.17   42.63
   0  -1 -12 1100.29   39.89
   0   1 -12 1154.43   38.73
  -1   0  13  551.04   27.97
   0  -1  13  532.90   27.22
   0   1  13  547.11   34.55
   1   0  13  573.73   28.80
   0   1 -13  526.60   27.53
   1   0 -13  571.22   29.25
  -1   0 -13  534.47   29.49
   0  -1 -13  520.49   27.44
   0   1 -13  546.16   25.70
  -1   0  14  123.29   15.29
   0  -1  14  171.91   39.98
   0   1  14  139.38   32.86
   1   0  14  133.91   12.64
   0   1 -14  119.57    8.83
   1   0 -14  131.79   11.63
  -1   0 -14  132.78   27.43
   0  -1 -14  116.06   19.85
   0   1 -14  134.05    7.08
  -1   0  15  122.34   24.14
   0  -1  15  127.73   27.91
   0   1  15  131.82   26.02
   1   0  15  114.98   14.30
   0   1 -15  140.44   35.34
   1   0 -15  111.78   17.90
  -1   0 -15  137.08   28.55
   0  -1 -15  129.14   35.51
  -1   0  16    5.82    7.84
   0  -1  16    1.44    5.52
   0   1  16    7.71    4.93
   1   0  16    3.18    5.95
   0   1 -16    5.37    6.13
   1   0 -16    9.48    5.79
  -1   0 -16    4.53    5.84
   0  -1 -16    9.58   10.19
  -1   0  17   78.85   32.88
   0  -1  17   77.48   21.97
   0   1  17   69.09   22.53
   1   0  17   79.41   26.84
   0   1 -17   95.08   32.68
   1   0 -17   82.34   22.34
  -1   0 -17   79.59   21.79
   0  -1 -17   69.72   30.52
  -1   0  18   50.42   21.24
   0  -1  18   46.37   12.62
   0   1  18   59.60   20.45
   1   0  18   63.53   17.49
   0   1 -18   59.82   16.69
  -1   0 -18   59.62   20.21
   1   0 -18   48.18   19.70
   0  -1 -18   54.49   24.57
  -1   0  19   61.42   20.47
   0  -1  19   56.69   21.13
   0   1  19   62.56   27.79
   1   0  19   61.13   27.83
   0   1 -19   60.92   13.19
   1   0 -19   74.23   12.68
  -1   0 -19   63.56   18.37
   0  -1 -19   68.57   10.51
  -1   0  20  162.53   31.32
   0  -1  20  161.64   13.66
   0   1  20  149.29   28.45
   1   0  20  178.19   18.61
   0   1 -20  145.17   32.23
   1   0 -20  182.19   35.85
  -1   0 -20  150.30   24.24
   0  -1 -20  149.93   40.28
  -1  -1   0    1.21    1.20
  -1  -1  -1 6342.53   74.10
  -1   1  -2 2831.67   34.49
   1  -1   2 2697.87   32.85
  -1  -1  -2 2767.77   34.18
   1   1   2 2752.34   33.94
  -1  -1   2 2851.77   35.17
   1   1  -2 2760.12   34.01
  -1   1   2 2762.19   33.62
   1  -1  -2 2690.73   32.67
  -1   1  -2 2860.44   34.80
  -1  -1   2 2610.93   32.24
   1  -1   2 2663.89   32.53
   1  -1  -2 2735.74   33.64
  -1   1   2 2726.45   33.59
  -1  -1  -2 2707.49   33.16
   1   1   2 2719.59   33.49
  -1   1  -2 2616.17   31.67
   1  -1   2 2660.94   31.94
   1   1   2 2660.04   31.10
  -1   1  -3   -0.57    2.37
  -1  -1  -3    0.69    2.15
  -1  -1   3    1.50    3.79
  -1   1   3    2.52    3.26
   1   1  -3    4.01    2.37
  -1   1  -3    2.24    2.59
   1  -1  -3    0.35    2.85
  -1  -1  -3    1.76    1.39
   1   1   3    2.24    0.73
  -1   1  -3    1.86    1.98
   1  -1   3    1.34    1.63
  -1  -1  -3    1.20    0.56
  -1   1  -4    7.46    3.62
  -1  -1  -4   10.11    2.90
  -1  -1   4    7.21    3.65
  -1   1   4    3.17    3.10
   1   1  -4    9.48    4.70
  -1   1  -4    7.87    4.50
   1  -1  -4   13.77    4.92
  -1  -1  -4    9.43    3.28
  -1  -1  -4    6.13    0.97
  -1   1  -4   11.45    2.92
   1  -1   4    7.30    2.19
  -1   1  -5 1832.20   26.13
  -1  -1  -5 1879.14   27.53
  -1  -1   5 1834.53   26.66
  -1   1   5 1887.25   27.24
   1   1  -5 1853.73   26.93
  -1   1  -5 1893.97   26.83
   1  -1  -5 1843.70   26.97
  -1  -1  -5 1834.24   26.93
  -1   1  -5 1854.23   23.82
  -1  -1  -6  114.48   12.69
  -1  -1   6  114.38   11.00
  -1   1   6  116.86   12.76
   1  -1   6  108.53    7.60
   1   1  -6  128.42   15.31
  -1   1  -6  113.45    7.40
   1  -1  -6  122.64   14.54
  -1  -1  -6  112.39    8.10
  -1   1  -6  114.35    7.94
  -1  -1  -7 1202.71   21.35
  -1  -1   7 1249.22   21.66
  -1   1   7 1257.27   21.63
   1  -1   7 1220.96   27.35
  -1   1  -7 1248.23   21.29
  -1  -1  -7 1219.52   22.38
  -1   1  -7 1242.45   18.87
  -1  -1  -8  140.40   10.83
  -1  -1   8  148.64    8.54
  -1   1   8  132.10    7.59
   1  -1   8  128.60    7.17
   1   1  -8  146.12   11.26
  -1   1  -8  126.71    9.93
   1  -1  -8  126.76    7.46
  -1  -1  -8  146.87   14.92
  -1   1  -8  139.21    5.21
  -1  -1   9  297.93   12.32
  -1   1   9  284.07   13.47
   1  -1   9  282.46   12.32
   1   1  -9  294.85   12.08
  -1   1  -9  285.36   11.66
   1  -1  -9  268.30   11.07
  -1  -1  -9  299.71   18.18
  -1   1  -9  284.86    9.36
  -1  -1  10    2.51    4.31
  -1   1  10   10.86    3.32
   1  -1  10    6.93    3.75
   1   1  10    7.79    4.53
   1   1 -10    7.92    5.49
  -1   1 -10    9.39    5.34
   1  -1 -10    8.46    4.90
  -1  -1 -10    2.93    2.29
  -1   1 -10    5.00    1.96
  -1  -1  11 2649.97   86.61
  -1   1  11 2580.15   84.05
   1  -1  11 2689.62   88.47
   1   1  11 2511.00   89.56
   1   1 -11 2444.40   87.40
  -1   1 -11 2622.32   85.48
   1  -1 -11 2509.29   89.49
  -1  -1 -11 2475.46   91.94
  -1   1 -11 2616.19   82.33
  -1  -1 -11 2496.36   85.28
  -1  -1  12  461.28   27.33
  -1   1  12  455.58   20.24
   1  -1  12  492.27   21.80
   1   1  12  494.90   22.14
   1   1 -12  448.06   23.99
  -1   1 -12  450.19   26.23
   1  -1 -12  466.89   21.50
  -1  -1 -12  432.69   30.55
  -1   1 -12  448.34   16.96
  -1  -1 -12  434.93   14.73
  -1  -1  13  213.26   24.98
  -1   1  13  184.17   18.37
   1  -1  13  236.68   31.34
   1   1  13  225.25   14.79
   1   1 -13  236.39   23.23
  -1   1 -13  221.48   14.46
   1  -1 -13  228.55   17.90
  -1  -1 -13  214.18   13.89
  -1   1 -13  225.54   11.83
  -1  -1  14  244.28   18.11
  -1   1  14  229.49   15.66
   1  -1  14  237.38   15.31
   1   1  14  238.46   15.81
   1   1 -14  247.03   14.89
  -1   1 -14  216.57   14.09
   1  -1 -14  235.87   18.36
  -1  -1 -14  227.12   16.23
   1   1 -14  247.67   11.90
  -1  -1  15    1.51    4.93
  -1   1  15   18.65    8.68
   1  -1  15    9.27    7.48
   1   1  15   25.58    8.46
   1   1 -15   16.48    7.07
  -1   1 -15   27.77    9.23
   1  -1 -15   26.43    7.07
  -1  -1 -15   25.28    8.21
   1   1 -15   12.07    3.71
  -1  -1  16    9.64   10.11
  -1   1  16    7.57    7.37
   1  -1  16   13.44    8.04
   1   1  16    4.58    7.52
   1   1 -16    4.54    4.68
  -1   1 -16   11.26    5.28
   1  -1 -16   12.05    6.42
  -1  -1 -16    7.94    4.59
  -1  -1  17  350.71   54.51
  -1   1  17  300.15   19.72
   1  -1  17  303.05   30.17
   1   1  17  338.54   17.20
   1   1 -17  328.37   29.81
  -1   1 -17  298.92   14.50
   1  -1 -17  297.98   14.82
  -1  -1 -17  304.71   20.65
  -1  -1  18    3.93    8.56
  -1   1  18    1.86    4.71
   1  -1  18    5.07    7.31
   1   1  18    4.91    5.64
   1   1 -18    1.80    5.39
  -1   1 -18    4.48    5.24
   1  -1 -18   10.01    9.00
  -1  -1 -18   11.24    8.09
  -1  -1  19   11.07   10.89
  -1   1  19   29.82    9.83
   1  -1  19   25.93   11.10
   1   1  19   23.13   22.52
   1   1 -19   19.85    8.49
  -1   1 -19   22.07    8.18
   1  -1 -19   11.98    6.35
  -1  -1 -19   12.49    9.17
  -1  -1  20    4.63    6.48
  -1   1  20    8.36    6.93
   1  -1  20    1.99    7.11
   1   1  20    7.92    7.14
  -1   1 -20    9.33    7.72
   1   1 -20    5.98    5.47
  -1  -1 -20    6.69    5.24
   1  -1 -20   17.99    8.17
   0  -2   0   19.62    1.32
  -2   0   0   12.75    1.65
   2   0   0   10.09    1.51
   0   2   0   11.63    2.07
   0   2   0   15.18    3.41
   0  -2   0   10.55    2.86
   0  -2  -1   14.35    3.22
   0   2   1   15.58    2.39
  -2   0  -1    8.34    1.62
   2   0   1   14.04    2.59
  -2   0   1   19.96    5.30
   2   0  -1   17.13    4.08
   0  -2   1   14.43    2.85
   0   2  -1   15.12    3.13
   0  -2   1   14.11    2.83
   2   0  -1   16.95    3.45
  -2   0   1   13.38    2.35
   2   0   1   16.64    2.42
   0  -2  -1    8.19    1.44
   0   2   1   16.12    4.99
   0   2   1   13.27    3.71
   0  -2  -1   14.63    3.54
   0   2  -1   19.06    5.43
   0  -2   1   17.24    3.26
   0  -2  -2  359.60   15.70
  -2   0  -2  384.25   17.10
  -2   0   2  388.35   17.48
   0  -2   2  369.02   16.07
   0   2  -2  371.19   16.43
   2   0  -2  376.32   17.09
  -2   0  -2  368.21   16.15
   2   0   2  375.15   16.15
   0  -2  -2  390.02   17.56
   0   2   2  386.54   18.35
   0   2  -2  353.45   15.64
   0  -2   2  330.57   14.71
   0  -2  -3  472.49   21.28
  -2   0  -3  449.53   21.87
  -2   0   3  456.37   20.40
   0  -2   3  444.80   20.74
   0   2  -3  464.15   20.72
   2   0  -3  447.45   19.73
  -2   0  -3  453.51   20.22
   2   0   3  421.93   18.55
   0  -2  -3  462.88   21.03
   0   2   3  464.76   20.15
   2   0   3  440.05   18.84
   0  -2  -3  424.33   19.25
   0   2  -3  460.97   20.51
   0  -2  -4    1.43    2.34
  -2   0  -4    2.92    2.41
  -2   0   4    4.74    3.01
   0  -2   4    3.23    3.23
   0   2  -4    2.60    2.71
   2   0  -4    2.80    3.15
  -2   0  -4    1.25    2.50
   0  -2  -4    2.02    2.86
   0  -2  -4    1.84    1.11
   2   0   4    1.64    0.82
   0   2  -4    3.08    3.27
   0  -2  -5 3023.02   39.56
  -2   0  -5 3150.93   42.43
  -2   0   5 3185.10   42.10
   0  -2   5 3074.03   40.98
   0   2  -5 3082.64   40.72
   2   0  -5 3056.73   40.74
  -2   0  -5 3105.79   40.39
   0  -2  -5 3122.25   42.16
   0  -2  -5 3014.39   36.98
   0   2  -5 3056.65   39.29
   0  -2  -6 1976.96   29.07
  -2   0  -6 2046.39   30.06
   0  -2   6 1976.39   28.83
   0   2  -6 1970.62   30.93
   2   0  -6 1971.45   29.24
  -2   0  -6 1964.88   28.65
   0  -2  -6 1964.69   29.59
  -2   0  -6 2001.28   23.76
   0   2  -6 1919.23   26.56
  -2   0  -7  384.86   13.05
  -2   0   7  422.30   14.16
   0  -2   7  427.29   13.49
   0   2  -7  377.41   13.08
   2   0  -7  410.63   13.37
  -2   0  -7  397.10   12.93
   0  -2  -7  414.15   15.97
  -2   0  -7  387.03    8.76
   0   2  -7  409.08   12.17
  -2   0  -8    3.76    4.26
  -2   0   8    3.29    2.76
   0  -2   8   -0.39    5.45
   0   2   8    3.39    3.42
   0   2  -8    2.93    6.05
   2   0  -8    9.23    4.78
  -2   0  -8    2.32    2.44
   0  -2  -8    5.08    4.28
  -2   0  -8    0.79    0.76
   0   2  -8    2.90    2.89
  -2   0  -9  362.15   19.67
  -2   0   9  395.39   14.73
   0  -2   9  373.37   13.51
   0   2   9  390.52   13.92
   0   2  -9  369.48   13.79
   2   0  -9  408.06   14.83
  -2   0  -9  367.59   13.26
   0  -2  -9  369.30   14.36
  -2   0  -9  380.54    9.64
   0   2  -9  379.28   12.06
  -2   0 -10 2109.04   54.83
  -2   0  10 2126.06   54.44
   0  -2  10 2086.21   56.48
   0   2  10 2062.30   55.60
   0   2 -10 1976.70   50.96
   2   0 -10 2038.55   52.48
  -2   0 -10 2185.83   55.74
   0  -2 -10 2108.62   54.40
  -2   0 -10 2107.24   48.92
   0   2 -10 2117.31   52.44
  -2   0  11  828.91   39.93
   0  -2  11  898.83   35.35
   0   2  11  895.11   35.97
   2   0  11  852.69   34.12
   0   2 -11  896.16   35.44
   2   0 -11  879.71   35.35
  -2   0 -11  897.23   35.63
   0  -2 -11  842.74   33.74
   0   2 -11  873.20   33.19
  -2   0  12   15.16    7.01
   0  -2  12   29.34    8.97
   0   2  12   16.82    5.96
   2   0  12   10.93    6.41
   0   2 -12   10.83    4.42
   2   0 -12   17.93    7.06
  -2   0 -12   27.12    8.20
   0  -2 -12   21.03    5.59
  -2   0 -12   14.67    2.08
   0   2 -12   14.01    4.02
  -2   0  13    8.65    7.84
   0  -2  13    9.01    5.83
   0   2  13    4.36    5.97
   2   0  13   -0.36    6.24
   0   2 -13   14.81    6.33
   2   0 -13    1.98    4.69
  -2   0 -13   10.65    4.04
   0  -2 -13    6.80    5.37
   0   2 -13    4.17    2.83
  -2   0  14  155.36   14.55
   0  -2  14  138.78   13.68
   0   2  14  161.57   23.94
   2   0  14  140.45   32.61
   0   2 -14  150.09   12.38
   2   0 -14  129.98   13.10
  -2   0 -14  141.22   12.59
   0  -2 -14  127.79   11.97
   0   2 -14  132.83   11.26
  -2   0  15  188.23   12.49
   0  -2  15  170.63   38.41
   0   2  15  178.36   34.61
   2   0  15  187.64   28.87
   0   2 -15  165.15   31.16
   2   0 -15  207.03   30.93
  -2   0 -15  186.40   22.80
   0  -2 -15  186.18   17.26
  -2   0  16    3.84    4.91
   0  -2  16    9.50    7.07
   0   2  16   10.41    5.68
   2   0  16    0.73    5.47
   0   2 -16   11.55    6.95
   2   0 -16    9.01    6.59
  -2   0 -16   -1.40    5.41
   0  -2 -16    8.60    4.11
  -2   0  17   38.58   12.79
   0  -2  17   38.60    8.35
   0   2  17   33.68   10.07
   2   0  17   43.34   13.00
   0   2 -17   54.11   13.86
   2   0 -17   52.41   12.43
  -2   0 -17   48.93   18.26
   0  -2 -17   51.59   20.94
  -2   0  18  349.22   17.71
   0  -2  18  337.18   16.22
   0   2  18  304.06   23.24
   2   0  18  302.76   34.33
   0   2 -18  321.75   48.32
   2   0 -18  336.24   16.39
  -2   0 -18  299.76   22.08
   0  -2 -18  305.69   20.21
  -2   0  19    9.52    6.36
   0  -2  19   16.13    4.69
   0   2  19    7.81    7.10
   2   0  19   19.56    9.26
   2   0 -19    7.08    6.79
  -2   0 -19   16.29    9.52
   0  -2 -19    2.84    8.99
  -2   0  20    6.86    5.27
   0  -2  20    3.09    6.46
   0   2  20   13.96    8.91
   2   0  20    8.57    6.65
   0   2 -20   10.95    8.10
   2   0 -20    4.75    6.95
  -2   0 -20   15.83   10.24
   0  -2 -20    7.29   10.54
  -2   1   0 1108.86   14.40
  -1  -2   0 1136.38   15.04
   2   1   0 1106.06   15.21
   1   2   0 1098.00   14.52
   2  -1   0 1121.71   14.56
   2  -1   0 1158.51   14.24
   1  -2   0 1045.91   18.72
   1   2   0 1141.03   15.84
  -1   2   1 1759.23   21.14
   1  -2   1 1756.50   21.10
  -2   1  -1 1763.78   22.18
  -1  -2  -1 1740.56   22.55
   2  -1   1 1755.76   22.06
   1   2   1 1755.40   22.25
  -1  -2   1 1790.16   23.04
  -2   1   1 1788.62   22.29
   1   2  -1 1757.85   22.31
   2  -1  -1 1724.25   21.51
   1  -2   1 1756.22   21.07
  -1  -2   1 1745.72   22.49
   2   1  -1 1821.24   22.83
   2  -1   1 1783.08   21.45
  -2  -1   1 1786.80   22.82
   2  -1  -1 1781.35   22.42
  -2   1   1 1786.79   22.03
  -2  -1  -1 1822.85   22.42
   1  -2  -1 1811.71   23.12
  -1   2   1 1758.01   22.78
  -1  -2  -1 1795.74   23.34
   2   1   1 1788.32   21.89
   2  -1   1 1766.27   22.50
  -1   2   1 1776.78   23.08
   1  -2  -1 1765.06   26.15
  -1   2  -1 1811.80   23.45
   1  -2   1 1749.30   22.78
   1   2   1 1775.57   22.57
  -1  -2  -1 1758.89   22.70
   1   2  -1 1781.72   23.49
   1  -2   2 2915.04   35.29
  -2   1  -2 2962.30   36.65
   2  -1   2 2710.42   33.49
  -1  -2   2 2877.78   35.73
  -2   1   2 2722.18   33.64
   2  -1  -2 2918.92   35.84
  -1   2  -2 2818.38   35.01
   2   1  -2 2846.37   35.25
  -2  -1   2 2878.52   35.46
   2  -1   2 2703.88   32.70
  -2  -1  -2 2783.00   34.15
   1  -2  -2 2786.81   35.13
  -1  -2  -2 2937.89   36.55
  -2   1  -2 2932.04   35.75
   2  -1   2 2738.99   33.47
  -1   2  -2 2816.60   35.30
   1   2   2 2791.37   33.94
  -1  -2  -2 2948.83   35.65
  -2  -1  -3   94.26   11.86
  -2  -1   3  156.99    8.63
  -1  -2   3  116.52    6.78
  -2   1   3  115.31    8.31
  -1   2  -3  117.21    6.64
   2   1  -3  114.26    7.13
  -2  -1  -3  111.74    7.40
   1  -2  -3  119.88    9.03
  -2   1  -4  174.84   12.83
  -1  -2  -4  159.40   11.59
  -2  -1  -4  131.93    9.59
  -1  -2   4  171.94   13.70
  -2   1   4  166.85    8.97
  -1   2   4  167.49   13.30
   1  -2   4  178.98   11.57
   1   2  -4  162.53    9.15
  -1   2  -4  172.48   10.15
   2   1  -4  175.37    9.32
  -2   1  -4  156.50   10.06
   2  -1  -4  159.60   10.37
  -2  -1  -4  169.08    9.05
   1  -2  -4  193.64   11.69
  -1  -2  -4  159.21    8.66
   1   2   4  163.68    7.76
  -2   1  -4  169.19    9.67
   2  -1   4  174.14    8.68
  -1  -2  -4  150.07    6.92
  -1   2  -4  182.23   10.97
  -2   1  -5  305.87   16.39
  -1  -2  -5  307.87   19.02
  -2  -1  -5  257.35   13.21
  -1  -2   5  342.93   16.90
  -2   1   5  333.72   16.84
  -1   2   5  285.80   14.97
   1  -2   5  301.72   15.60
  -1   2  -5  327.34   17.90
   1   2  -5  288.26   14.28
   2   1  -5  341.23   16.79
  -2   1  -5  299.97   14.59
   2  -1  -5  313.14   15.52
  -2  -1  -5  346.46   17.06
   1  -2  -5  325.01   16.40
  -1  -2  -5  281.99   13.83
  -2   1  -5  284.40   12.75
  -1  -2  -5  284.89   12.44
  -1   2  -5  327.16   14.77
   2  -1   5  322.59   14.22
  -2   1  -6  580.97   16.99
  -1  -2  -6  574.55   12.41
  -2  -1  -6  515.84   17.42
  -1  -2   6  614.04   13.08
  -2   1   6  598.75   12.70
  -1   2   6  598.25   15.37
   1  -2   6  602.71   12.88
  -1   2  -6  616.89   12.96
   2   1  -6  621.78   13.58
  -2   1  -6  583.65   13.23
   2  -1  -6  583.56   13.58
  -2  -1  -6  608.45   13.43
   1  -2  -6  627.19   18.32
  -1  -2  -6  576.95   13.42
  -2   1  -6  580.57    9.00
  -1  -2  -6  576.42    8.54
  -1   2  -6  610.12   11.25
  -2   1  -7  431.95   13.69
  -1  -2  -7  453.49   13.95
  -2  -1   7  398.77   14.01
  -1  -2   7  397.35   12.86
  -2   1   7  407.20   12.83
  -1   2   7  467.81   14.33
   1  -2   7  470.37   14.60
   1   2  -7  451.10   14.45
  -1   2  -7  433.39   14.69
   2   1  -7  430.45   14.10
  -2   1  -7  440.62   14.01
   2  -1  -7  478.05   19.41
  -2  -1  -7  401.40   12.73
   1  -2  -7  427.76   14.22
  -1  -2  -7  450.94   14.39
  -1  -2  -7  424.17   10.01
  -1   2  -7  404.30   11.20
  -2   1  -8  130.95    9.17
  -1  -2  -8  135.76    8.75
  -2  -1  -8   87.52    8.66
  -2  -1   8  115.41    8.87
  -1  -2   8  108.00    8.11
  -2   1   8  108.99    6.93
  -1   2   8  127.37    7.26
   1  -2   8  140.81    8.67
   1   2  -8  127.36    7.62
  -1   2  -8   89.94    8.90
   2   1  -8  107.48    8.39
  -2   1  -8  135.09   14.11
   2  -1  -8  136.74   12.16
  -2  -1  -8  113.87    8.40
   1  -2  -8  100.95    7.67
  -1  -2  -8  127.56    8.42
  -1  -2  -8  107.64    3.92
  -1   2  -8   98.86    5.68
  -1  -2  -9  815.67   24.31
  -2  -1   9  720.85   22.43
  -1  -2   9  748.19   24.07
  -2   1   9  699.57   21.47
  -1   2   9  814.42   24.80
   1  -2   9  810.31   23.58
   1   2  -9  817.54   24.59
  -1   2  -9  730.27   22.41
   2   1  -9  725.25   22.75
  -2   1  -9  823.27   24.07
   2  -1  -9  786.77   30.95
  -2  -1  -9  706.80   22.85
  -1  -2  -9  818.16   24.26
  -1  -2  -9  745.82   18.29
  -1   2  -9  747.44   21.55
  -1  -2 -10  317.78   13.00
  -2  -1 -10  298.67   14.76
  -2  -1  10  297.56   14.27
  -1  -2  10  402.50   17.30
  -2   1  10  366.44   14.68
  -1   2  10  321.15   14.82
   1  -2  10  330.64   15.18
   2  -1  10  376.09   25.13
   1   2 -10  299.49   13.90
  -1   2 -10  372.63   14.01
   2   1 -10  374.36   20.48
  -2   1 -10  330.58   13.26
   2  -1 -10  337.93   13.68
  -2  -1 -10  368.66   17.02
   1  -2 -10  414.49   17.08
  -1  -2 -10  312.13   22.53
  -1   2 -10  380.49   15.35
  -2  -1 -11   90.34    7.87
  -2  -1  11  137.05   31.19
  -1  -2  11  135.08    9.93
  -2   1  11  117.62    9.52
  -1   2  11  134.68   21.18
   1  -2  11  161.53   24.02
   2  -1  11  140.37   25.28
   1   2  11  145.50   10.05
   1   2 -11  109.52   12.23
  -1   2 -11  130.91   20.84
   2   1 -11  120.63   11.55
  -2   1 -11  118.56    9.72
   2  -1 -11  129.99   10.06
  -2  -1 -11  125.46   13.45
   1  -2 -11  135.83   23.37
  -1  -2 -11  134.71   12.35
  -1  -2 -11  114.43    5.27
  -1   2 -11  139.69    9.51
  -2  -1  12  150.62   19.53
  -1  -2  12  147.82   12.00
  -2   1  12  144.74   10.56
  -1   2  12  161.37   15.62
   1  -2  12  142.09   13.16
   2  -1  12  146.41   10.88
   1   2  12  161.10   12.26
   2   1  12  142.39   13.81
   1   2 -12  133.92   32.73
  -1   2 -12  155.23   13.58
   2   1 -12  157.86   29.89
  -2   1 -12  147.02   10.17
   2  -1 -12  141.63   14.58
  -2  -1 -12  140.87   11.47
   1  -2 -12  147.66   12.01
  -1  -2 -12  146.69   12.53
  -1   2 -12  138.02   11.37
   1   2 -12  146.09   16.55
  -2  -1  13 1187.66   63.78
  -1  -2  13 1367.04   61.28
  -2   1  13 1344.54   60.08
  -1   2  13 1294.42   57.44
   1  -2  13 1264.30   56.34
   2  -1  13 1399.86   61.48
   1   2  13 1352.97   59.62
   2   1  13 1283.68   57.00
  -1   2 -13 1302.80   64.69
   1   2 -13 1318.69   57.89
   2   1 -13 1270.70   66.75
  -2   1 -13 1285.41   56.32
   2  -1 -13 1347.34   59.55
  -2  -1 -13 1362.58   59.39
   1  -2 -13 1291.15   65.62
  -1  -2 -13 1255.40   55.71
  -1   2 -13 1299.46   53.89
   1   2 -13 1294.04   55.26
  -2  -1  14  366.59   21.03
  -1  -2  14  356.04   18.82
  -2   1  14  363.03   18.84
  -1   2  14  381.12   18.49
   1  -2  14  398.85   19.67
   2  -1  14  325.79   28.79
   1   2  14  370.30   19.19
   2   1  14  391.98   21.37
   1   2 -14  404.06   20.61
  -1   2 -14  358.32   23.96
   2   1 -14  341.75   19.29
  -2   1 -14  380.81   19.25
   2  -1 -14  448.89   22.32
  -2  -1 -14  344.90   25.38
   1  -2 -14  337.46   19.63
  -1  -2 -14  397.03   19.60
  -1   2 -14  366.13   14.41
   1   2 -14  397.59   16.68
  -2  -1  15   12.61    7.26
  -1  -2  15   15.21   11.54
  -2   1  15   14.93    6.26
  -1   2  15    7.48    6.48
   1  -2  15    1.79    4.71
   2  -1  15   18.68    9.80
   1   2  15    8.82    7.81
   2   1  15    0.08    7.53
   1   2 -15    6.92    4.46
  -1   2 -15   21.46    9.66
   2   1 -15   20.64   11.61
  -2   1 -15    1.79    6.90
   2  -1 -15   10.89    7.80
  -2  -1 -15   19.91    6.73
   1  -2 -15   16.67    8.43
  -1  -2 -15    3.03    3.65
   1   2 -15    6.26    4.49
  -2  -1  16   50.21   14.79
  -1  -2  16   50.20   16.76
  -2   1  16   58.43   17.12
  -1   2  16   65.63   12.75
   1  -2  16   63.17   10.12
   2  -1  16   52.73   18.50
   1   2  16   72.54   16.43
   2   1  16   49.03   18.00
  -1   2 -16   57.98   13.25
   1   2 -16   49.90   14.04
   2   1 -16   51.92   13.04
  -2   1 -16   53.17   15.82
   2  -1 -16   49.84   15.92
  -2  -1 -16   61.39   16.29
   1  -2 -16   55.68   18.53
  -1  -2 -16   45.22   14.34
  -2  -1  17   20.05   10.28
  -1  -2  17    8.56   12.55
  -2   1  17   26.71   10.22
  -1   2  17   24.51   11.04
   1  -2  17   36.87   13.79
   2  -1  17   21.74    6.87
   1   2  17   21.09    8.21
   2   1  17   39.32   18.44
  -1   2 -17   13.89    6.24
   1   2 -17   36.76    9.65
   2   1 -17   18.39    6.56
  -2   1 -17   40.36   12.13
   2  -1 -17   24.16   10.73
  -2  -1 -17   27.44   12.80
   1  -2 -17   11.31    6.46
  -1  -2 -17   24.61    4.59
  -2  -1  18  234.87   17.18
  -1  -2  18  246.45   18.58
  -2   1  18  270.59   15.99
  -1   2  18  254.64   19.63
   2  -1  18  254.32   53.24
   1   2  18  216.60   15.67
   2   1  18  260.73   18.24
  -1   2 -18  266.53   50.93
   1   2 -18  247.75   18.18
   2   1 -18  291.40   45.64
  -2   1 -18  231.28   27.55
   2  -1 -18  228.08   22.48
  -2  -1 -18  240.68   14.54
   1  -2 -18  246.25   15.92
  -1  -2 -18  248.67   16.18
  -2  -1  19  300.02   16.21
  -1  -2  19  381.38   17.39
  -2   1  19  315.08   25.53
  -1   2  19  326.55   37.78
   1  -2  19  303.71   16.22
   2  -1  19  342.11   18.77
   1   2  19  358.42   18.14
   2   1  19  360.34   43.74
   1   2 -19  352.31   25.82
  -1   2 -19  348.58   16.68
   2   1 -19  344.11   28.57
  -2   1 -19  356.10   18.18
   2  -1 -19  359.75   28.62
  -2  -1 -19  320.04   17.86
   1  -2 -19  298.54   27.88
  -1  -2 -19  339.04   17.46
  -2  -1  20   27.71   17.98
  -1  -2  20   29.35   14.93
  -2   1  20   27.53   16.76
  -1   2  20   34.79   13.76
   1  -2  20   31.32   21.81
   2  -1  20   53.10   13.57
   1   2  20   35.37   11.80
   2   1  20   45.50   27.40
   1   2 -20   48.38   11.40
  -1   2 -20   50.52   16.29
   2   1 -20   56.10   14.77
  -2   1 -20   74.22   19.39
   2  -1 -20   57.97   21.60
  -2  -1 -20   40.62   20.25
   1  -2 -20   27.78   16.32
  -1  -2 -20   29.46   27.88
  -2  -2   0  383.52   16.98
   2  -2   0  403.72   17.06
  -2   2   0  391.97   18.61
  -2   2  -1 7037.65   81.83
   2  -2   1 6902.28   80.14
  -2  -2  -1 6802.89   80.86
  -2  -2   1 7032.60   83.38
  -2   2   1 6915.70   80.37
   2  -2  -1 6739.90   78.26
  -2   2   1 6817.24   80.08
  -2  -2  -1 6954.86   82.09
  -2   2  -2 1089.90   16.35
   2  -2   2 1040.95   14.49
  -2  -2  -2 1081.36   16.81
  -2  -2   2 1041.92   15.93
  -2   2   2 1065.16   14.98
   2  -2  -2 1044.54   14.47
  -2   2  -2 1099.21   15.53
   2   2  -2 1079.24   17.11
   2  -2   2 1025.65   15.35
   2  -2  -2 1086.96   15.99
  -2  -2  -2 1080.48   17.35
  -2   2  -2 1052.42   15.64
  -2   2  -3  393.63   19.23
  -2  -2  -3  384.83   18.25
  -2  -2   3  350.35   16.19
  -2   2   3  373.21   16.78
  -2   2  -3  366.86   17.79
   2   2  -3  380.58   17.54
   2  -2  -3  379.36   18.60
  -2  -2  -3  371.52   17.07
  -2   2  -3  368.46   17.49
   2   2   3  388.62   16.87
  -2   2  -4  203.80   10.90
  -2  -2  -4  198.96   13.02
  -2  -2   4  188.11   11.00
  -2   2   4  201.20   11.54
  -2   2  -4  199.16   10.58
   2   2  -4  194.29   10.11
   2  -2  -4  213.87   11.49
  -2  -2  -4  188.69    9.85
  -2   2  -4  204.89   11.31
   2   2   4  202.76    9.62
  -2   2  -5   73.31    9.36
  -2  -2  -5   77.65    6.47
  -2  -2   5   82.98    7.65
  -2   2   5   79.83    7.51
   2   2  -5   78.97   11.05
  -2   2  -5   66.69    5.42
   2  -2  -5   86.16    9.30
  -2  -2  -5   75.27    6.48
   2   2   5   68.73    3.36
  -2   2  -5   66.17    5.19
  -2   2  -6  467.14   22.47
  -2  -2  -6  477.52   22.59
  -2  -2   6  462.19   22.07
  -2   2   6  485.82   15.14
   2   2  -6  468.92   22.30
  -2   2  -6  493.22   15.46
   2  -2  -6  479.61   22.65
  -2  -2  -6  449.52   21.23
  -2   2  -6  474.12   21.45
  -2   2  -7  652.94   19.78
  -2  -2  -7  595.96   17.48
  -2  -2   7  633.99   18.05
  -2   2   7  636.80   17.99
   2   2  -7  634.58   18.24
  -2   2  -7  667.32   26.18
   2  -2  -7  638.34   26.03
  -2  -2  -7  636.50   18.11
  -2   2  -7  618.19   15.56
  -2  -2  -8   25.57    7.13
  -2  -2   8   29.64    7.75
  -2   2   8   36.68    7.99
   2  -2   8   31.30    7.31
   2   2  -8   26.63    7.91
  -2   2  -8   30.34   10.20
   2  -2  -8   30.79    4.60
  -2  -2  -8   37.18    8.35
  -2   2  -8   29.78    7.09
  -2  -2  -9    1.47    4.20
  -2   2   9    7.27    5.16
   2  -2   9    2.22    3.24
   2   2  -9    1.93    5.75
  -2   2  -9    2.87    4.82
   2  -2  -9    4.12    3.18
  -2  -2  -9    2.85    1.94
  -2   2  -9    4.29    1.52
  -2  -2 -10   62.05    8.64
  -2  -2  10   46.48   13.16
  -2   2  10   53.50   14.82
   2  -2  10   64.82   12.04
   2   2 -10   55.70   19.96
  -2   2 -10   48.78    8.47
   2  -2 -10   53.03   13.93
  -2  -2 -10   60.09   15.03
  -2   2 -10   44.28    9.41
  -2  -2 -11  301.44   16.09
  -2  -2  11  293.35   15.65
  -2   2  11  304.73   15.73
   2  -2  11  298.01   15.27
   2   2 -11  274.42   14.69
  -2   2 -11  277.57   25.03
   2  -2 -11  317.65   16.80
  -2  -2 -11  290.06   20.29
  -2   2 -11  283.41   12.76
  -2  -2 -12  928.55   35.79
  -2  -2  12  996.21   37.37
  -2   2  12  960.98   50.74
   2  -2  12  970.45   35.72
   2   2 -12  966.42   36.99
  -2   2 -12  963.85   35.75
   2  -2 -12  933.96   36.06
  -2  -2 -12  965.58   37.31
  -2   2 -12  960.58   31.63
  -2  -2  13  880.37   33.14
  -2   2  13  871.77   32.10
   2  -2  13  863.16   46.07
   2   2  13  864.65   32.61
   2   2 -13  860.35   32.50
  -2   2 -13  872.40   31.90
   2  -2 -13  825.38   32.39
  -2  -2 -13  821.23   30.24
  -2   2 -13  826.67   26.67
  -2  -2  14   49.59   17.60
  -2   2  14   56.38   18.04
   2  -2  14   62.21   17.06
   2   2  14   54.22   20.00
   2   2 -14   53.59   16.27
  -2   2 -14   51.92   12.72
   2  -2 -14   66.35   16.69
  -2  -2 -14   51.38   16.74
  -2  -2  15  151.24   24.15
  -2   2  15  165.12   23.14
   2  -2  15  123.89   17.94
   2   2  15  119.60   23.04
   2   2 -15  147.31   30.60
  -2   2 -15  141.22   13.08
   2  -2 -15  147.20   17.94
  -2  -2 -15  127.40   36.52
   2   2 -15  117.69   19.48
  -2  -2  16  426.77   20.86
  -2   2  16  435.70   21.04
   2  -2  16  421.41   18.89
   2   2  16  463.87   20.61
  -2   2 -16  485.27   22.34
   2   2 -16  420.16   19.16
   2  -2 -16  414.58   19.62
  -2  -2 -16  442.34   18.84
   2   2 -16  409.64   17.57
  -2  -2  17   94.90   32.99
  -2   2  17  122.00   38.35
   2  -2  17  126.35   28.90
   2   2  17  103.59   31.69
   2   2 -17  154.20   31.68
  -2   2 -17  132.45   36.06
   2  -2 -17  105.97   35.42
  -2  -2 -17  119.21   38.31
  -2  -2  18   32.21   14.00
  -2   2  18   27.81   12.57
   2  -2  18   39.92   13.97
   2   2  18   22.31    9.53
   2   2 -18   28.03   11.66
  -2   2 -18   14.97   11.36
   2  -2 -18   28.56   11.38
  -2  -2 -18   53.66   18.52
  -2  -2  19   48.65   15.32
  -2   2  19   47.54   16.60
   2  -2  19   35.10   15.21
   2   2  19   46.70   15.49
   2   2 -19   54.17   18.29
  -2   2 -19   47.58   21.83
   2  -2 -19   42.02   19.94
  -2  -2 -19   44.94   22.07
  -2  -2  20   85.12   31.76
  -2   2  20   92.43   34.74
   2  -2  20   74.58   31.20
   2   2  20   71.31   33.10
   2   2 -20   92.47   35.58
  -2   2 -20   77.89   30.30
   2  -2 -20   98.54   24.66
  -2  -2 -20   54.61   28.89
   0  -3   0    5.39    1.64
  -3   0   0    2.29    2.70
   0   3   0    6.84    1.95
   3   0   0    0.23    0.38
  -3   0   0    1.02    0.82
   0   3   0    6.34    3.44
   0   3   1    7.58    2.32
  -3   0  -1    5.57    3.04
  -3   0   1    7.83    4.09
   0  -3   1    8.88    2.55
   0   3  -1    7.27    1.73
   3   0  -1    2.49    1.83
  -3   0   1    2.26    1.67
  -3   0  -1    3.57    0.88
   3   0   1    4.59    0.78
   0  -3  -1   10.08    3.46
   0   3   1    7.89    3.00
   0   3  -1    6.58    4.37
   0  -3  -2  221.62   10.64
   0   3   2  205.68    9.70
  -3   0  -2  221.55   10.83
  -3   0   2  214.42   10.86
   0  -3   2  217.81   10.60
   0   3  -2  210.82   11.28
   0   3  -2  206.14   11.17
   3   0  -2  227.74   12.39
  -3   0   2  211.56   10.45
   3   0   2  218.18    9.78
   0  -3  -2  185.63    9.82
   0   3   2  218.38   11.78
   0   3  -2  210.70   13.20
   0  -3  -3  467.74   21.71
  -3   0  -3  487.85   13.55
  -3   0   3  462.79   22.50
   0  -3   3  467.87   20.60
   0   3  -3  480.98   13.47
   3   0  -3  479.80   22.03
  -3   0  -3  486.96   12.55
   3   0   3  472.03   20.63
   0  -3  -3  502.74   11.57
   0   3   3  460.92   20.90
   0   3  -3  458.93   20.80
   0  -3  -4   30.91    7.61
  -3   0  -4   25.70    5.10
  -3   0   4   23.25    7.87
   0  -3   4   26.45    7.64
   0   3  -4   18.68    6.67
   3   0  -4   24.26    5.77
  -3   0  -4   24.32    5.52
   0  -3  -4   30.01   10.58
   0   3   4   21.79    4.68
   3   0   4   21.08    4.30
   0   3  -4   21.81    5.42
   0  -3  -5 2553.05   34.69
  -3   0  -5 2501.66   34.87
  -3   0   5 2571.70   35.50
   0  -3   5 2562.93   35.99
   3   0  -5 2608.39   37.53
  -3   0  -5 2521.58   33.61
   0  -3  -5 2524.00   35.78
   3   0   5 2432.48   29.21
   0   3  -5 2566.15   34.76
   0  -3  -6 1209.64   21.54
  -3   0  -6 1183.83   20.28
  -3   0   6 1223.48   25.43
   0  -3   6 1207.38   24.05
   0   3  -6 1227.62   21.12
   3   0  -6 1243.28   21.00
  -3   0  -6 1223.81   20.23
   0  -3  -6 1207.33   23.68
   3   0   6 1166.70   14.51
   0   3  -6 1238.34   20.61
   0  -3  -7  668.91   18.40
  -3   0  -7  672.03   22.69
  -3   0   7  684.13   26.68
   0  -3   7  659.19   20.40
   0   3  -7  677.12   19.43
   3   0  -7  686.32   20.71
  -3   0  -7  650.56   17.94
   0  -3  -7  679.78   19.42
   0   3  -7  687.18   18.60
   0  -3  -8  210.10   10.52
  -3   0  -8  201.46   11.85
  -3   0   8  197.47    9.11
   0  -3   8  195.17   11.70
   0   3  -8  193.77   10.91
   3   0  -8  188.22    8.83
  -3   0  -8  202.89    9.18
   0  -3  -8  180.67    9.80
   0   3  -8  203.01   10.63
  -3   0  -9    3.37    2.73
  -3   0   9    6.32    3.48
   0  -3   9    9.97    5.15
   0   3   9   -3.74    4.14
   0   3  -9    4.68    6.08
   3   0  -9    6.15    4.05
  -3   0  -9    4.91    3.02
   0  -3  -9    7.56    4.26
   0   3  -9    4.46    2.78
  -3   0 -10  490.21   21.64
  -3   0  10  533.33   23.75
   0  -3  10  526.36   22.28
   0   3  10  513.91   22.22
   0   3 -10  495.91   27.51
   3   0 -10  507.75   22.44
  -3   0 -10  523.88   24.11
   0  -3 -10  528.81   22.93
   0   3 -10  500.23   20.48
  -3   0 -11  319.52   28.94
  -3   0  11  332.08   17.30
   0  -3  11  339.05   22.19
   0   3  11  306.10   22.20
   0   3 -11  323.57   20.03
   3   0 -11  327.68   24.53
  -3   0 -11  306.72   15.57
   0  -3 -11  316.23   17.12
   0   3 -11  324.63   14.31
  -3   0 -12    8.76    7.46
  -3   0  12    8.63    8.29
   0  -3  12    2.56    7.87
   0   3  12   10.59    6.82
   0   3 -12   11.70    7.12
   3   0 -12    9.43    3.51
  -3   0 -12    9.40    6.27
   0  -3 -12    3.50    4.17
   0   3 -12    9.78    5.45
  -3   0  13  180.12   32.88
   0  -3  13  154.89   25.84
   0   3  13  163.49   18.07
   3   0  13  146.70   19.93
   0   3 -13  143.84   15.75
   3   0 -13  172.93   26.83
  -3   0 -13  144.53   16.28
   0  -3 -13  159.21   27.24
   0   3 -13  152.83    8.76
  -3   0  14  494.31   22.98
   0  -3  14  473.95   30.02
   0   3  14  468.49   22.59
   3   0  14  493.35   28.09
   0   3 -14  485.29   23.77
   3   0 -14  521.85   25.44
  -3   0 -14  471.75   24.25
   0  -3 -14  528.21   25.58
   0   3 -14  513.42   20.96
  -3   0  15   -1.17    7.85
   0  -3  15    3.79    8.50
   0   3  15   24.21   15.86
   3   0  15    8.07    6.48
   0   3 -15   14.32    6.90
   3   0 -15   11.38    6.53
  -3   0 -15    5.35    3.95
   0  -3 -15    8.49    4.71
   0   3 -15    2.15    2.65
  -3   0  16   20.03    9.04
   0  -3  16    4.87    5.89
   0   3  16   34.73   10.57
   3   0  16   15.54   11.05
   0   3 -16   37.65   19.68
   3   0 -16   10.66    5.48
  -3   0 -16   25.70    6.99
   0  -3 -16   15.50    8.65
  -3   0  17   55.29   21.12
   0  -3  17   78.36   24.86
   0   3  17   74.28   27.11
   3   0  17   63.47   20.26
   0   3 -17   88.18   20.24
   3   0 -17   66.50   19.91
  -3   0 -17   90.30   20.25
   0  -3 -17   75.37   24.85
  -3   0  18  692.01   48.32
   0  -3  18  710.57   37.85
   0   3  18  775.75   23.53
   3   0  18  730.83   49.70
   0   3 -18  767.36   22.57
   3   0 -18  730.88   38.84
  -3   0 -18  723.57   49.36
   0  -3 -18  821.57   24.26
  -3   0  19   65.33   28.18
   0  -3  19   54.72   28.80
   0   3  19   51.90   29.03
   3   0  19   58.97   24.01
   0   3 -19   75.64   17.36
   3   0 -19   78.48   24.74
  -3   0 -19   80.28   16.39
   0  -3 -19   58.44   31.68
  -3   0  20   10.25    9.91
   0  -3  20    6.64    4.67
   0   3  20    7.35    4.65
   3   0  20    6.69    2.45
   0   3 -20   10.33    8.91
   3   0 -20   14.17    8.93
  -3   0 -20    8.35    6.71
   0  -3 -20    6.34   10.54
  -1  -3   0 7606.11  159.64
  -3   1   0 7559.19   88.92
  -3  -1   0 7578.36   90.37
   3  -1   0 7430.09   87.37
   1   3   0 7938.98  168.56
  -3  -1   0 7458.80   86.70
   3  -1   0 7630.54  159.22
  -1   3   0 7564.83   90.33
   1   3   0 7928.88  167.04
   1  -3  -1 1931.49   23.18
  -1   3   1 1899.40   22.84
  -1  -3  -1 1912.25   24.76
  -3   1  -1 1922.02   25.02
  -3  -1  -1 1910.37   26.31
   1   3   1 1927.39   24.82
  -3  -1   1 1919.84   26.59
  -3   1   1 1971.30   25.73
  -1  -3   1 1922.81   24.80
   1   3  -1 1873.10   26.46
   1  -3   1 1889.30   22.71
  -1   3  -1 1911.86   22.94
   3  -1   1 1947.20   23.17
  -3  -1   1 1927.29   24.58
   3  -1  -1 1925.25   23.94
  -3   1   1 1944.24   24.02
  -3  -1  -1 1996.79   24.63
   1  -3  -1 1967.53   26.25
  -1  -3  -1 1940.27   26.55
  -1   3   1 1898.33   25.99
  -1   3  -1 1955.71   26.63
   1   3   1 1946.24   26.01
   1   3  -1 1909.06   27.65
   1  -3   2  544.81    8.45
   1  -3  -2  527.97    8.60
  -1   3   2  586.12   10.62
  -3   1  -2  594.57   11.31
  -3  -1  -2  525.84   11.64
  -3  -1   2  568.00   11.48
  -3   1   2  522.78    9.85
  -1  -3   2  530.76    9.68
   1  -3   2  581.41    8.98
   1   3  -2  584.14   12.84
   3   1  -2  518.49    9.10
  -3   1   2  517.89    8.93
  -3  -1  -2  537.43    8.97
   1  -3  -2  555.30   11.25
   3   1   2  567.93    8.91
  -1  -3  -2  575.93   11.57
  -1   3   2  582.04   12.28
  -1   3  -2  537.33   10.70
   1   3   2  534.20    9.66
   1   3  -2  589.29   14.97
  -1  -3  -3  465.78   20.74
  -3   1  -3  471.69   22.23
  -3  -1  -3  499.11   16.48
  -3  -1   3  457.11   20.77
  -3   1   3  486.15   13.94
  -1  -3   3  485.94   12.85
   1  -3   3  456.19   20.06
  -1   3  -3  516.00   10.48
   1   3  -3  468.21   21.31
   3   1  -3  512.51   10.78
  -3   1  -3  474.78   20.68
   3  -1   3  488.87   14.08
   3  -1  -3  485.52   14.82
  -3  -1  -3  502.36    9.37
  -1  -3  -3  478.84   21.83
  -1   3   3  458.32   20.53
   3  -1   3  467.87   20.62
   1   3   3  503.44   10.98
  -1   3  -3  509.75   10.49
   1   3  -3  447.97   22.21
  -1  -3  -4  338.89   17.14
  -3   1  -4  349.62   17.11
  -3  -1  -4  332.75   18.25
  -3  -1   4  360.00   21.54
  -3   1   4  316.49   16.22
  -1  -3   4  320.22   15.22
   1  -3   4  360.27   16.93
  -1   3   4  370.25   17.41
  -1   3  -4  311.98   18.40
   1   3  -4  352.04   17.01
   3   1  -4  314.76   15.08
  -3   1  -4  360.67   16.29
   3  -1  -4  381.33   19.24
  -3  -1  -4  320.11   16.78
   1  -3  -4  306.80   15.99
  -1  -3  -4  362.95   17.47
   1   3   4  318.32   14.68
   3  -1   4  289.38   14.00
  -1   3  -4  300.57   14.36
   1   3  -4  333.84   15.89
  -1  -3  -5  676.34   13.94
  -3   1  -5  678.91   14.70
  -3  -1  -5  599.98   13.93
  -3   1   5  604.16   20.12
  -1  -3   5  610.91   14.73
  -1   3  -5  626.23   13.39
   3   1  -5  591.16   12.59
  -3   1  -5  668.15   12.85
   3  -1  -5  694.76   14.56
  -3  -1  -5  606.14   12.93
   1  -3  -5  605.61   13.60
  -1  -3  -5  664.88   14.31
  -3   1  -5  675.93   11.45
   1   3   5  603.09   11.19
  -1  -3  -5  664.41   11.49
  -1   3  -5  606.93   12.68
   1   3  -5  676.12   13.86
  -1  -3  -6 1220.94   22.37
  -3   1  -6 1231.60   21.28
  -3  -1  -6 1258.31   21.62
  -3  -1   6 1208.08   21.21
  -3   1   6 1260.38   22.11
  -1  -3   6 1271.51   24.59
   1  -3   6 1221.79   20.08
  -1   3   6 1226.21   21.62
  -1   3  -6 1283.11   22.67
   1   3  -6 1229.49   26.31
   3   1  -6 1236.51   20.63
  -3   1  -6 1219.29   26.53
   3  -1  -6 1178.74   24.14
  -3  -1  -6 1255.13   20.53
   1  -3  -6 1296.88   22.82
  -1  -3  -6 1203.82   21.55
  -1   3  -6 1225.23   19.21
   3  -1   6 1210.61   16.41
   1   3  -6 1200.54   20.61
  -1  -3  -7  159.71   14.30
  -3   1  -7  158.11    8.97
  -3  -1  -7  171.68    9.37
  -3  -1   7  147.99    8.00
  -3   1   7  180.34   10.76
  -1  -3   7  192.18   14.22
   1  -3   7  154.72    7.83
  -1   3   7  157.03    9.33
   1   3  -7  151.98   12.34
  -1   3  -7  166.06    7.76
   3   1  -7  193.52    9.56
  -3   1  -7  146.55    8.41
   3  -1  -7  146.34   12.38
  -3  -1  -7  176.94    8.25
   1  -3  -7  180.68    8.75
  -1  -3  -7  143.14    7.43
  -1   3  -7  176.72   11.01
   3  -1   7  155.43    8.40
   1   3  -7  155.52    7.44
  -1  -3  -8  176.67   12.42
  -3   1  -8  166.11    9.19
  -3  -1  -8  204.29   28.04
  -3  -1   8  143.96    8.18
  -3   1   8  189.02   18.46
  -1  -3   8  189.18    9.32
   1  -3   8  160.59    7.90
  -1   3   8  157.20    8.50
  -1   3  -8  198.53    9.03
   1   3  -8  153.74   27.00
   3   1  -8  191.84    9.45
  -3   1  -8  169.60    8.82
   3  -1  -8  186.48    9.87
   1  -3  -8  204.01   14.45
  -1  -3  -8  153.94    8.09
  -1   3  -8  204.04   10.02
   1   3  -8  157.75   12.37
  -1  -3  -9   60.00   17.35
  -3   1  -9   59.69   11.02
  -3  -1  -9   54.00   11.01
  -3  -1   9   64.10   15.72
  -3   1   9   68.70   15.51
  -1  -3   9   72.06   16.60
   1  -3   9   68.21   16.38
  -1   3   9   65.72   14.89
  -1   3  -9   61.96    5.75
   1   3  -9   68.97   15.26
   3   1  -9   57.39    7.60
  -3   1  -9   59.59   13.79
   3  -1  -9   81.04   20.87
  -3  -1  -9   82.73   19.32
   1  -3  -9   74.22   19.82
  -1  -3  -9   71.07   18.08
  -1  -3  -9   42.84    5.08
  -1   3  -9   56.65    4.71
   1   3  -9   70.78   13.57
  -1  -3 -10  959.68   37.34
  -3   1 -10  903.61   35.45
  -3  -1 -10  977.30   37.90
  -3  -1  10  902.40   35.74
  -3   1  10 1012.64   38.84
  -1  -3  10  956.32   43.69
   1  -3  10 1003.20   38.80
  -1   3  10  909.60   35.67
  -1   3 -10  900.84   35.10
   1   3 -10  898.27   35.31
   3   1 -10  907.36   35.27
  -3   1 -10  919.12   40.13
   3  -1 -10  932.37   36.01
  -3  -1 -10  944.82   40.21
  -1  -3 -10  941.53   36.88
  -3   1 -10  924.38   32.24
  -1  -3 -10  830.07   29.22
  -1   3 -10  988.90   36.56
   1   3 -10  952.78   35.57
  -3   1 -11  641.01   27.11
  -3  -1 -11  604.11   26.82
  -3  -1  11  634.30   40.21
  -3   1  11  634.32   27.06
  -1  -3  11  558.47   37.57
   1  -3  11  679.05   27.75
  -1   3  11  664.21   29.84
   1   3 -11  674.05   27.96
  -1   3 -11  542.39   23.34
   3   1 -11  564.33   24.85
  -3   1 -11  654.43   27.59
   3  -1 -11  634.09   26.75
  -3  -1 -11  618.43   27.03
   1  -3 -11  581.18   26.29
  -1  -3 -11  661.47   28.81
  -1   3 -11  603.08   24.77
   1   3 -11  641.82   25.93
  -3  -1 -12  495.16   29.72
  -3  -1  12  511.26   26.44
  -3   1  12  556.68   27.61
  -1  -3  12  568.29   33.51
   1  -3  12  475.71   23.99
  -1   3  12  478.24   24.20
   1   3  12  498.23   25.05
   3  -1  12  535.55   27.01
   1   3 -12  492.49   33.03
  -1   3 -12  538.61   32.23
   3   1 -12  519.34   26.19
  -3   1 -12  529.82   25.90
   3  -1 -12  493.23   25.20
  -3  -1 -12  530.27   27.24
   1  -3 -12  523.48   29.32
  -1  -3 -12  528.28   27.40
  -3   1 -12  455.27   18.77
  -1   3 -12  552.85   24.89
   1   3 -12  487.24   25.06
  -3  -1 -13   41.78   14.24
  -3  -1  13   55.12   16.67
  -3   1  13   37.85    9.63
  -1  -3  13   39.90   10.99
   1  -3  13   67.86   16.93
  -1   3  13   65.88   15.09
   1   3  13   42.62   11.60
   3  -1  13   48.34   14.02
  -1   3 -13   32.52    8.37
   1   3 -13   81.87   17.90
   3   1 -13   42.96   10.37
  -3   1 -13   52.82   18.65
   3  -1 -13   73.42   10.54
  -3  -1 -13   44.34   15.04
   1  -3 -13   38.07   13.52
  -1  -3 -13   60.00   16.94
  -1   3 -13   24.35    7.36
   1   3 -13   43.59    7.39
  -3  -1  14   54.98   16.50
  -3   1  14   43.77   10.25
  -1  -3  14   47.38   12.50
   1  -3  14   60.97    9.70
  -1   3  14   44.41   11.48
   1   3  14   38.64   10.31
   3  -1  14   32.40    9.20
   3   1  14   50.15   15.57
   1   3 -14   63.44   15.14
  -1   3 -14   39.54   11.00
   3   1 -14   47.39   13.09
  -3   1 -14   58.10   15.23
   3  -1 -14   43.71    7.70
  -3  -1 -14   52.03   13.31
   1  -3 -14   50.09    9.74
  -1  -3 -14   54.31   16.03
   1   3 -14   40.30   12.97
  -3  -1  15  317.23   17.81
  -3   1  15  307.35   22.06
  -1  -3  15  285.31   31.09
   1  -3  15  341.30   21.76
  -1   3  15  327.65   17.36
   1   3  15  268.53   27.68
   3  -1  15  307.07   18.30
   3   1  15  321.46   18.33
   1   3 -15  319.98   17.00
  -1   3 -15  301.64   31.24
   3   1 -15  285.56   22.41
  -3   1 -15  335.23   17.53
   3  -1 -15  339.39   18.61
  -3  -1 -15  296.39   17.13
   1  -3 -15  301.13   19.74
  -1  -3 -15  303.56   51.41
   1   3 -15  315.05   17.21
  -3  -1  16   76.36   26.56
  -3   1  16   74.38   28.41
  -1  -3  16   75.43   34.54
   1  -3  16   74.42   11.91
  -1   3  16   71.77   17.35
   1   3  16   68.81   16.44
   3  -1  16   57.65   24.15
   3   1  16   88.65   20.14
  -1   3 -16   80.87   19.93
   1   3 -16   97.19   23.72
   3   1 -16   75.49   13.90
  -3   1 -16   94.51   23.33
   3  -1 -16   77.91   13.14
  -3  -1 -16   70.21   16.90
   1  -3 -16   60.77   23.47
  -1  -3 -16   91.05   34.66
  -3  -1  17  205.80   26.41
  -3   1  17  229.89   13.76
  -1  -3  17  193.10   51.28
   1  -3  17  193.43   46.41
  -1   3  17  219.23   24.86
   1   3  17  216.37   22.36
   3  -1  17  187.58   17.49
   3   1  17  217.88   15.37
  -1   3 -17  243.12   14.11
   1   3 -17  218.16   36.29
   3   1 -17  235.15   43.79
  -3   1 -17  226.06   54.82
   3  -1 -17  224.76   29.70
  -3  -1 -17  234.42   15.13
   1  -3 -17  202.30   17.16
  -1  -3 -17  210.95   52.53
  -3  -1  18   76.38   34.01
  -3   1  18  103.96   21.69
  -1  -3  18  105.13   24.82
   1  -3  18   88.11   34.99
  -1   3  18   83.30   32.21
   1   3  18  104.92   37.25
   3  -1  18   80.25   21.06
   3   1  18   86.73   38.49
   1   3 -18  101.27   28.09
  -1   3 -18  128.54   25.58
   3   1 -18  120.44   37.49
  -3   1 -18  107.66   32.00
   3  -1 -18   73.85   33.92
  -3  -1 -18   98.10   34.69
   1  -3 -18  104.63   38.29
  -1  -3 -18   86.88   20.99
  -3  -1  19   20.77   13.52
  -3   1  19   28.80   10.73
  -1  -3  19   24.61    9.30
   1  -3  19   21.84    6.82
  -1   3  19   26.46   18.04
   1   3  19   27.38   13.69
   3  -1  19   31.06   15.24
   3   1  19   19.11   11.47
  -1   3 -19   28.84   15.62
   1   3 -19   51.00   12.53
  -3   1 -19   31.40    9.25
   3   1 -19   31.76   10.12
   3  -1 -19   26.05    9.76
  -3  -1 -19   21.94   10.62
   1  -3 -19   28.58   16.28
  -1  -3 -19   26.32    9.26
  -3  -1  20   52.46   25.15
  -3   1  20   64.60   20.37
  -1  -3  20   61.28   28.75
   1  -3  20   50.33   25.29
  -1   3  20   59.47   18.95
   1   3  20   70.54   28.30
   3  -1  20   74.78   25.94
   3   1  20   60.01   24.82
  -1   3 -20   79.79   24.52
   1   3 -20   91.93   25.34
   3   1 -20   93.92   20.49
  -3   1 -20   96.42   19.05
   3  -1 -20   56.82   33.96
  -3  -1 -20   62.32   17.03
  -1  -3 -20   62.43   18.26
   1  -3 -20   63.84   18.35
  -2   3   0   81.07    4.29
  -3   2   0   78.57    6.13
  -2  -3   0   86.14    9.39
  -3  -2   0   87.46   10.49
   3  -2   0   66.29    4.09
   2  -3   0   68.60    3.34
   3  -2   0   76.99    5.09
  -2   3   0   78.88   10.05
   2   3   0  102.49   16.24
   2  -3   1 4175.20   48.73
  -3   2  -1 4317.32   51.95
  -2  -3  -1 4136.78   51.15
  -3  -2  -1 4085.59   51.52
  -2  -3   1 3991.01   50.16
  -3   2   1 3957.94   47.61
   3  -2  -1 4169.36   50.08
   3  -2   1 3962.13   47.18
   3  -2  -1 4287.28   51.49
   2  -3  -1 4214.21   52.04
  -3  -2  -1 4067.46   49.25
  -2   3  -1 4074.15   51.15
   2   3   1 4025.43   50.08
  -2   3  -2  994.27   13.92
   2  -3   2  948.30   13.22
  -3   2  -2  995.21   14.82
  -2  -3  -2  955.58   15.34
  -3  -2  -2  992.48   16.92
  -3  -2   2  983.26   16.32
  -2  -3   2  970.18   15.36
  -3   2   2 1000.59   14.62
  -2   3   2  990.82   13.87
   2  -3  -2  942.23   13.26
   2   3  -2  961.22   15.57
  -3   2  -2  980.31   13.88
   3   2  -2  999.47   15.91
   3  -2   2  961.24   13.90
   3  -2  -2  999.93   15.15
   2  -3  -2  982.60   15.54
  -3  -2  -2 1001.38   16.09
  -2  -3  -2  974.55   15.51
  -2   3   2  968.18   16.01
  -3   2  -2  969.21   15.27
  -2   3  -2  967.24   19.50
   2   3   2  974.17   14.87
  -2   3  -3  750.84   14.03
  -3   2  -3  765.26   16.23
  -2  -3  -3  755.59   14.19
  -3  -2  -3  766.44   14.29
  -3  -2   3  785.74   14.61
  -2  -3   3  757.98   15.77
  -3   2   3  766.59   12.81
  -2   3   3  748.79   13.58
  -2   3  -3  779.48   13.59
   2   3  -3  778.76   15.84
  -3   2  -3  776.15   12.45
   3   2  -3  758.97   14.47
   3  -2  -3  771.25   13.60
   2  -3  -3  738.50   13.59
  -3  -2  -3  749.91   12.63
  -2  -3  -3  758.67   13.57
  -3   2  -3  735.52   12.62
  -2   3  -3  770.21   14.81
   2   3   3  748.72   11.70
  -3   2  -4  953.24   17.76
  -2  -3  -4  941.62   16.46
  -3  -2  -4  981.88   17.49
  -3  -2   4  925.46   16.54
  -2  -3   4  962.17   16.47
  -3   2   4  953.10   16.62
  -2   3   4  959.27   17.39
  -2   3  -4  939.23   16.67
   2   3  -4  942.12   16.74
  -3   2  -4  940.59   15.99
   3   2  -4  962.05   16.85
   3  -2  -4  941.44   18.38
  -3  -2  -4  965.47   16.81
   2  -3  -4  940.37   16.52
  -2  -3  -4  941.64   16.34
  -3   2  -4  955.00   15.57
  -2   3  -4  964.96   16.18
   2   3   4  971.33   14.04
  -3   2  -5  790.32   19.66
  -2  -3  -5  785.98   15.77
  -3  -2  -5  813.06   15.90
  -3  -2   5  799.49   15.71
  -2  -3   5  761.42   15.50
  -3   2   5  779.61   14.78
  -2   3   5  779.54   16.72
   2  -3   5  778.26   14.57
  -2   3  -5  790.20   14.74
   2   3  -5  803.76   15.69
  -3   2  -5  773.86   18.08
   3   2  -5  780.97   14.87
   3  -2  -5  759.45   15.65
  -3  -2  -5  782.48   15.52
   2  -3  -5  793.41   17.91
  -2  -3  -5  757.77   14.87
  -3   2  -5  781.04   13.01
   2   3   5  772.68   11.66
  -2   3  -5  772.44   15.77
   3   2   5  757.90   10.54
  -2  -3  -5  749.39   11.29
  -3   2  -6  879.45   28.98
  -2  -3  -6  858.43   22.84
  -3  -2  -6  917.66   24.45
  -3  -2   6  872.91   23.83
  -2  -3   6  874.45   22.66
  -3   2   6  869.98   22.42
  -2   3   6  879.77   25.73
   2  -3   6  867.70   22.58
  -2   3  -6  861.21   24.69
   2   3  -6  891.78   23.81
   3   2  -6  872.68   22.70
  -3   2  -6  843.48   25.53
   3  -2  -6  877.69   25.75
  -3  -2  -6  877.12   22.76
   2  -3  -6  908.78   25.22
  -2  -3  -6  883.88   23.46
   2   3   6  911.44   21.11
  -3   2  -6  860.75   20.49
   3   2   6  857.74   18.36
  -2   3  -6  886.32   21.86
  -2  -3  -6  847.47   19.15
  -3   2  -7  296.93   11.85
  -2  -3  -7  290.01   11.67
  -3  -2  -7  275.46   11.65
  -3  -2   7  304.86   11.94
  -2  -3   7  264.28   18.29
  -3   2   7  288.63   19.15
  -2   3   7  286.09   11.07
   2  -3   7  304.36   10.86
  -2   3  -7  250.88   14.40
   2   3  -7  285.71   10.91
   3   2  -7  274.28   12.08
  -3   2  -7  309.59   10.76
   3  -2  -7  295.45   11.39
  -3  -2  -7  253.41   11.27
   2  -3  -7  281.95   15.17
  -2  -3  -7  281.34   12.28
  -3   2  -7  304.93   10.22
  -2   3  -7  271.47   12.61
  -3   2  -8 1788.66   45.53
  -2  -3  -8 1795.42   42.93
  -3  -2  -8 1791.56   43.28
  -3  -2   8 1895.54   46.35
  -2  -3   8 1778.78   44.81
  -3   2   8 1791.41   42.65
  -2   3   8 1778.90   42.30
   2  -3   8 1889.26   44.62
   2   3  -8 1810.87   43.22
  -2   3  -8 1727.54   43.16
   3   2  -8 1725.96   41.38
  -3   2  -8 1847.03   47.23
   3  -2  -8 1804.78   43.04
  -3  -2  -8 1726.31   40.92
   2  -3  -8 1717.21   41.66
  -2  -3  -8 1806.88   43.64
  -3   2  -8 1863.75   41.27
  -2   3  -8 1775.32   40.57
  -3   2  -9  121.45   12.55
  -2  -3  -9  120.45    7.89
  -3  -2  -9  151.18   11.92
  -3  -2   9  113.74   10.81
  -2  -3   9  169.89   16.22
  -3   2   9  190.38   15.95
  -2   3   9  105.83    6.99
   2  -3   9  129.18   21.22
   2   3  -9  127.00   11.40
   3   2  -9  164.74   12.57
  -3   2  -9  117.26    6.99
   3  -2  -9  124.65    8.44
  -3  -2  -9  164.47    8.85
   2  -3  -9  146.68   13.25
  -2  -3  -9  126.96    8.35
  -3   2  -9  122.35    7.08
  -2   3  -9  154.44   10.15
  -2  -3 -10   21.28    6.40
  -3  -2 -10   26.41    8.50
  -3  -2  10   22.08    5.26
  -2  -3  10   24.17    8.25
  -3   2  10   24.29    6.87
  -2   3  10   23.02    6.05
   2  -3  10   19.01    6.16
   2   3 -10   23.01    9.21
  -2   3 -10   27.87    9.86
   3   2 -10   13.88    3.99
  -3   2 -10   12.39    3.88
   3  -2 -10   21.53    6.93
  -3  -2 -10   19.60    5.90
   2  -3 -10   31.23    8.69
  -2  -3 -10   22.17    7.60
  -3   2 -10   11.21    2.85
  -2   3 -10   27.41    5.86
  -2  -3 -11  136.59   13.89
  -3  -2 -11  121.14   15.37
  -3  -2  11  123.01   27.82
  -2  -3  11  120.41   28.40
  -3   2  11  128.56   28.36
  -2   3  11  123.78   11.42
   2  -3  11  115.94   10.79
   3  -2  11  107.64   14.70
   2   3 -11  139.66   32.03
  -2   3 -11  118.65   14.13
   3   2 -11  115.45   22.96
  -3   2 -11  113.96   18.06
   3  -2 -11  121.53   11.35
  -3  -2 -11  114.38    9.13
   2  -3 -11  117.36   10.91
  -2  -3 -11  102.74   10.25
  -3   2 -11  109.36    6.64
  -2   3 -11  117.08    7.55
  -2  -3 -12  771.35   37.54
  -3  -2 -12  732.18   38.21
  -3  -2  12  758.04   36.31
  -2  -3  12  734.29   37.01
  -3   2  12  747.37   45.08
  -2   3  12  737.99   35.20
   2  -3  12  712.59   35.89
   3  -2  12  756.01   35.98
   2   3 -12  730.34   46.81
  -2   3 -12  748.05   35.42
   3   2 -12  764.62   35.89
  -3   2 -12  725.49   34.91
   3  -2 -12  702.17   34.16
  -3  -2 -12  745.17   34.90
   2  -3 -12  741.99   42.24
  -2  -3 -12  703.28   33.13
  -2   3 -12  811.72   35.07
  -3  -2 -13  476.80   21.95
  -3  -2  13  514.61   32.74
  -2  -3  13  470.29   26.59
  -3   2  13  490.16   28.08
  -2   3  13  553.84   22.73
   2  -3  13  533.07   24.00
   3  -2  13  490.35   21.61
   2   3 -13  467.38   23.24
  -2   3 -13  451.80   19.52
   3   2 -13  472.14   31.44
  -3   2 -13  530.23   23.21
   3  -2 -13  543.62   37.26
  -3  -2 -13  462.31   22.19
   2  -3 -13  481.67   22.00
  -2  -3 -13  524.53   24.06
  -2   3 -13  460.50   19.12
   2   3 -13  549.70   21.75
  -3  -2  14   85.30   17.47
  -2  -3  14   79.91   30.52
  -3   2  14   85.64   28.53
  -2   3  14   67.46   16.77
   2  -3  14   73.79   21.60
   3  -2  14   89.38   13.26
   2   3  14   84.28   23.12
   2   3 -14   66.65   21.15
  -2   3 -14   71.66   17.68
   3   2 -14   91.77   24.07
  -3   2 -14   75.15   22.97
   3  -2 -14   85.45   19.04
  -3  -2 -14   85.10   18.99
   2  -3 -14   78.59   28.91
  -2  -3 -14   63.33   18.41
  -2   3 -14   67.78   10.20
   2   3 -14   55.99   20.21
  -3  -2  15  363.85   20.50
  -2  -3  15  288.98   22.25
  -3   2  15  366.77   20.49
  -2   3  15  326.35   31.73
   2  -3  15  332.79   40.13
   3  -2  15  328.86   23.17
   2   3  15  316.28   18.09
   3   2  15  348.91   20.32
   2   3 -15  341.69   24.67
  -2   3 -15  301.52   21.73
   3   2 -15  296.93   23.76
  -3   2 -15  343.29   17.19
   3  -2 -15  373.68   26.19
  -3  -2 -15  305.48   16.98
   2  -3 -15  288.06   24.95
  -2  -3 -15  348.99   18.40
   2   3 -15  312.93   15.07
  -3  -2  16  208.51   32.46
  -2  -3  16  197.71   45.64
  -3   2  16  224.71   26.33
  -2   3  16  200.70   16.40
   2  -3  16  196.09   24.71
   3  -2  16  202.27   37.67
   2   3  16  190.09   18.85
   3   2  16  220.89   15.77
   2   3 -16  237.30   48.76
  -2   3 -16  243.45   48.29
   3   2 -16  205.59   24.78
  -3   2 -16  196.48   17.98
   3  -2 -16  211.48   24.72
  -3  -2 -16  184.47   17.43
   2  -3 -16  197.95   24.41
  -2  -3 -16  200.13   13.09
   2   3 -16  181.03   10.34
  -3  -2  17  202.70   32.18
  -3   2  17  240.21   14.17
  -2   3  17  224.89   27.08
   2  -3  17  192.75   17.89
   3  -2  17  219.73   25.69
   2   3  17  233.00   14.31
   3   2  17  205.58   17.23
   2   3 -17  209.71   19.36
  -2   3 -17  247.36   28.73
   3   2 -17  256.83   49.46
  -3   2 -17  212.84   41.84
   3  -2 -17  244.70   51.58
  -3  -2 -17  221.06   21.47
   2  -3 -17  251.12   26.55
  -2  -3 -17  211.64   51.81
  -3  -2  18    6.78    6.18
  -2  -3  18   -4.17    8.35
  -3   2  18   13.62   10.32
  -2   3  18    8.21    5.17
   2  -3  18    8.91    5.33
   3  -2  18   17.81    7.84
   2   3  18    6.00   10.36
   3   2  18   10.84    6.40
  -2   3 -18   -0.15    6.95
   2   3 -18    7.79    5.97
   3   2 -18   10.80    9.53
  -3   2 -18   10.60    9.96
   3  -2 -18   10.23    4.64
  -3  -2 -18   11.80    5.19
   2  -3 -18   17.79    7.70
  -2  -3 -18    3.27    6.59
  -3  -2  19   62.64   17.61
  -2  -3  19   40.09   13.51
  -3   2  19   52.13   27.93
  -2   3  19   58.81   24.73
   2  -3  19   33.25   16.94
   3  -2  19   53.53   25.47
   2   3  19   51.51   23.65
   3   2  19   56.18   13.86
   2   3 -19   63.93   10.15
  -2   3 -19   49.57   19.15
   3   2 -19   66.96   16.63
  -3   2 -19   75.57   16.14
   3  -2 -19   33.20   23.17
  -3  -2 -19   48.53   26.72
   2  -3 -19   46.47   15.12
  -2  -3 -19   44.74   15.73
  -3  -2  20  178.46   14.56
  -2  -3  20  134.35   29.91
  -3   2  20  124.44   19.37
  -2   3  20  161.33   30.14
   2  -3  20  106.73   47.96
   3  -2  20  143.00   13.44
   2   3  20  180.39   19.90
   3   2  20  131.33   19.95
  -2   3 -20  164.58   46.18
   2   3 -20  152.84   33.47
   3   2 -20  196.65   42.29
  -3   2 -20  141.80   32.03
   3  -2 -20  168.50   23.63
  -3  -2 -20  157.94   21.23
   2  -3 -20  126.61   33.62
  -2  -3 -20  132.37   52.40
  -3  -3   0 9503.36  200.44
   3  -3   0 9999.98  209.78
  -3   3   0 9489.04  200.23
  -3   3  -1  855.86   12.18
  -3  -3  -1  833.15   15.37
   3  -3   1  789.13   11.08
  -3  -3   1  826.13   14.90
  -3   3   1  856.92   12.05
   3  -3  -1  824.47   11.62
   3  -3  -1  841.12   14.49
  -3   3  -1  844.67   15.01
  -3   3  -2 1014.90   15.91
   3  -3   2  933.83   13.38
  -3  -3  -2  972.60   16.79
  -3  -3   2  991.36   16.61
  -3   3   2  996.07   14.33
   3  -3  -2  950.87   13.55
   3   3  -2 1026.20   16.53
   3  -3  -2  999.02   15.93
  -3  -3  -2  966.31   15.47
  -3   3  -2  984.44   17.08
  -3   3  -3  458.32   21.16
  -3  -3  -3  474.41   21.80
  -3  -3   3  475.36   22.15
  -3   3   3  482.17   12.66
  -3   3  -3  478.80   21.48
   3   3  -3  470.46   21.36
   3  -3  -3  450.69   22.10
  -3  -3  -3  449.29   21.70
  -3   3  -3  459.62   20.92
   3   3   3  460.91   20.37
  -3   3  -4  654.25   14.49
  -3  -3  -4  627.96   13.80
  -3  -3   4  632.17   13.36
  -3   3   4  619.90   14.69
  -3   3  -4  616.71   14.94
   3   3  -4  653.53   13.43
   3  -3  -4  633.72   12.83
  -3  -3  -4  614.87   12.64
  -3   3  -4  604.56   13.93
   3   3   4  615.52   10.37
  -3   3  -5 1836.31   30.69
  -3  -3  -5 1841.82   28.09
  -3  -3   5 1837.98   27.95
  -3   3   5 1793.71   27.04
  -3   3  -5 1813.47   27.61
   3   3  -5 1854.66   28.02
   3  -3  -5 1744.28   26.64
  -3  -3  -5 1843.59   27.89
  -3   3  -5 1833.74   29.79
   3   3   5 1758.81   22.80
  -3   3  -6    7.35    4.04
  -3  -3  -6    5.27    3.51
  -3  -3   6    6.91    4.04
  -3   3   6    1.94    3.64
  -3   3  -6    2.84    4.72
   3   3  -6    2.86    3.56
   3  -3  -6    1.20    3.38
  -3  -3  -6    6.63    2.03
  -3   3  -6    3.87    3.35
   3   3   6    1.35    1.52
  -3   3  -7 1819.67   44.41
  -3  -3  -7 1690.82   40.74
  -3  -3   7 1760.57   41.79
  -3   3   7 1776.29   41.69
  -3   3  -7 1761.80   43.28
   3   3  -7 1748.67   41.44
   3  -3  -7 1747.29   42.43
  -3  -3  -7 1694.45   40.26
   3   3   7 1777.97   37.95
  -3   3  -7 1722.46   39.94
  -3  -3  -8  245.53   18.36
  -3  -3   8  233.95   10.80
  -3   3   8  235.62   11.48
  -3   3  -8  243.59   11.73
   3   3  -8  236.21   10.59
   3  -3  -8  279.62   21.65
  -3  -3  -8  240.72   12.58
  -3   3  -8  240.04   10.80
  -3  -3  -9  383.95   27.58
  -3  -3   9  357.07   21.89
  -3   3   9  370.57   14.54
   3  -3   9  349.35   13.30
  -3   3  -9  345.98   21.81
   3   3  -9  362.33   14.70
   3  -3  -9  378.94   15.47
  -3  -3  -9  360.16   14.37
  -3   3  -9  358.69   13.27
  -3  -3 -10  319.05   25.82
  -3  -3  10  268.16   14.11
  -3   3  10  279.16   14.08
   3  -3  10  277.50   14.28
   3   3 -10  270.58   21.72
  -3   3 -10  320.45   20.50
   3  -3 -10  303.80   16.38
  -3  -3 -10  278.24   14.53
  -3   3 -10  291.77   12.51
  -3  -3 -11   73.61   20.32
  -3  -3  11   59.98   24.81
  -3   3  11   69.33   16.47
   3  -3  11   70.91   15.55
   3   3 -11   80.07   19.17
  -3   3 -11   70.75   22.78
   3  -3 -11   59.47   13.12
  -3  -3 -11   77.76   17.99
  -3   3 -11   57.87   11.52
  -3  -3 -12 1378.43   60.51
  -3  -3  12 1368.23   60.05
  -3   3  12 1370.80   59.55
   3  -3  12 1353.48   58.85
   3   3 -12 1432.71   62.75
  -3   3 -12 1418.93   62.20
   3  -3 -12 1344.69   58.91
  -3  -3 -12 1339.21   58.40
  -3   3 -12 1352.86   56.74
  -3  -3 -13   -1.22    6.53
  -3  -3  13    3.59    7.28
  -3   3  13   -0.04    5.78
   3  -3  13    2.71    4.61
   3   3 -13   -2.08    6.44
  -3   3 -13    8.35    5.22
   3  -3 -13    8.79    3.74
  -3  -3 -13    3.33    3.10
  -3   3 -13    2.14    2.52
  -3  -3 -14   54.84   16.27
  -3  -3  14   39.77    9.39
  -3   3  14   37.68   11.53
   3  -3  14   62.68   17.01
  -3   3 -14   73.09   19.15
   3   3 -14   58.22   15.32
   3  -3 -14   69.26   23.39
  -3  -3 -14   66.57   16.31
  -3  -3  15   67.39   22.52
  -3   3  15   48.01    9.60
   3  -3  15   62.85   24.38
   3   3  15   50.00   14.48
  -3   3 -15   89.21   29.25
   3   3 -15   86.85   20.12
   3  -3 -15   49.84   13.99
  -3  -3 -15   61.92   19.21
   3   3 -15   41.57   13.77
  -3  -3  16  163.70   44.09
  -3   3  16  186.02   38.11
   3  -3  16  162.26   19.05
   3   3  16  162.41   42.53
   3   3 -16  200.74   43.10
  -3   3 -16  158.25   16.16
   3  -3 -16  183.89   19.38
  -3  -3 -16  153.77   18.57
   3   3 -16  156.07   15.33
  -3  -3  17    9.65    4.94
  -3   3  17    9.94   11.19
   3  -3  17    3.00    7.83
   3   3  17    3.56    5.03
  -3   3 -17   13.24    9.06
   3   3 -17    6.04    4.66
  -3  -3 -17    4.30    5.11
  -3  -3  18   32.03    8.65
  -3   3  18   39.33   13.85
   3  -3  18   31.48    8.06
   3   3  18   19.23   11.58
   3   3 -18   26.89    8.42
  -3   3 -18   36.61   13.84
   3  -3 -18   27.57    7.85
  -3  -3 -18   28.46    8.49
  -3  -3  19   29.65    9.39
  -3   3  19   32.01   13.41
   3  -3  19   47.48   14.69
   3   3  19   11.52   18.82
   3   3 -19   71.57   13.15
  -3   3 -19   37.33   23.25
   3  -3 -19   43.74   17.09
  -3  -3 -19   18.86   19.08
  -3  -3  20    5.08    9.00
  -3   3  20    3.57    5.57
   3  -3  20    4.31    5.36
   3   3 -20   11.40    5.05
  -3   3 -20    7.55    5.34
   3  -3 -20    5.08    7.69
  -3  -3 -20    6.62    6.01
   0  -4   0   10.72    2.42
   0   4   0    4.92    1.49
  -4   0   0    2.39    0.71
   0   4   0    2.22    1.92
   0  -4  -1 3842.94   46.14
   0   4   1 3612.92   43.33
  -4   0   1 3888.70   49.05
   0  -4   1 3780.54   45.31
   0   4  -1 3632.33   43.58
   4   0  -1 3733.30   44.29
  -4   0   1 3767.61   44.83
   0   4   1 3796.01   49.93
   0   4  -1 3913.25   50.30
   0  -4  -2  688.56   10.90
  -4   0  -2  642.19   12.70
  -4   0   2  698.18   13.08
   0  -4   2  680.74   10.83
   4   0  -2  669.75   11.68
  -4   0   2  649.59   10.50
   0  -4  -2  648.29   13.18
   0   4   2  668.35   13.75
   0   4  -2  672.27   17.04
   0  -4  -3 1404.40   19.84
  -4   0  -3 1391.33   21.69
  -4   0   3 1421.52   24.52
   0  -4   3 1432.95   19.93
   0   4  -3 1428.08   24.24
   4   0  -3 1425.61   20.17
  -4   0  -3 1420.10   19.42
   4   0   3 1371.56   18.58
   0  -4  -3 1381.11   22.74
   0   4   3 1421.68   20.87
   0   4  -3 1409.57   23.26
   0  -4  -4  621.86   11.87
  -4   0  -4  606.30   13.45
  -4   0   4  591.14   12.52
   0  -4   4  614.92   14.25
   0   4  -4  624.59   13.34
   4   0  -4  653.96   12.53
  -4   0  -4  619.11   12.03
   0  -4  -4  617.30   17.08
   0   4   4  640.15   13.50
   0   4  -4  620.60   14.28
   0  -4  -5  391.19   19.29
  -4   0  -5  368.83   19.62
  -4   0   5  377.02   19.51
   0  -4   5  374.45   17.62
   0   4  -5  393.97   18.95
   4   0  -5  398.42   21.87
  -4   0  -5  376.28   18.92
   0  -4  -5  390.12   19.23
   0   4   5  393.54   19.47
   4   0   5  349.22   15.97
   0   4  -5  377.69   22.98
   0  -4  -6 1101.54   26.96
  -4   0  -6 1067.57   29.86
  -4   0   6 1128.92   29.40
   0  -4   6 1156.84   28.61
   0   4  -6 1112.25   28.73
   4   0  -6 1161.86   29.55
  -4   0  -6 1102.71   27.03
   0  -4  -6 1165.35   29.51
   0   4  -6 1109.78   27.95
   0  -4  -7  431.06   14.53
  -4   0  -7  401.69   17.09
  -4   0   7  438.19   14.57
   0  -4   7  426.63   13.92
   0   4  -7  420.97   14.10
   4   0  -7  450.47   16.11
  -4   0  -7  419.61   16.16
   0  -4  -7  417.95   19.15
   4   0   7  406.08    9.56
   0   4  -7  422.62   14.12
   0  -4  -8   25.75    6.76
  -4   0  -8   26.85    6.79
  -4   0   8   18.79    6.55
   0  -4   8   29.03    8.47
   0   4  -8   34.49    8.86
   4   0  -8   23.40    5.78
  -4   0  -8   30.93    6.15
   0  -4  -8   28.67    9.90
   0   4  -8   31.89    7.62
  -4   0  -9   55.73   16.00
  -4   0   9   62.82   12.68
   0  -4   9   62.67   14.20
   0   4  -9   48.33   13.67
   4   0  -9   58.59   17.08
  -4   0  -9   50.73   12.34
   0  -4  -9   43.56    6.56
   0   4  -9   56.97   12.51
  -4   0 -10   33.07    7.86
  -4   0  10   51.51   13.10
   0  -4  10   42.20   10.74
   0   4  10   47.92    9.71
   0   4 -10   43.22   17.08
   4   0 -10   43.53    9.16
  -4   0 -10   42.05    7.82
   0  -4 -10   49.65   12.20
   0   4 -10   47.40   10.96
  -4   0 -11 1239.81   44.62
  -4   0  11 1271.78   48.03
   0  -4  11 1215.73   43.90
   0   4  11 1177.17   41.68
   0   4 -11 1265.41   47.42
   4   0 -11 1212.32   61.46
  -4   0 -11 1340.45   47.35
   0  -4 -11 1270.20   45.74
   0   4 -11 1290.95   44.97
  -4   0 -12  391.08   25.35
  -4   0  12  395.04   22.79
   0  -4  12  354.53   20.77
   0   4  12  348.73   22.88
   0   4 -12  359.38   23.83
   4   0 -12  370.77   21.66
  -4   0 -12  397.16   21.92
   0  -4 -12  365.79   20.48
  -4   0 -13  176.72   23.30
  -4   0  13  176.75   26.37
   0  -4  13  168.86   39.52
   0   4  13  181.48   19.60
   0   4 -13  192.10   12.61
   4   0 -13  190.88   38.68
  -4   0 -13  168.88   23.31
   0  -4 -13  148.58   11.72
   0   4 -13  176.32   17.70
  -4   0  14    4.34    6.10
   0  -4  14    4.24    5.87
   0   4  14    3.67    6.44
   0   4 -14    4.24    3.53
   4   0 -14    7.07    8.31
  -4   0 -14    7.43    3.30
   0  -4 -14   12.15    6.69
   0   4 -14    3.35    3.07
  -4   0  15  207.37   40.58
   0  -4  15  212.34   22.52
   0   4  15  202.53   16.90
   4   0  15  209.75   29.02
   0   4 -15  236.99   31.83
   4   0 -15  189.38   40.73
  -4   0 -15  187.35   16.64
   0  -4 -15  191.74   15.98
   0   4 -15  177.86   12.02
  -4   0  16  141.98   34.17
   0  -4  16  136.76   33.51
   0   4  16  115.46   26.61
   4   0  16  137.95   19.71
   0   4 -16  137.33   22.03
   4   0 -16  106.68   27.47
  -4   0 -16  127.13   35.70
   0  -4 -16  103.31   25.03
  -4   0  17  201.56   37.54
   0  -4  17  250.20   15.24
   0   4  17  211.26   51.68
   4   0  17  227.02   26.58
   0   4 -17  245.66   37.70
   4   0 -17  275.41   49.64
  -4   0 -17  220.02   13.13
   0  -4 -17  235.50   26.27
  -4   0  18    7.19    6.02
   0  -4  18    8.28    6.54
   0   4  18    8.60    3.34
   4   0  18   11.90    7.72
   0   4 -18    7.00    4.54
   4   0 -18    9.01    6.36
  -4   0 -18    7.34    5.95
   0  -4 -18   17.64   10.03
  -4   0  19   85.57   24.88
   0  -4  19   89.61   13.51
   0   4  19   91.60   41.22
   4   0  19   70.29   38.77
   0   4 -19  109.38   34.42
   4   0 -19   99.60   20.70
  -4   0 -19  109.24   26.27
   0  -4 -19   80.37   24.35
  -4   0  20   57.65   32.12
   0  -4  20   62.87   14.16
   0   4  20   64.20   32.97
   4   0  20   55.43   36.87
   0   4 -20   60.09   29.66
   4   0 -20   95.26   29.34
  -4   0 -20   82.80   23.54
   0  -4 -20   55.43   24.49
   1  -4   0  374.96   15.76
  -1  -4   0  353.43   15.70
  -4   1   0  354.48   16.16
  -4  -1   0  352.44   16.55
  -1   4   0  365.12   15.38
  -4  -1   0  351.71   15.10
   4  -1   0  359.26   15.16
  -1   4   0  378.30   20.98
   1   4   0  378.87   17.89
   1  -4  -1  133.47    6.55
  -1  -4  -1  125.55    6.74
  -1   4   1  123.35    5.99
  -4   1  -1  114.25    6.95
  -4  -1  -1  128.24    7.79
  -4  -1   1  115.58    7.33
  -4   1   1  129.41    9.90
  -1  -4   1  134.70    7.13
   1  -4   1  119.53    6.12
  -1   4  -1  127.71    5.93
   4   1  -1  130.49    6.76
  -4  -1   1  106.93    5.48
   4  -1  -1  109.58    6.05
  -4   1   1  117.51    6.16
   1  -4  -1  133.87    7.80
  -1   4  -1  126.46    9.25
   1   4   1  132.45    7.69
   1   4  -1  125.53   11.28
   1  -4  -2 1678.79   21.51
  -1   4   2 1695.87   21.69
  -1  -4  -2 1664.37   22.91
  -4   1  -2 1685.08   24.51
  -4  -1  -2 1672.23   24.56
  -4  -1   2 1678.06   24.94
  -4   1   2 1710.05   24.68
  -1  -4   2 1683.18   22.82
   1  -4   2 1693.52   21.66
  -1   4  -2 1648.21   21.06
   4   1  -2 1719.12   22.81
   4  -1  -2 1660.34   22.01
  -4   1   2 1696.81   22.32
  -4  -1  -2 1715.22   21.95
   1  -4  -2 1725.73   25.13
  -1  -4  -2 1669.99   24.67
   4   1   2 1654.51   20.90
  -1   4   2 1699.81   24.68
  -1   4  -2 1715.52   25.95
   1   4   2 1693.83   23.98
   1   4  -2 1683.86   25.28
   1  -4  -3  835.82   12.86
  -1  -4  -3  764.18   13.72
  -4   1  -3  760.39   14.07
  -4  -1  -3  847.30   17.11
   1  -4   3  753.76   12.17
  -1   4  -3  818.12   16.05
   1   4  -3  753.31   15.47
  -4   1  -3  766.62   11.52
   4  -1  -3  734.28   14.13
   4  -1   3  812.55   12.51
   1  -4  -3  847.69   15.59
  -1  -4  -3  739.41   14.63
  -1   4   3  731.67   16.46
  -1   4  -3  845.73   16.97
   1   4  -3  744.35   14.90
   1  -4  -4  517.03   10.29
  -4   1  -4  570.79   13.41
  -4  -1  -4  536.24   13.48
  -4  -1   4  568.74   12.34
  -4   1   4  540.34   15.82
  -1  -4   4  529.28   15.86
   1  -4   4  558.69   11.76
  -1   4  -4  527.42   12.36
   1   4  -4  453.56   25.80
   4   1  -4  503.85   11.16
  -4   1  -4  550.31   10.16
   4  -1  -4  550.89   13.53
  -4  -1  -4  506.52    9.84
   1  -4  -4  524.23   12.74
  -1  -4  -4  575.14   14.05
  -1   4   4  547.08   18.84
   1   4   4  550.05   15.97
  -1   4  -4  524.41   11.83
   1   4  -4  520.64   13.31
  -1  -4  -5  455.77   21.05
  -4   1  -5  481.35   15.16
  -4  -1  -5  436.14   31.22
  -4  -1   5  445.44   20.95
  -4   1   5  414.49   20.17
  -1  -4   5  440.36   21.29
   1  -4   5  457.41   21.74
  -1   4  -5  411.07   19.39
   1   4  -5  434.72   20.55
   4   1  -5  397.31   18.68
  -4   1  -5  467.35   22.20
   4  -1  -5  457.89   22.02
  -4  -1  -5  396.83   18.43
   1  -4  -5  420.67   24.20
  -1  -4  -5  440.90   20.85
   1   4   5  404.03   20.05
  -1   4  -5  426.17   20.00
   1   4  -5  439.26   20.66
  -1  -4  -6  737.13   21.19
  -4   1  -6  706.29   20.29
  -4  -1  -6  721.24   20.69
  -4  -1   6  688.47   19.53
  -4   1   6  658.66   19.54
  -1  -4   6  679.08   19.97
   1  -4   6  717.30   19.09
  -1   4   6  681.01   18.58
  -1   4  -6  669.80   18.48
   1   4  -6  681.40   24.03
   4   1  -6  658.23   18.46
  -4   1  -6  674.01   17.75
   4  -1  -6  726.07   21.58
  -4  -1  -6  705.46   20.04
   1  -4  -6  718.87   21.55
  -1  -4  -6  695.37   19.66
   4   1   6  685.29   15.69
   1   4   6  675.10   17.23
  -1   4  -6  656.17   18.65
   1   4  -6  709.05   19.53
  -1  -4  -7 1587.79   37.82
  -4   1  -7 1592.37   39.14
  -4  -1  -7 1562.52   41.62
  -4  -1   7 1509.27   41.40
  -4   1   7 1751.97   42.54
  -1  -4   7 1648.00   39.91
   1  -4   7 1631.98   39.38
  -1   4   7 1641.70   43.47
  -1   4  -7 1653.27   39.44
   1   4  -7 1642.88   42.15
   4   1  -7 1655.80   39.85
  -4   1  -7 1558.63   36.58
   4  -1  -7 1605.11   40.34
  -4  -1  -7 1615.83   38.12
   1  -4  -7 1633.07   39.69
  -1  -4  -7 1620.29   39.26
  -1   4  -7 1666.53   39.36
   1   4  -7 1630.34   38.73
  -1  -4  -8  203.30   15.15
  -4   1  -8  205.47   11.04
  -4  -1  -8  210.34   10.47
  -4  -1   8  215.17   14.68
  -4   1   8  200.18    9.58
  -1  -4   8  180.80   13.98
   1  -4   8  194.86   17.07
  -1   4   8  209.72   22.36
  -1   4  -8  180.55   16.93
   1   4  -8  184.17   17.49
   4   1  -8  195.69    9.76
  -4   1  -8  201.62   12.09
   4  -1  -8  205.87   10.72
  -4  -1  -8  213.88    9.70
   1  -4  -8  211.64   13.92
  -1  -4  -8  202.90   10.16
  -1   4  -8  203.02   10.10
   4  -1   8  194.46    6.55
   1   4  -8  195.29    9.24
  -1  -4  -9  576.40   19.35
  -4   1  -9  517.62   17.90
  -4  -1  -9  541.94   21.63
  -4  -1   9  548.85   19.14
  -4   1   9  567.98   19.02
  -1  -4   9  579.15   19.12
   1  -4   9  541.48   25.49
  -1   4   9  551.00   21.11
  -1   4  -9  564.13   20.27
   1   4  -9  556.17   18.98
   4   1  -9  553.15   18.33
  -4   1  -9  515.64   18.97
   4  -1  -9  538.77   20.04
  -4  -1  -9  586.24   18.63
   1  -4  -9  594.23   22.71
  -1  -4  -9  552.77   19.41
  -1   4  -9  566.05   17.78
   1   4  -9  545.38   20.11
  -1  -4 -10  142.93   14.68
  -4   1 -10  134.40   10.40
  -4  -1 -10  139.48   11.13
  -4  -1  10  154.96   26.87
  -4   1  10  142.11   21.09
  -1  -4  10  122.25   15.67
   1  -4  10  130.52    9.92
  -1   4  10  143.39   11.76
  -1   4 -10  127.94   24.19
   1   4 -10  133.72   13.06
   4   1 -10  158.28   28.33
  -4   1 -10  132.54   13.13
   4  -1 -10  139.75   25.32
  -4  -1 -10  146.05   21.90
   1  -4 -10  137.11   12.72
  -1  -4 -10  133.74   15.82
  -1   4 -10  130.81   10.13
   1   4 -10  148.84   23.35
  -1  -4 -11   79.69   21.19
  -4   1 -11   73.77   24.70
  -4  -1 -11   74.93   16.20
  -4  -1  11   83.77   28.00
  -4   1  11   74.98   19.64
  -1  -4  11   69.16   17.48
   1  -4  11   79.60   20.13
  -1   4  11   72.15    9.95
  -1   4 -11   76.10   18.32
   1   4 -11   69.47   16.37
   4   1 -11   83.10   18.41
  -4   1 -11   83.01   20.14
   4  -1 -11   84.56   13.62
  -4  -1 -11   58.60   15.38
   1  -4 -11   48.93   16.89
  -1  -4 -11   65.22   12.18
  -1   4 -11   59.60   13.44
   1   4 -11   62.76   12.36
  -4   1 -12  179.71   17.95
  -4  -1 -12  172.31   38.45
  -4  -1  12  180.26   15.08
  -4   1  12  197.50   13.63
  -1  -4  12  186.17   24.22
   1  -4  12  195.25   27.30
  -1   4  12  195.43   17.47
   1   4  12  168.56   19.63
  -1   4 -12  208.21   30.84
   1   4 -12  180.91   18.37
   4   1 -12  175.22   18.18
  -4   1 -12  197.51   24.66
   4  -1 -12  177.60   16.03
  -4  -1 -12  181.73   21.17
   1  -4 -12  180.55   16.45
  -1  -4 -12  212.99   36.90
  -1   4 -12  182.31   11.58
   1   4 -12  195.99   21.10
  -4  -1 -13  338.07   36.59
  -4  -1  13  337.04   18.38
  -4   1  13  362.54   17.65
  -1  -4  13  393.45   18.97
   1  -4  13  310.63   21.79
  -1   4  13  319.11   22.79
   1   4  13  335.56   16.53
  -1   4 -13  362.74   28.02
   1   4 -13  314.88   16.31
   4   1 -13  363.31   27.05
  -4   1 -13  338.21   16.87
   4  -1 -13  315.26   22.49
  -4  -1 -13  409.81   20.10
   1  -4 -13  373.80   34.86
  -1  -4 -13  330.90   17.99
  -1   4 -13  365.52   18.89
   1   4 -13  323.00   19.93
  -4  -1 -14   -2.12    6.25
  -4  -1  14    6.40    4.93
  -4   1  14   16.44    5.34
  -1  -4  14   12.59   11.06
   1  -4  14    5.07    5.58
  -1   4  14    6.34    6.13
   1   4  14    7.66    5.27
   4  -1  14    6.32    4.29
  -1   4 -14   10.31    4.76
   1   4 -14    3.50    6.29
   4   1 -14   13.75    8.28
  -4   1 -14    5.62    4.58
   4  -1 -14    8.19    8.43
  -4  -1 -14    3.14    4.85
   1  -4 -14    9.19    3.53
  -1  -4 -14    6.25    4.63
  -1   4 -14    1.00    2.15
   1   4 -14    7.21    6.14
  -4  -1  15   58.22   14.74
  -4   1  15   90.26   26.80
  -1  -4  15   68.37   22.88
   1  -4  15   72.05   23.01
  -1   4  15   51.09   17.49
   1   4  15   57.31   16.34
   4  -1  15   98.04   13.49
   4   1  15   66.77   20.14
  -1   4 -15   84.80   23.30
   1   4 -15   58.07   17.89
   4   1 -15   83.63   21.65
  -4   1 -15   70.55   23.74
   4  -1 -15   49.75   14.83
  -4  -1 -15   82.54   21.55
   1  -4 -15   72.41   19.04
  -1  -4 -15   55.49   15.59
   1   4 -15   48.95   16.09
  -4  -1  16  344.10   15.97
  -4   1  16  331.66   29.53
  -1  -4  16  273.72   18.59
   1  -4  16  292.07   15.20
  -1   4  16  313.02   14.45
   1   4  16  328.18   15.35
   4  -1  16  335.74   28.31
   4   1  16  286.33   15.59
   1   4 -16  348.07   53.72
  -1   4 -16  329.16   15.20
   4   1 -16  352.07   56.09
  -4   1 -16  270.08   22.99
   4  -1 -16  269.80   33.68
  -4  -1 -16  272.72   18.41
   1  -4 -16  315.63   15.56
  -1  -4 -16  298.65   28.40
   1   4 -16  293.81   11.49
  -4  -1  17   35.92   11.23
  -4   1  17   30.52   15.12
  -1  -4  17   31.44   16.23
   1  -4  17   41.64   15.18
  -1   4  17   38.26   16.20
   1   4  17   37.89   15.42
   4  -1  17   56.84   20.07
   4   1  17   44.04   10.33
  -1   4 -17   61.49   11.39
   1   4 -17   49.12   10.05
   4   1 -17   51.59   11.61
  -4   1 -17   45.15   10.66
   4  -1 -17   53.52   21.45
  -4  -1 -17   42.00   18.96
   1  -4 -17   50.57   15.17
  -1  -4 -17   24.30   20.27
  -4  -1  18   52.28   14.84
  -4   1  18   44.83   17.57
  -1  -4  18   39.79   14.75
   1  -4  18   45.98   22.62
  -1   4  18   36.54   15.73
   1   4  18   27.17   13.22
   4  -1  18   48.29   18.20
   4   1  18   41.51   18.28
  -1   4 -18   58.87   15.93
   1   4 -18   58.10   12.98
   4   1 -18   60.85   13.67
  -4   1 -18   59.32   20.05
   4  -1 -18   46.82   20.16
  -4  -1 -18   34.81   16.24
   1  -4 -18   35.44   20.69
  -1  -4 -18   42.55   13.39
  -4  -1  19  173.50   30.27
  -4   1  19  144.61   35.80
  -1  -4  19  219.60   14.96
   1  -4  19  199.60   30.19
  -1   4  19  190.39   29.60
   1   4  19  198.20   14.36
   4  -1  19  179.05   20.43
   4   1  19  183.78   39.42
   1   4 -19  201.58   21.78
  -1   4 -19  195.13   50.79
   4   1 -19  204.53   44.03
  -4   1 -19  194.23   20.20
   4  -1 -19  171.82   48.06
  -4  -1 -19  158.39   37.64
   1  -4 -19  146.84   39.73
  -1  -4 -19  166.93   41.86
  -4  -1  20   79.64   44.88
  -4   1  20  106.71   17.14
  -1  -4  20   99.89   18.91
   1  -4  20   77.34   31.31
  -1   4  20   74.60   34.47
   1   4  20   85.76   34.96
   4  -1  20   73.20   34.02
   4   1  20  109.69   39.81
  -1   4 -20  113.01   39.32
   1   4 -20  116.62   30.20
   4   1 -20  112.54   20.79
  -4   1 -20  133.89   40.07
   4  -1 -20  126.55   33.63
  -4  -1 -20   86.64   43.58
   1  -4 -20   94.45   25.83
  -1  -4 -20   90.41   33.56
  -4   2   0  449.84   19.83
  -2  -4   0  461.69   20.84
  -4  -2   0  410.56   19.80
   4  -2   0  471.30   20.20
  -2   4   0  480.94   13.99
   2   4   0  446.73   20.81
   2  -4   1  255.04   10.97
  -4   2  -1  274.54   12.93
  -2  -4  -1  256.18   12.57
  -4  -2  -1  237.55   12.46
  -4  -2   1  239.04   12.40
  -2  -4   1  248.12   12.74
  -4   2   1  270.79   13.72
  -2   4   1  255.19   10.93
   2  -4   1  260.92   11.17
   4  -2   1  237.29   10.60
   4  -2  -1  263.89   12.38
  -4   2   1  255.11   11.74
   2  -4  -1  272.01   14.78
  -4  -2  -1  273.56   12.75
  -2   4   1  265.58   15.89
  -2   4  -1  254.51   15.28
   2   4   1  265.36   13.21
   2   4  -1  273.53   13.91
  -2   4   2  491.19   12.60
   2  -4   2  479.53   20.68
  -4   2  -2  489.59   13.51
  -2  -4  -2  476.75   21.78
  -4  -2  -2  465.25   23.61
  -4   2   2  511.50    9.84
   2  -4   2  479.55   20.58
   4   2  -2  547.20   10.29
   4  -2   2  487.52   11.71
   4  -2  -2  495.26   12.83
  -4  -2  -2  527.35   10.26
   2  -4  -2  536.56   13.60
  -2  -4  -2  495.50   13.84
  -2   4   2  509.09   18.57
  -2   4  -2  525.90   17.03
   2   4   2  533.57   10.86
   2   4  -2  486.71   14.79
  -4   2  -3  164.77   11.16
  -2  -4  -3  153.36    9.57
  -4  -2  -3  138.56    9.20
  -4  -2   3  130.54    8.46
  -2  -4   3  167.33    9.63
  -4   2   3  152.92    9.08
  -2   4   3  148.02   10.80
   2  -4   3  166.21    8.58
   2   4  -3  165.33    9.30
  -4   2  -3  152.48    8.48
   4   2  -3  152.79    8.37
   4  -2  -3  158.59   11.11
  -4  -2  -3  156.09    8.20
   2  -4  -3  174.63   11.81
  -2  -4  -3  156.07    8.94
  -2   4   3  163.40   13.64
  -2   4  -3  143.60    8.83
   2   4   3  160.82    9.09
   2   4  -3  170.57   18.64
  -4   2  -4  764.34   14.57
  -2  -4  -4  798.22   16.41
  -4  -2  -4  713.45   16.02
  -2  -4   4  812.16   14.94
  -4   2   4  785.83   16.40
  -2   4   4  763.93   16.41
   2  -4   4  794.66   13.70
  -2   4  -4  819.30   15.69
   2   4  -4  812.01   18.00
  -4   2  -4  807.67   13.67
   4   2  -4  792.84   15.15
   4  -2  -4  763.11   16.48
  -4  -2  -4  824.11   14.41
   2  -4  -4  758.85   14.91
  -2  -4  -4  751.36   15.44
  -2   4  -4  839.57   16.00
   2   4   4  788.26   13.25
   2   4  -4  737.73   18.13
  -4   2  -5  864.99   16.08
  -2  -4  -5  873.60   17.44
  -4  -2  -5  839.49   34.16
  -2  -4   5  905.80   16.68
  -4   2   5  937.67   23.52
  -2   4   5  880.16   18.61
   2  -4   5  887.39   22.00
  -2   4  -5  888.86   22.97
   2   4  -5  881.42   16.96
  -4   2  -5  873.21   16.70
   4   2  -5  916.71   16.85
   4  -2  -5  892.21   22.82
  -4  -2  -5  896.62   24.96
   2  -4  -5  908.84   17.35
  -2  -4  -5  839.78   16.54
   2   4   5  912.48   14.39
  -2   4  -5  885.08   16.32
   2   4  -5  865.85   17.21
  -4   2  -6 1313.73   31.81
  -2  -4  -6 1334.42   32.49
  -2  -4   6 1279.99   31.56
  -4   2   6 1296.82   31.80
  -2   4   6 1338.35   34.31
   2  -4   6 1383.48   32.81
  -2   4  -6 1255.75   30.67
   2   4  -6 1343.39   34.30
   4   2  -6 1391.91   34.07
   4  -2  -6 1319.14   31.89
  -4  -2  -6 1266.48   32.10
   2  -4  -6 1255.34   31.27
  -2  -4  -6 1282.01   31.62
  -4   2  -6 1291.88   30.27
   2   4   6 1300.68   29.94
  -2   4  -6 1246.94   30.00
   4   2   6 1285.14   27.85
   2   4  -6 1286.33   33.63
  -4   2  -7 1022.49   26.59
  -2  -4  -7 1025.72   26.36
  -2  -4   7  957.67   25.17
  -4   2   7  987.08   29.87
  -2   4   7 1050.21   26.93
  -2   4  -7  937.06   26.43
   2   4  -7 1069.12   27.48
   4   2  -7  930.67   24.55
  -4   2  -7 1042.01   25.87
   4  -2  -7 1010.21   26.25
  -4  -2  -7  962.71   25.29
   2  -4  -7  944.84   25.60
  -2  -4  -7 1071.30   27.60
  -4   2  -7  984.08   23.19
   2   4   7  985.73   22.70
  -2   4  -7  969.21   26.20
   2   4  -7 1062.81   27.23
  -4   2  -8 1203.93   34.42
  -2  -4  -8 1207.80   33.06
  -2  -4   8 1187.79   35.71
  -4   2   8 1135.49   32.96
  -2   4   8 1231.83   33.12
   2  -4   8 1286.08   36.39
  -2   4  -8 1196.01   32.80
   2   4  -8 1197.33   32.97
   4   2  -8 1164.21   32.07
  -4   2  -8 1282.64   34.86
   4  -2  -8 1270.99   36.71
  -4  -2  -8 1136.86   32.91
   2  -4  -8 1149.22   33.53
  -2  -4  -8 1162.75   32.44
  -4   2  -8 1189.51   29.71
  -2   4  -8 1201.16   33.82
   2   4  -8 1176.57   33.25
  -4   2  -9  415.54   21.66
  -2  -4  -9  379.73   14.71
  -4  -2  -9  363.87   15.27
  -2  -4   9  420.34   15.57
  -4   2   9  423.83   17.50
  -2   4   9  382.02   17.29
   2  -4   9  407.45   15.89
  -2   4  -9  421.54   18.22
   2   4  -9  376.38   14.57
   4   2  -9  455.19   18.79
  -4   2  -9  383.84   20.18
   4  -2  -9  399.04   17.65
  -4  -2  -9  423.37   15.22
   2  -4  -9  408.22   17.37
  -2  -4  -9  384.39   15.72
  -4   2  -9  397.07   11.68
  -2   4  -9  427.73   14.58
   2   4  -9  384.38   15.31
  -4   2 -10  160.89   14.24
  -2  -4 -10  142.21   15.40
  -4  -2 -10  136.67   30.35
  -4  -2  10  112.22   10.95
  -2  -4  10  164.67   21.19
  -4   2  10  154.79   13.28
  -2   4  10  146.48   10.52
   2  -4  10  155.64   22.47
  -2   4 -10  143.54   15.50
   2   4 -10  134.00   13.78
   4   2 -10  153.41   14.20
  -4   2 -10  138.99   16.22
   4  -2 -10  166.96   27.66
  -4  -2 -10  150.66   10.23
   2  -4 -10  163.04   23.05
  -2  -4 -10  181.44   14.54
  -4   2 -10  135.35    7.33
  -2   4 -10  146.45   11.85
   2   4 -10  154.66   16.43
  -4   2 -11  767.90   40.63
  -2  -4 -11  779.72   30.54
  -4  -2 -11  654.44   33.75
  -2  -4  11  762.17   29.50
  -4   2  11  715.17   31.27
  -2   4  11  727.48   28.86
   2  -4  11  747.19   28.94
  -2   4 -11  756.63   29.44
   2   4 -11  712.91   33.57
   4   2 -11  716.89   28.03
  -4   2 -11  720.07   27.68
   4  -2 -11  718.96   29.68
  -4  -2 -11  785.72   30.28
   2  -4 -11  680.42   27.26
  -2  -4 -11  715.65   28.36
  -2   4 -11  771.92   27.37
   2   4 -11  709.55   27.14
  -2  -4 -12  149.30   16.91
  -4  -2 -12  131.09   13.42
  -4  -2  12  146.02   12.55
  -2  -4  12  160.22   33.71
  -4   2  12  123.57   19.28
  -2   4  12  186.24   13.65
   2  -4  12  180.22   16.35
  -2   4 -12  151.38   27.04
   2   4 -12  166.17   19.52
   4   2 -12  170.61   35.36
  -4   2 -12  187.96   19.17
   4  -2 -12  169.19   15.44
  -4  -2 -12  150.51   12.27
   2  -4 -12  181.06   37.58
  -2  -4 -12  156.83   17.31
  -2   4 -12  144.71   11.51
   2   4 -12  194.20   20.84
  -2  -4 -13  141.16   29.41
  -4  -2 -13   98.11   24.45
  -4  -2  13   99.88   20.95
  -2  -4  13  103.65   20.42
  -4   2  13  100.32   27.80
  -2   4  13  131.06   28.93
   2  -4  13  122.11   21.55
   4  -2  13  120.65   22.00
  -2   4 -13  110.02   26.91
   2   4 -13  114.11   19.53
   4   2 -13  136.94   30.20
  -4   2 -13  126.10   15.27
   4  -2 -13  133.41   18.19
   2  -4 -13  122.66   12.50
  -2  -4 -13  122.76   32.77
  -2   4 -13  114.78   14.03
   2   4 -13  125.90   16.98
  -4  -2 -14   16.28    9.66
  -4  -2  14   21.96    8.73
  -2  -4  14    9.22    5.61
  -4   2  14    5.89    5.87
  -2   4  14   16.07    6.64
   2  -4  14   21.40    6.47
   4  -2  14   23.47    7.79
   2   4  14    9.04    4.38
  -2   4 -14   20.89    6.47
   2   4 -14   19.12    7.35
   4   2 -14   16.86   11.81
  -4   2 -14   18.61    8.02
   4  -2 -14   30.56   10.33
  -4  -2 -14   14.22    9.55
   2  -4 -14   14.64    8.35
  -2  -4 -14   18.12    8.70
  -2   4 -14   11.22    4.54
   2   4 -14   21.55    9.50
  -4  -2 -15  119.02   21.49
  -4  -2  15  106.62   12.08
  -2  -4  15  147.94   27.56
  -4   2  15  130.00   24.83
  -2   4  15  117.73   29.13
   2  -4  15  119.89   14.35
   4  -2  15  138.10   37.27
   2   4  15  129.69   35.22
  -2   4 -15  167.58   33.09
   2   4 -15  140.30   30.84
   4   2 -15  175.20   37.87
  -4   2 -15  115.68   15.05
   4  -2 -15  111.17   19.67
  -4  -2 -15  121.29   35.36
   2  -4 -15  142.28   35.34
  -2  -4 -15  125.33   24.49
   2   4 -15  109.04   20.53
  -4  -2  16   91.10   29.12
  -2  -4  16   77.72   17.78
  -4   2  16   81.28   17.77
  -2   4  16   73.58   28.31
   2  -4  16   94.25   24.71
   4  -2  16   62.05   27.33
   2   4  16   83.63   17.55
   4   2  16   84.72   15.23
  -2   4 -16   75.23   17.91
   2   4 -16   97.35   24.27
   4   2 -16   80.15   25.56
  -4   2 -16   93.76   19.20
   4  -2 -16  100.89   19.36
  -4  -2 -16   76.03   24.26
   2  -4 -16   82.03   26.02
  -2  -4 -16   87.48   28.81
   2   4 -16   64.77   20.77
  -4  -2  17  186.49   20.54
  -2  -4  17  164.05   25.68
  -4   2  17  193.55   32.38
  -2   4  17  192.12   34.38
   2  -4  17  193.87   20.78
   4  -2  17  166.86   15.17
   2   4  17  179.94   25.28
   4   2  17  223.41   24.33
  -2   4 -17  220.91   45.46
   2   4 -17  189.23   28.64
   4   2 -17  238.03   46.96
  -4   2 -17  179.90   20.86
   4  -2 -17  228.58   38.30
  -4  -2 -17  197.18   22.60
   2  -4 -17  170.41   35.48
  -2  -4 -17  196.24   20.18
  -4  -2  18   -4.00    8.55
  -2  -4  18   15.80   11.70
  -4   2  18   -1.25    7.33
  -2   4  18    9.08    8.62
   2  -4  18   13.58    8.23
   4  -2  18   -1.41    6.08
   2   4  18    6.58    7.17
   4   2  18    7.16    7.59
  -2   4 -18    9.83    7.91
   2   4 -18   23.31    6.11
   4   2 -18   10.13    6.46
  -4   2 -18   30.08   10.13
   4  -2 -18   18.06   11.14
  -4  -2 -18   13.71    6.34
   2  -4 -18   -0.24    7.11
  -2  -4 -18   16.97   10.50
  -4  -2  19   46.08   19.33
  -2  -4  19   32.53   11.70
  -4   2  19   47.02   23.48
  -2   4  19   36.22    9.61
   2  -4  19   45.81   19.47
   4  -2  19   54.45   14.92
   2   4  19   58.75   29.83
   4   2  19   47.32   23.40
   2   4 -19   64.09   13.17
  -2   4 -19   48.78   22.41
  -4   2 -19   51.94   12.83
   4   2 -19   55.57   12.76
   4  -2 -19   45.02   15.60
  -4  -2 -19   47.29   21.80
   2  -4 -19   47.57   22.35
  -2  -4 -19   35.33   22.40
  -4  -2  20   35.12   13.95
  -2  -4  20   43.94   10.60
  -4   2  20   35.73   11.18
  -2   4  20   31.93   20.45
   2  -4  20   42.79   16.51
   4  -2  20   36.37   11.41
   2   4  20   26.78   11.55
   4   2  20   37.96   26.20
   2   4 -20   38.38   20.06
  -2   4 -20   35.81    9.60
  -4   2 -20   59.57   10.91
   4   2 -20   50.27   18.60
   4  -2 -20   20.22   12.37
  -4  -2 -20   19.98   12.54
   2  -4 -20   41.49   10.95
  -2  -4 -20   31.51   18.12
  -3   4   0 1371.68   16.76
  -4   3   0 1357.21   18.43
  -3  -4   0 1381.60   21.79
  -4  -3   0 1373.83   24.10
   4  -3   0 1413.08   19.43
  -3   4   0 1393.19   22.32
   3   4   0 1405.14   22.15
  -4   3  -1 1395.07   19.52
  -3  -4  -1 1441.84   22.53
  -4  -3  -1 1349.57   21.57
   3  -4   1 1371.58   17.08
  -4  -3   1 1437.38   23.93
  -3  -4   1 1303.75   20.46
  -4   3   1 1335.28   18.38
   4  -3  -1 1406.00   19.59
   3  -4  -1 1336.00   20.47
  -3   4   1 1430.76   23.07
  -3   4  -1 1349.54   22.72
   3   4   1 1336.83   21.37
  -3   4  -2  731.54   12.22
  -3  -4  -2  813.62   20.86
  -4  -3  -2  737.23   25.46
  -4  -3   2  819.71   15.53
  -4   3   2  719.27   14.19
   3  -4  -2  708.91   17.59
  -4  -3  -2  732.53   15.04
  -3   4   2  793.40   16.33
  -4   3  -2  791.76   15.15
  -3   4  -2  710.91   14.81
   3   4   2  710.26   13.72
  -3   4  -3 1188.92   18.73
  -4   3  -3 1155.29   19.11
  -3  -4  -3 1132.35   19.36
  -4  -3  -3 1111.99   19.81
  -4  -3   3 1139.73   19.46
  -3  -4   3 1177.38   21.40
  -4   3   3 1145.73   17.48
  -3   4   3 1195.51   17.21
   3   4  -3 1179.40   19.48
   4   3  -3 1165.91   19.00
   4  -3  -3 1192.50   20.36
   3  -4  -3 1159.48   19.29
  -4  -3  -3 1159.93   18.45
  -3  -4  -3 1183.43   19.77
  -4   3  -3 1167.54   19.49
  -3   4  -3 1151.62   19.38
   3   4   3 1162.76   18.32
  -3   4  -4  338.40   16.67
  -4   3  -4  305.37   16.11
  -3  -4  -4  282.48   15.08
  -4  -3  -4  331.91   16.79
  -4  -3   4  294.71   14.99
  -3  -4   4  326.69   17.46
  -4   3   4  331.76   15.69
  -3   4   4  270.50   13.53
  -3   4  -4  331.92   19.28
   3   4  -4  289.23   14.62
  -4   3  -4  306.58   15.45
   4   3  -4  328.42   15.90
   4  -3  -4  314.94   18.94
   3  -4  -4  319.63   15.68
  -4  -3  -4  337.11   17.13
  -3  -4  -4  302.46   15.59
  -4   3  -4  292.55   17.05
  -3   4  -4  343.17   20.16
   3   4   4  311.71   15.63
  -3   4  -5  331.25   12.84
  -4   3  -5  315.16   13.81
  -3  -4  -5  312.56   11.75
  -4  -3  -5  315.40   11.59
  -4  -3   5  309.01   11.42
  -3  -4   5  318.90   11.68
  -4   3   5  325.38   15.37
  -3   4   5  321.27   12.07
  -3   4  -5  331.99   11.75
   3   4  -5  322.80   12.29
  -4   3  -5  331.32   12.11
   4   3  -5  333.52   11.02
   4  -3  -5  337.27   21.66
   3  -4  -5  328.57   20.93
  -4  -3  -5  316.06   17.35
  -3  -4  -5  296.86   11.75
  -4   3  -5  321.62   14.33
  -3   4  -5  315.36   14.78
   3   4   5  317.76    9.49
   4   3   5  302.28    8.56
  -4   3  -6 1705.84   41.02
  -3  -4  -6 1742.55   42.95
  -4  -3  -6 1725.04   41.28
  -4  -3   6 1727.35   41.10
  -3  -4   6 1692.75   45.58
  -4   3   6 1727.02   41.75
  -3   4   6 1678.74   38.98
   3  -4   6 1714.56   39.89
  -3   4  -6 1660.45   39.58
   3   4  -6 1688.30   40.20
  -4   3  -6 1709.00   40.07
   4   3  -6 1661.83   42.36
   4  -3  -6 1646.64   39.46
   3  -4  -6 1703.99   40.62
  -4  -3  -6 1742.27   44.24
  -3  -4  -6 1715.18   40.61
  -4   3  -6 1716.41   39.12
  -3   4  -6 1795.84   42.06
   3   4   6 1702.60   37.48
   4   3   6 1680.92   36.64
  -4   3  -7  512.31   18.97
  -3  -4  -7  500.99   15.71
  -4  -3  -7  515.97   37.48
  -4  -3   7  519.41   22.70
  -3  -4   7  481.80   16.84
  -4   3   7  486.62   15.96
  -3   4   7  519.74   19.98
   3  -4   7  513.33   19.98
  -3   4  -7  496.35   16.27
   3   4  -7  533.63   16.50
  -4   3  -7  513.56   18.54
   4   3  -7  503.74   16.29
   4  -3  -7  557.71   17.23
   3  -4  -7  488.35   15.70
  -4  -3  -7  513.51   16.46
  -3  -4  -7  517.93   18.63
  -4   3  -7  525.39   15.64
   3   4   7  505.72   12.64
  -3   4  -7  498.54   16.30
   4   3   7  526.86   12.22
  -4   3  -8   51.48   12.61
  -3  -4  -8   37.46   11.81
  -4  -3  -8   57.86   13.61
  -4  -3   8   50.37   11.14
  -3  -4   8   70.85   11.70
  -4   3   8   68.26   14.00
  -3   4   8   37.89    7.86
   3  -4   8   47.43    8.70
  -3   4  -8   54.57   13.79
   3   4  -8   35.97    9.98
  -4   3  -8   42.30   11.70
   4   3  -8   60.68   12.74
   4  -3  -8   58.65   10.72
  -4  -3  -8   61.09   15.18
   3  -4  -8   60.08    7.86
  -3  -4  -8   33.30    9.00
   3   4   8   42.37    5.47
  -4   3  -8   44.14    9.13
  -3   4  -8   46.98    7.36
  -4   3  -9  200.91   11.83
  -3  -4  -9  187.98   11.78
  -4  -3  -9  210.70   17.51
  -4  -3   9  207.09   12.03
  -3  -4   9  202.01   28.88
  -4   3   9  201.31   12.11
  -3   4   9  186.22   10.47
   3  -4   9  179.53   18.99
  -3   4  -9  187.27   15.16
   3   4  -9  191.46   20.05
  -4   3  -9  188.24   19.15
   4   3  -9  194.47   11.01
   4  -3  -9  192.96   16.11
  -4  -3  -9  208.04   11.90
   3  -4  -9  208.90   16.81
  -3  -4  -9  182.55   13.67
  -4   3  -9  193.44   10.17
  -3   4  -9  199.11   13.05
  -4   3 -10  506.52   22.70
  -3  -4 -10  511.24   38.47
  -4  -3 -10  526.64   24.14
  -4  -3  10  506.81   22.66
  -3  -4  10  478.88   21.74
  -4   3  10  470.13   31.50
  -3   4  10  498.89   22.85
   3  -4  10  508.76   24.27
  -3   4 -10  493.25   21.92
   3   4 -10  510.71   23.46
  -4   3 -10  529.68   24.37
   4   3 -10  457.88   20.55
   4  -3 -10  497.44   22.63
  -4  -3 -10  490.28   23.92
   3  -4 -10  513.00   23.10
  -3  -4 -10  522.14   24.13
  -4   3 -10  541.05   20.64
  -3   4 -10  496.26   22.01
  -3  -4 -11  214.89   17.66
  -4  -3 -11  230.19   22.33
  -4  -3  11  244.87   45.29
  -3  -4  11  238.05   34.61
  -4   3  11  245.19   17.32
  -3   4  11  240.78   16.71
   3  -4  11  207.57   16.79
   4  -3  11  218.28   19.75
  -3   4 -11  201.81   24.49
   3   4 -11  236.16   13.70
   4   3 -11  219.69   23.50
  -4   3 -11  252.00   12.95
   4  -3 -11  229.74   17.68
  -4  -3 -11  218.45   13.22
   3  -4 -11  219.30   18.35
  -3  -4 -11  242.10   13.10
  -4   3 -11  229.37   10.35
  -3   4 -11  197.35   12.82
  -3  -4 -12  125.14   12.97
  -4  -3 -12  122.66   25.23
  -4  -3  12  121.52   27.12
  -3  -4  12  166.40   26.95
  -4   3  12  117.13   24.87
  -3   4  12  112.66   10.88
   3  -4  12  118.75   10.70
   4  -3  12  126.78   13.60
  -3   4 -12  128.88   21.67
   3   4 -12  116.04   15.44
  -4   3 -12  124.70   31.26
   4   3 -12  122.32   27.10
   4  -3 -12  108.29   11.54
  -4  -3 -12  127.41   24.79
   3  -4 -12  122.20   16.09
  -3  -4 -12  117.94   22.66
  -4   3 -12  104.26   12.09
  -3   4 -12  112.10   22.81
  -3  -4 -13  540.78   24.72
  -4  -3 -13  517.38   30.19
  -4  -3  13  568.69   29.22
  -3  -4  13  580.71   26.13
  -4   3  13  542.84   27.74
  -3   4  13  576.54   26.69
   3  -4  13  557.60   40.45
   4  -3  13  594.56   27.56
  -3   4 -13  540.73   23.49
   3   4 -13  536.48   24.06
  -4   3 -13  597.88   25.75
   4   3 -13  577.52   25.86
   4  -3 -13  547.89   24.88
   3  -4 -13  529.93   24.51
  -3  -4 -13  600.70   26.51
   3   4 -13  612.99   25.56
  -3  -4 -14  302.10   26.52
  -4  -3 -14  284.25   15.51
  -4  -3  14  347.95   17.14
  -3  -4  14  281.95   33.80
  -4   3  14  305.92   14.45
  -3   4  14  297.82   13.48
   3  -4  14  327.67   24.22
   4  -3  14  331.21   40.68
  -3   4 -14  290.92   16.87
   3   4 -14  267.36   30.29
  -4   3 -14  327.29   14.72
   4  -3 -14  308.88   46.02
  -4  -3 -14  285.89   31.22
   3  -4 -14  284.45   23.05
  -3  -4 -14  293.95   13.58
   3   4 -14  313.68   31.11
  -4  -3 -15  501.17   21.42
  -4  -3  15  524.62   28.23
  -3  -4  15  541.36   22.94
  -4   3  15  520.77   21.04
  -3   4  15  540.06   23.79
   3  -4  15  511.71   30.83
   4  -3  15  538.02   21.79
  -3   4 -15  490.01   33.35
   3   4 -15  500.20   21.02
   4   3 -15  464.16   31.74
  -4   3 -15  532.62   22.61
   4  -3 -15  526.59   21.54
  -4  -3 -15  470.68   20.80
   3  -4 -15  491.55   24.60
  -3  -4 -15  494.54   25.65
   3   4 -15  523.79   25.93
  -4  -3  16   65.44   17.60
  -3  -4  16   49.17   18.99
  -4   3  16   37.08   10.45
  -3   4  16   43.40   12.37
   3  -4  16   36.72   17.20
   4  -3  16   51.80   15.98
   3   4  16   37.89   15.02
  -3   4 -16   43.21   18.00
   3   4 -16   36.75    8.97
   4   3 -16   56.58   13.30
  -4   3 -16   50.46   11.65
   4  -3 -16   48.79   13.78
  -4  -3 -16   50.37   14.03
   3  -4 -16   43.17   17.27
  -3  -4 -16   30.65   12.70
   3   4 -16   39.73    9.72
  -4  -3  17  259.55   40.48
  -4   3  17  256.90   14.37
  -3   4  17  265.69   15.15
   3  -4  17  254.46   25.96
   4  -3  17  252.99   14.43
   3   4  17  282.93   15.60
   4   3  17  276.95   14.81
  -3   4 -17  271.61   28.24
   3   4 -17  289.53   51.13
  -4   3 -17  268.49   20.51
   4   3 -17  276.19   33.71
  -4  -3 -17  275.82   16.01
   3  -4 -17  231.85   25.49
  -3  -4 -17  242.86   35.76
   3   4 -17  242.71   12.14
   4   3 -17  263.45   12.85
  -4  -3  18  101.21   23.64
  -3  -4  18   94.18   31.81
  -4   3  18   78.08   14.71
  -3   4  18   87.41   29.54
   3  -4  18   76.30   30.65
   4  -3  18   92.68   35.54
   4   3  18   84.32   31.89
  -3   4 -18  114.25   26.64
   3   4 -18  105.35   24.53
   4   3 -18  110.96   20.86
  -4   3 -18   98.87   23.84
   4  -3 -18   93.85   35.09
  -4  -3 -18   80.41   33.02
   3  -4 -18  102.76   26.11
  -3  -4 -18   74.94   27.56
  -4  -3  19  103.01   38.51
  -3  -4  19  125.15   27.01
  -4   3  19  117.98   39.15
  -3   4  19   92.97   31.48
   3  -4  19  102.96   39.76
   4  -3  19   93.39   32.63
   3   4  19  111.48   55.35
   4   3  19   90.43   37.91
  -3   4 -19  131.80   27.96
   3   4 -19  128.14   39.37
  -4   3 -19  142.11   20.89
   4   3 -19  138.12   33.78
   4  -3 -19  165.13   15.84
  -4  -3 -19   88.04   24.03
   3  -4 -19  116.17   31.41
  -3  -4 -19  113.30   36.97
  -4  -3  20   12.04    6.04
  -3  -4  20    7.18    6.92
  -4   3  20    8.36    5.77
  -3   4  20   16.03    7.69
   3  -4  20    7.01    7.19
   4  -3  20   10.72    6.95
   3   4  20   11.52    7.16
   4   3  20   24.88    8.48
  -3   4 -20    9.35    8.85
   3   4 -20    4.81   10.05
  -4   3 -20   21.17    9.40
   4   3 -20   18.55   10.22
   4  -3 -20   13.69    7.11
  -4  -3 -20    5.36    7.97
   3  -4 -20   34.84    9.63
  -3  -4 -20   11.13    6.13
  -4  -4   0  169.67   14.39
   4  -4   0  144.45    8.76
   4  -4   0  156.75    9.99
  -4   4   0  162.52   10.45
  -4  -4  -1 4791.35   62.73
  -4   4   1 4916.65   58.60
  -4  -4   1 4704.41   60.94
   4  -4  -1 4685.48   56.09
   4  -4  -1 4867.68   60.23
  -4   4  -1 4758.06   64.05
  -4   4  -2 2136.40   27.67
  -4  -4  -2 2086.88   30.82
  -4  -4   2 2160.39   32.38
  -4   4   2 2082.44   26.83
   4  -4  -2 2192.82   30.80
  -4  -4  -2 2063.87   34.13
  -4   4  -2 2126.27   32.88
  -4   4  -3    7.20    1.92
  -4  -4  -3   10.57    5.37
  -4  -4   3   10.12    3.70
  -4   4   3    1.55    1.63
   4   4  -3    5.14    3.86
   4  -4  -3    4.02    2.84
  -4  -4  -3    6.19    1.97
  -4   4  -3    9.71    4.82
   4   4   3    4.18    2.15
  -4   4  -4  539.63   18.21
  -4  -4  -4  521.37   15.98
  -4  -4   4  524.76   19.20
  -4   4   4  513.05   13.60
   4   4  -4  537.58   15.54
   4  -4  -4  538.64   19.52
  -4  -4  -4  532.79   15.53
  -4   4  -4  519.97   17.36
   4   4   4  512.74   13.71
  -4   4  -5  975.91   28.31
  -4  -4  -5  972.45   25.53
  -4  -4   5 1002.03   26.98
  -4   4   5  971.89   24.01
  -4   4  -5  972.66   24.97
   4   4  -5  969.69   26.49
   4  -4  -5  964.50   27.26
  -4  -4  -5  933.37   23.90
  -4   4  -5  930.78   24.10
   4   4   5  929.82   22.07
  -4   4  -6  428.12   16.12
  -4  -4  -6  412.55   19.85
  -4  -4   6  461.28   15.44
  -4   4   6  470.50   16.17
  -4   4  -6  411.65   14.29
   4   4  -6  427.00   15.10
   4  -4  -6  444.99   16.23
  -4  -4  -6  420.20   20.52
  -4   4  -6  443.09   19.27
   4   4   6  421.63   11.76
  -4   4  -7 1021.50   32.81
  -4  -4  -7 1018.35   29.41
  -4  -4   7 1031.68   29.65
  -4   4   7 1038.07   29.79
  -4   4  -7 1044.06   28.68
   4   4  -7  968.41   31.22
   4  -4  -7 1032.47   29.05
  -4  -4  -7 1016.98   29.76
  -4   4  -7  995.46   27.62
   4   4   7 1023.60   25.16
  -4   4  -8   65.01    9.13
  -4  -4  -8   69.67   20.34
  -4  -4   8   81.85   15.07
  -4   4   8   69.74   18.01
  -4   4  -8   58.01   16.18
   4   4  -8   64.38   20.42
   4  -4  -8   84.55   17.58
  -4  -4  -8   81.72   12.31
  -4   4  -8   67.85    9.50
   4   4   8   62.95    6.06
  -4  -4  -9  138.17   16.79
  -4  -4   9  135.64   22.91
  -4   4   9  146.87   11.00
   4  -4   9  161.72   18.20
  -4   4  -9  146.19   13.28
   4   4  -9  141.77   27.86
   4  -4  -9  160.62   15.81
  -4  -4  -9  134.26    9.28
  -4   4  -9  135.27   16.96
  -4  -4 -10  287.96   18.87
  -4  -4  10  266.55   16.59
  -4   4  10  315.18   19.46
   4  -4  10  303.37   16.15
  -4   4 -10  290.75   14.67
   4   4 -10  267.99   14.16
   4  -4 -10  325.78   24.34
  -4  -4 -10  280.13   15.04
  -4   4 -10  266.37   17.30
  -4  -4 -11  442.63   31.11
  -4  -4  11  410.74   22.28
  -4   4  11  438.34   36.08
   4  -4  11  421.96   22.35
  -4   4 -11  450.15   24.29
   4   4 -11  454.03   25.59
   4  -4 -11  409.77   23.08
  -4  -4 -11  445.69   23.69
  -4   4 -11  411.25   20.55
  -4  -4 -12   83.74   20.08
  -4  -4  12   85.08   23.40
  -4   4  12   92.31   25.71
   4  -4  12   74.94   14.16
  -4   4 -12   77.44   14.82
   4   4 -12   92.39   22.34
   4  -4 -12   89.33   18.12
  -4  -4 -12   89.31   22.20
  -4   4 -12   83.74   13.18
  -4  -4 -13  247.94   29.82
  -4  -4  13  226.18   17.94
  -4   4  13  242.40   20.41
   4  -4  13  247.26   32.68
  -4   4 -13  228.89   33.59
   4   4 -13  268.46   28.67
   4  -4 -13  232.67   21.57
  -4  -4 -13  255.50   15.93
  -4  -4 -14  369.12   37.52
  -4  -4  14  379.36   25.78
  -4   4  14  371.94   20.08
   4  -4  14  360.77   19.96
  -4   4 -14  383.62   31.65
   4   4 -14  383.04   20.94
   4  -4 -14  383.30   21.26
  -4  -4 -14  419.71   22.04
  -4  -4 -15   48.64   14.32
  -4  -4  15   50.77   11.48
  -4   4  15   45.60   12.63
   4  -4  15   53.87   17.88
  -4   4 -15   54.00   14.90
   4   4 -15   48.56   12.67
   4  -4 -15   36.57   13.39
  -4  -4 -15   32.11    9.12
   4   4 -15   30.93   16.12
  -4  -4 -16   80.90   24.22
  -4   4  16   63.78   29.55
   4  -4  16   55.22   20.79
  -4   4 -16   89.17   20.99
   4  -4 -16   62.10   25.15
  -4  -4 -16   56.96   24.47
   4   4 -16   72.24   21.66
  -4  -4  17   55.86   20.86
  -4   4  17   84.66   23.98
   4  -4  17   64.42   27.21
   4   4  17   52.72   20.61
  -4   4 -17   89.82   23.41
   4   4 -17   71.19   19.43
   4  -4 -17   72.78   28.84
  -4  -4 -17   72.48   28.79
   4   4 -17   59.63   20.86
  -4  -4  18  196.85   15.86
  -4   4  18  189.21   20.56
   4  -4  18  187.67   24.58
   4   4  18  176.59   39.87
  -4   4 -18  259.33   42.17
   4   4 -18  228.69   43.29
   4  -4 -18  178.10   19.96
  -4  -4 -18  158.95   40.60
  -4  -4  19    4.21    7.07
  -4   4  19    6.97    7.45
   4  -4  19    5.99    8.36
   4   4  19   12.99    8.05
  -4   4 -19   12.04    7.92
   4   4 -19    5.41    4.05
   4  -4 -19    3.26    7.05
  -4  -4 -19    6.36    5.28
   0  -5   0    3.27    2.36
  -5   0   0    3.86    3.57
   0   5   0    0.30    0.66
  -5   0   0    0.83    0.62
   0   5   0   -2.09    3.36
   0  -5  -1   62.17    5.20
  -5   0  -1   74.09   13.89
   0   5   1   55.46    3.82
  -5   0   1   57.35    5.93
   0  -5   1   60.06    4.25
   0   5  -1   62.47    6.99
   5   0  -1   68.81    7.45
  -5   0   1   70.36    7.96
   0   5   1   61.79   12.64
   0   5  -1   72.46   18.68
   0  -5  -2   -0.30    1.61
  -5   0  -2    4.25    3.88
  -5   0   2    3.50    2.23
   0  -5   2    3.02    1.90
   5   0  -2    0.03    1.62
  -5   0  -2    2.15    1.41
  -5   0   2    1.37    1.33
   0  -5  -2    4.45    4.77
   0   5   2    1.62    2.42
   0   5  -2    1.34    3.22
   0  -5  -3  614.42   11.26
  -5   0  -3  611.49   18.73
  -5   0   3  616.93   17.27
   0  -5   3  592.13   11.59
   5   0  -3  626.21   13.47
   0   5   3  612.66   15.97
   0   5  -3  605.02   14.40
   0  -5  -4  248.72   13.28
  -5   0  -4  244.08   14.98
  -5   0   4  243.16   12.86
   0  -5   4  262.54   13.52
   0   5  -4  250.71   13.10
   5   0  -4  258.56   14.45
  -5   0  -4  242.59   11.96
   0  -5  -4  246.61   13.58
   0   5   4  262.41   19.84
   0   5  -4  247.23   13.19
   0  -5  -5  953.48   24.80
  -5   0  -5 1006.73   27.11
  -5   0   5  919.76   23.95
   0  -5   5  937.08   24.62
   0   5  -5  951.50   24.82
   5   0  -5  966.31   25.00
  -5   0  -5  948.40   22.55
   0  -5  -5  946.36   26.32
   0   5   5  935.54   24.07
   0   5  -5  907.31   23.82
   0  -5  -6   63.85   12.38
  -5   0  -6   54.58   17.37
  -5   0   6   59.54   10.60
   0  -5   6   86.72   16.22
   0   5  -6   69.82   18.26
   5   0  -6   76.48   12.54
  -5   0  -6   68.21   11.34
   0  -5  -6   67.29    6.38
   0   5   6   67.45    6.31
   0   5  -6   73.30   12.53
   0  -5  -7  297.50   19.04
  -5   0  -7  287.80   11.56
  -5   0   7  277.08   11.03
   0  -5   7  264.94   13.88
   0   5  -7  275.81   11.22
   5   0  -7  311.63   17.87
  -5   0  -7  300.31   16.08
   0  -5  -7  286.63   12.80
   5   0   7  240.67   11.68
   0   5  -7  296.12   11.55
   0  -5  -8 1882.51   48.06
  -5   0  -8 1910.55   49.60
  -5   0   8 1797.04   46.80
   0  -5   8 1934.50   49.25
   0   5  -8 1892.43   50.46
   5   0  -8 1871.25   49.63
  -5   0  -8 1948.07   48.94
   0  -5  -8 1926.48   62.40
   5   0   8 1780.45   41.81
   0   5  -8 1864.77   50.19
   0  -5  -9  262.51   14.84
  -5   0  -9  242.93   26.14
  -5   0   9  224.10   22.71
   0  -5   9  259.82   13.74
   0   5  -9  285.34   14.71
   5   0  -9  247.07   14.84
  -5   0  -9  234.89   15.18
   0  -5  -9  305.93   31.09
   0   5  -9  289.72   17.79
  -5   0 -10  378.89   22.27
  -5   0  10  378.33   27.99
   0  -5  10  432.87   20.05
   0   5  10  395.96   18.95
   0   5 -10  415.33   19.63
   5   0 -10  398.68   25.17
  -5   0 -10  445.33   19.90
   0  -5 -10  424.01   24.19
   0   5 -10  385.77   17.74
  -5   0 -11  440.31   21.26
  -5   0  11  454.49   27.96
   0  -5  11  437.85   25.89
   0   5  11  404.33   20.86
   0   5 -11  431.71   19.98
   5   0 -11  433.00   20.02
  -5   0 -11  461.72   27.27
   0  -5 -11  408.63   24.00
   0   5 -11  414.10   17.30
  -5   0 -12   70.13   19.95
  -5   0  12   81.09   22.63
   0  -5  12   77.72   18.57
   0   5  12   67.70   13.77
   0   5 -12   98.60   20.94
   5   0 -12   68.22   23.55
  -5   0 -12   78.85   20.57
   0  -5 -12   81.52   23.10
   0   5 -12   66.29   13.53
  -5   0 -13   10.17    5.93
  -5   0  13   18.29    7.09
   0  -5  13   18.60    5.68
   0   5  13   20.00    4.96
   0   5 -13   28.69    7.01
   5   0 -13   12.29    5.03
  -5   0 -13   33.78   11.87
   0  -5 -13   23.52    9.08
   0   5 -13   15.91    6.25
  -5   0 -14   52.62   17.61
  -5   0  14   71.41   14.26
   0  -5  14   55.35   21.43
   0   5  14   40.43   14.10
   0   5 -14   66.65   12.87
   5   0 -14   50.77   16.65
  -5   0 -14   58.59   18.73
   0  -5 -14   47.81   11.83
   0   5 -14   63.08    6.97
  -5   0 -15  175.12   14.74
  -5   0  15  153.66   43.85
   0  -5  15  142.30   36.56
   0   5  15  146.00   18.25
   0   5 -15  167.82   33.91
   5   0 -15  166.37   31.21
  -5   0 -15  160.91   20.62
   0  -5 -15  153.89   15.43
   0   5 -15  167.14   12.93
  -5   0  16   13.88    9.46
   0  -5  16    8.55    8.26
   0   5  16    1.09    5.98
   5   0  16   15.57    8.57
   0   5 -16   13.93    7.75
   5   0 -16    9.00    7.79
  -5   0 -16    6.83    8.28
   0  -5 -16    6.67    4.29
  -5   0  17  149.20   31.64
   0  -5  17  114.99   40.68
   0   5  17  137.64   26.10
   5   0  17  139.45   13.25
   0   5 -17  126.13   26.55
   5   0 -17  153.08   33.46
  -5   0 -17  120.75   27.22
   0  -5 -17  110.21   32.51
  -5   0  18  115.46   28.05
   0  -5  18  104.72   33.60
   0   5  18   81.08   31.62
   5   0  18   79.70   29.82
   5   0 -18   81.34   18.04
  -5   0 -18  108.57   22.21
   0  -5 -18   82.13   29.54
  -5   0  19    4.56    5.57
   0  -5  19    8.54    8.81
   0   5  19    0.83    5.34
   5   0  19    4.14    3.11
   0   5 -19    8.18   10.80
   5   0 -19    3.14    6.35
   0  -5 -19    2.03    7.35
  -5   0  20   53.99   20.36
   0  -5  20   39.45   29.69
   0   5  20   66.44   17.10
   5   0  20   42.51   15.67
   0   5 -20   81.41   23.12
   5   0 -20   97.97   19.11
  -5   0 -20   78.91   22.24
   0  -5 -20   49.59   23.39
   1  -5   0 1325.77   16.46
  -1  -5   0 1324.78   19.51
  -5   1   0 1310.78   20.18
  -5  -1   0 1287.44   20.81
  -1   5   0 1306.45   16.18
  -5  -1   0 1254.00   16.30
   5  -1   0 1284.54   15.44
  -1   5   0 1325.50   26.07
   1   5   0 1329.79   21.86
   1  -5  -1   99.43    5.28
  -1  -5  -1  101.32    6.06
  -5   1  -1   95.75    8.24
  -5  -1  -1   99.24    7.23
  -1   5   1   99.61    5.34
  -5  -1   1   89.57    9.08
  -5   1   1  107.50   12.29
  -1  -5   1  100.34    6.09
   1  -5   1   97.79    5.06
  -1   5  -1   89.66    4.72
   5   1  -1   93.40    5.76
  -5  -1   1   91.09    5.88
   5  -1  -1   99.31    8.80
  -5   1   1   97.64    5.24
   1  -5  -1   99.12    6.92
  -1   5   1   97.12   15.22
  -1   5  -1   98.02    9.83
   1   5   1   95.24    7.22
   1   5  -1  100.26   10.30
   1  -5  -2  487.25   12.29
  -1  -5  -2  548.29   11.80
  -1   5   2  527.27    8.37
  -5   1  -2  515.87   12.65
  -5  -1  -2  485.88   14.41
  -5  -1   2  537.58   12.62
  -5   1   2  485.40   15.36
  -1  -5   2  472.85   21.50
   1  -5   2  545.22    9.02
  -1   5  -2  453.73   19.55
   5   1  -2  470.26   20.71
   5  -1  -2  547.92   10.55
   1  -5  -2  491.78   14.79
  -1  -5  -2  551.41   13.79
  -1   5   2  531.46   11.88
  -1   5  -2  473.64   22.06
   1   5   2  451.21   20.70
   1   5  -2  539.56   13.26
   1  -5  -3  705.34   12.10
  -1  -5  -3  706.76   13.29
  -5   1  -3  714.24   16.84
  -5  -1  -3  711.75   15.13
  -5  -1   3  717.32   14.68
  -5   1   3  726.41   15.48
  -1  -5   3  720.01   13.08
   1  -5   3  732.71   12.72
   5   1  -3  710.45   12.46
   5  -1  -3  742.75   16.26
   5  -1   3  687.59   10.69
  -5  -1  -3  718.32   11.33
   1  -5  -3  705.24   15.63
  -1  -5  -3  714.98   22.59
   5   1   3  693.51   10.79
  -1   5   3  738.72   16.75
   1   5   3  722.57   15.90
  -1   5  -3  702.59   18.27
   1   5  -3  727.22   18.82
   1  -5  -4 1036.84   16.31
  -1  -5  -4 1004.43   20.71
  -5   1  -4 1007.11   18.04
  -5  -1  -4 1020.85   19.51
  -5  -1   4 1004.64   18.65
  -5   1   4 1095.65   19.30
  -1  -5   4 1079.75   20.75
   1  -5   4 1024.27   16.39
  -1   5  -4 1032.15   22.55
   1   5  -4  970.00   18.80
   5   1  -4 1041.13   22.60
  -5   1  -4 1015.61   15.79
   5  -1  -4 1029.49   18.69
  -5  -1  -4 1073.66   16.37
   1  -5  -4 1076.30   21.34
  -1  -5  -4  994.88   18.71
  -1   5   4 1042.05   22.32
   1   5   4 1024.65   17.12
  -1   5  -4 1057.79   18.95
   1   5  -4 1013.92   19.06
   1  -5  -5  692.73   19.21
  -1  -5  -5  667.40   18.52
  -5   1  -5  672.20   18.75
  -5  -1  -5  659.85   28.27
  -5  -1   5  643.77   18.31
  -5   1   5  652.83   18.58
  -1  -5   5  675.96   18.90
   1  -5   5  663.25   17.66
  -1   5  -5  687.22   22.47
   1   5  -5  674.40   21.91
   5   1  -5  678.33   19.15
  -5   1  -5  652.42   16.38
   5  -1  -5  700.04   25.28
  -5  -1  -5  707.14   21.19
   1  -5  -5  666.83   19.12
  -1  -5  -5  654.45   18.60
  -1   5   5  672.36   19.21
   1   5   5  677.83   18.42
  -1   5  -5  687.83   20.20
   1   5  -5  647.18   19.73
  -1  -5  -6  727.34   20.34
  -5   1  -6  714.51   21.61
  -5  -1  -6  718.80   20.63
  -5  -1   6  725.20   24.93
  -5   1   6  760.20   21.46
  -1  -5   6  737.34   20.11
   1  -5   6  755.26   24.63
  -1   5  -6  746.03   21.22
   1   5  -6  749.07   20.99
   5   1  -6  739.74   21.80
  -5   1  -6  723.86   19.63
   5  -1  -6  752.76   24.82
  -5  -1  -6  771.39   20.51
   1  -5  -6  764.92   21.79
  -1  -5  -6  752.25   22.82
   1   5   6  769.61   23.57
  -1   5  -6  780.03   21.26
   1   5  -6  727.19   22.04
  -1  -5  -7 1026.74   26.41
  -5   1  -7  998.95   32.46
  -5  -1  -7 1029.20   31.87
  -5  -1   7 1065.43   33.80
  -5   1   7 1049.54   31.10
  -1  -5   7 1054.16   29.30
   1  -5   7 1051.88   28.64
  -1   5   7 1017.66   28.32
  -1   5  -7 1024.38   26.69
   1   5  -7 1013.48   26.81
   5   1  -7 1048.42   27.21
  -5   1  -7 1047.89   25.90
   5  -1  -7 1043.45   32.17
  -5  -1  -7 1091.56   27.32
   1  -5  -7 1088.21   30.97
  -1  -5  -7 1010.70   27.59
   1   5   7 1030.00   26.71
   5   1   7  992.06   24.09
  -1   5  -7 1067.62   29.88
   1   5  -7 1042.14   27.68
  -1  -5  -8 1371.92   39.71
  -5   1  -8 1350.56   37.12
  -5  -1  -8 1220.46   34.28
  -5  -1   8 1341.64   36.55
  -5   1   8 1240.18   36.83
  -1  -5   8 1313.43   37.21
   1  -5   8 1371.60   36.74
  -1   5   8 1314.58   35.85
  -1   5  -8 1266.03   35.91
   1   5  -8 1425.65   39.86
   5   1  -8 1275.89   35.96
  -5   1  -8 1342.85   35.76
   5  -1  -8 1409.56   37.76
  -5  -1  -8 1352.81   35.77
   1  -5  -8 1320.86   36.71
  -1  -5  -8 1362.01   37.51
  -1   5  -8 1272.32   33.95
   1   5  -8 1390.38   37.21
  -1  -5  -9   54.32   11.36
  -5   1  -9   72.95   18.00
  -5  -1  -9   65.84   17.42
  -5  -1   9   61.97   17.85
  -5   1   9   80.18   20.25
  -1  -5   9   71.41   15.57
   1  -5   9   63.88   13.50
  -1   5   9   57.82    8.52
  -1   5  -9   64.98   16.81
   1   5  -9   52.68   17.81
   5   1  -9   78.80   16.16
  -5   1  -9   74.90   15.40
   5  -1  -9   56.94    9.47
  -5  -1  -9   72.64   15.69
   1  -5  -9   91.09   19.90
  -1  -5  -9   65.54   15.35
  -1   5  -9   77.50   16.21
   1   5  -9   70.91   14.59
   5  -1   9   41.57    7.63
  -1  -5 -10  372.51   17.82
  -5   1 -10  400.69   18.98
  -5  -1 -10  407.07   18.73
  -5  -1  10  392.53   28.07
  -5   1  10  423.45   19.27
  -1  -5  10  430.26   19.16
   1  -5  10  397.29   18.51
  -1   5  10  401.79   19.19
  -1   5 -10  350.56   21.82
   1   5 -10  382.52   19.85
   5   1 -10  414.83   17.92
  -5   1 -10  365.16   16.40
   5  -1 -10  410.15   20.25
  -5  -1 -10  402.74   18.27
   1  -5 -10  412.88   19.86
  -1  -5 -10  374.20   18.71
  -1   5 -10  404.30   24.98
   1   5 -10  416.78   18.74
  -1  -5 -11  227.85   22.02
  -5   1 -11  218.79   15.61
  -5  -1 -11  205.23   18.41
  -5  -1  11  208.05   20.62
  -5   1  11  210.44   14.51
  -1  -5  11  234.71   20.08
   1  -5  11  209.33   15.43
  -1   5  11  220.36   15.39
   1   5 -11  250.85   26.09
  -1   5 -11  219.91   14.54
   5   1 -11  215.29   20.18
  -5   1 -11  228.57   19.58
   5  -1 -11  239.95   19.64
  -5  -1 -11  211.81   16.42
   1  -5 -11  234.80   35.72
  -1  -5 -11  222.35   15.99
  -1   5 -11  215.17   19.97
   1   5 -11  228.24   17.93
  -5   1 -12  669.40   27.31
  -5  -1 -12  754.29   29.44
  -5  -1  12  654.27   35.92
  -5   1  12  744.70   31.70
  -1  -5  12  789.10   32.74
   1  -5  12  679.40   27.58
  -1   5  12  672.04   31.23
  -1   5 -12  792.50   29.67
   1   5 -12  684.65   47.86
   5   1 -12  740.68   28.11
  -5   1 -12  626.49   27.32
   5  -1 -12  692.14   29.26
  -5  -1 -12  719.71   33.71
   1  -5 -12  610.98   27.79
  -1  -5 -12  625.93   25.91
  -1   5 -12  809.30   28.19
   1   5 -12  644.59   31.54
  -5   1 -13   69.67   24.19
  -5  -1 -13   59.60   16.05
  -5  -1  13   72.72   21.28
  -5   1  13   71.01   24.53
  -1  -5  13   68.69   16.44
   1  -5  13   70.61   14.18
  -1   5  13   72.07   20.82
   1   5  13   64.36   16.85
   1   5 -13   74.07   17.35
  -1   5 -13   61.50   14.31
   5   1 -13   54.20   13.82
  -5   1 -13   72.57   17.59
   5  -1 -13   91.99   25.08
  -5  -1 -13   60.07   17.37
   1  -5 -13   65.13   13.57
  -1  -5 -13   85.48   25.71
  -1   5 -13   56.73   11.12
   1   5 -13   65.85   16.34
  -5   1 -14  132.31   18.73
  -5  -1 -14  128.27   21.51
  -5  -1  14  167.12   35.76
  -5   1  14  142.75   24.96
  -1  -5  14  113.30   38.03
   1  -5  14  135.15   15.15
  -1   5  14  148.16   32.06
   1   5  14  135.65   28.01
  -1   5 -14  115.14   21.57
   1   5 -14  163.68   28.92
   5   1 -14  156.77   34.71
  -5   1 -14  151.23    9.68
   5  -1 -14  140.14   39.07
  -5  -1 -14  130.59   25.15
   1  -5 -14  137.30   30.14
  -1  -5 -14  170.44   31.92
  -1   5 -14  118.08   27.40
   1   5 -14  141.16   22.39
  -5  -1 -15   68.68   16.04
  -5  -1  15   57.31   16.64
  -5   1  15   64.84   19.64
  -1  -5  15   48.18   20.85
   1  -5  15   57.34   15.82
  -1   5  15   70.65   19.51
   1   5  15   54.56   12.12
   5  -1  15   37.64   20.09
  -1   5 -15   53.97   15.59
   1   5 -15   63.07   13.99
   5   1 -15   65.09   15.01
  -5   1 -15   66.86   17.26
   5  -1 -15   59.81   17.01
  -5  -1 -15   58.70   22.25
   1  -5 -15   60.35   18.27
  -1  -5 -15   47.94   13.33
  -1   5 -15   35.86   14.42
   1   5 -15   47.55   13.47
  -5  -1  16  217.11   19.01
  -5   1  16  204.96   32.26
  -1  -5  16  232.68   58.39
   1  -5  16  257.82   17.56
  -1   5  16  215.71   22.86
   1   5  16  237.60   30.85
   5  -1  16  230.62   17.45
  -1   5 -16  200.83   23.80
   1   5 -16  251.27   44.78
   5   1 -16  240.75   17.73
  -5   1 -16  256.71   47.98
   5  -1 -16  242.52   22.16
  -5  -1 -16  218.89   12.70
   1  -5 -16  238.65   21.53
  -1  -5 -16  208.26   42.92
   1   5 -16  257.27   11.57
  -5  -1  17   54.69   15.11
  -5   1  17   52.14   22.86
  -1  -5  17   64.22   11.35
   1  -5  17   64.86   24.73
  -1   5  17   41.27   22.90
   1   5  17   35.92   11.66
   5  -1  17   53.97   20.57
   5   1  17   49.80   27.70
  -1   5 -17   63.99   17.70
   1   5 -17   65.47   16.52
   5   1 -17   75.04   16.52
  -5   1 -17   58.73   19.07
   5  -1 -17   57.02   18.24
  -5  -1 -17   48.24   17.53
   1  -5 -17   68.00   29.40
  -1  -5 -17   39.41   21.72
  -5  -1  18  108.42   35.27
  -5   1  18  137.30   43.92
  -1  -5  18  144.36   44.81
   1  -5  18  121.63   14.37
  -1   5  18  136.70   14.81
   1   5  18  121.50   38.41
   5  -1  18  139.28   22.49
   5   1  18  117.30   39.56
  -1   5 -18  183.42   48.41
   1   5 -18  142.74   32.69
   5   1 -18  166.58   28.55
  -5   1 -18  116.30   27.17
   5  -1 -18  150.52   26.44
  -5  -1 -18  142.96   16.76
   1  -5 -18  152.43   23.10
  -5  -1  19   13.75    8.72
  -5   1  19   18.15    6.19
  -1  -5  19    9.26    8.46
   1  -5  19    8.75    4.27
  -1   5  19    7.33    7.12
   1   5  19    6.37    9.79
   5  -1  19   11.78    5.63
   5   1  19   11.28    5.58
  -1   5 -19   13.95    9.15
   1   5 -19   15.04    6.04
   5   1 -19    7.40    7.00
  -5   1 -19   19.89    9.32
   5  -1 -19   18.56    6.16
  -5  -1 -19   12.61    8.10
   1  -5 -19   14.03   14.79
  -1  -5 -19   17.73   11.84
  -5  -1  20  147.89   43.92
  -5   1  20  148.60   20.87
  -1  -5  20  113.44   54.71
   1  -5  20  154.32   19.35
  -1   5  20  142.32   48.01
   1   5  20   87.70   42.11
   5  -1  20  114.15   52.41
   5   1  20  198.52   40.68
  -1   5 -20  170.19   36.20
   1   5 -20  151.77   48.60
   5   1 -20  152.25   27.69
  -5   1 -20  179.58   38.23
   5  -1 -20  175.34   39.90
  -5  -1 -20  134.86   45.58
   1  -5 -20  132.73   14.34
  -1  -5 -20  136.56   44.33
  -5   2   0  749.48   13.09
  -2  -5   0  772.96   15.10
  -5  -2   0  786.46   17.24
   2   5   0  798.52   17.03
  -5   2  -1  280.17   13.86
  -2  -5  -1  287.70   19.16
  -5  -2  -1  295.16   15.34
  -2   5   1  274.57   11.58
  -2  -5   1  271.42   13.19
  -5   2   1  278.66   13.41
  -5  -2   1  246.17   12.86
   2  -5   1  257.11   10.82
   5  -2   1  264.11   12.41
   5  -2  -1  260.78   12.80
   5  -2   1  283.15   12.44
  -5   2   1  294.99   14.54
   2  -5  -1  286.99   14.24
  -5  -2  -1  291.25   14.01
  -2   5   1  272.41   16.92
  -2   5  -1  294.24   18.23
   2   5   1  291.41   14.77
   2   5  -1  274.20   14.98
   2  -5   2 2222.38   27.60
  -2   5   2 2236.49   28.04
  -5   2  -2 2241.26   32.14
  -2  -5  -2 2249.40   31.47
  -5  -2  -2 2124.07   32.14
  -5  -2   2 2225.47   32.41
  -2  -5   2 2252.12   33.12
  -5   2   2 2241.01   31.08
   2  -5   2 2218.14   27.19
   5   2  -2 2159.34   28.90
  -5  -2  -2 2225.40   28.85
   2  -5  -2 2089.82   30.02
  -2  -5  -2 2221.10   32.09
  -2   5   2 2354.96   36.36
  -2   5  -2 2230.04   32.65
   2   5   2 2142.52   30.33
   2   5  -2 2342.99   34.92
  -5   2  -3  166.01   11.87
  -2  -5  -3  149.55   10.95
  -5  -2  -3  180.22   10.76
  -5  -2   3  168.48   10.32
  -2  -5   3  175.97   15.32
  -5   2   3  161.09    9.01
   2  -5   3  147.07    8.55
  -2   5   3  138.83    7.35
  -5   2  -3  166.70    9.78
   5   2  -3  182.06   11.91
   5  -2   3  144.56    8.76
   5  -2  -3  154.19   11.06
  -5  -2  -3  165.82    9.28
   2  -5  -3  175.21   14.81
  -2  -5  -3  154.98   18.62
  -2   5   3  145.43   11.41
  -2   5  -3  170.76   13.55
   2   5   3  179.54   11.50
   2   5  -3  161.42   23.37
  -5   2  -4  366.82   11.98
  -2  -5  -4  372.66   12.01
  -5  -2  -4  357.95   13.55
  -5  -2   4  354.79   21.38
  -2  -5   4  349.84   12.22
  -5   2   4  346.93   11.40
   2  -5   4  367.08   12.50
  -2   5   4  384.45   12.46
   2   5  -4  386.52   12.72
  -5   2  -4  382.71   10.34
   5   2  -4  363.97   17.53
   5  -2  -4  376.12   13.64
  -5  -2  -4  374.23   10.87
   2  -5  -4  371.27   16.20
  -2  -5  -4  363.48   17.98
  -2   5   4  375.92   18.13
  -2   5  -4  356.54   16.52
   2   5   4  357.31   15.50
   2   5  -4  364.93   13.51
  -5   2  -5 1097.39   29.07
  -2  -5  -5 1035.71   25.93
  -5  -2  -5 1034.68   28.64
  -5  -2   5 1028.80   26.86
  -2  -5   5 1021.64   26.45
  -5   2   5 1046.32   27.30
   2  -5   5 1098.46   27.20
  -2   5   5 1064.69   26.14
  -2   5  -5 1036.72   29.35
   2   5  -5 1061.88   29.19
  -5   2  -5 1055.56   24.65
   5   2  -5 1017.24   26.24
   5  -2  -5 1144.82   28.17
  -5  -2  -5 1031.79   25.05
   2  -5  -5 1026.18   26.31
  -2  -5  -5 1017.52   27.21
   2   5   5 1047.56   24.97
  -2   5  -5  987.99   27.19
   2   5  -5  993.15   29.51
  -5   2  -6  429.28   19.25
  -2  -5  -6  448.04   15.46
  -5  -2  -6  468.05   17.07
  -5  -2   6  456.52   23.10
  -2  -5   6  501.63   16.02
  -5   2   6  502.73   21.78
   2  -5   6  449.91   15.70
  -2   5   6  475.94   17.68
  -2   5  -6  501.01   16.67
   2   5  -6  464.56   15.04
  -5   2  -6  442.77   14.75
   5   2  -6  490.18   14.92
   5  -2  -6  514.74   20.90
  -5  -2  -6  477.95   14.18
   2  -5  -6  497.49   22.68
  -2  -5  -6  445.43   14.83
   2   5   6  486.89   14.43
  -2   5  -6  458.94   14.02
   2   5  -6  438.02   15.39
  -5   2  -7  196.05   13.81
  -2  -5  -7  201.19   11.65
  -5  -2  -7  218.57   24.86
  -5  -2   7  201.19   12.54
  -2  -5   7  216.10    9.88
  -5   2   7  222.48   14.38
   2  -5   7  202.06    9.62
  -2   5   7  206.32   10.11
  -2   5  -7  210.62    9.66
   2   5  -7  186.16   10.88
   5   2  -7  247.08   13.19
  -5   2  -7  204.14   11.64
   5  -2  -7  226.08   22.12
  -5  -2  -7  217.04   16.76
   2  -5  -7  207.92   11.05
  -2  -5  -7  182.39   10.32
   2   5   7  214.98    8.59
  -2   5  -7  194.78   15.48
   2   5  -7  210.55   15.98
  -5   2  -8  251.83   16.24
  -2  -5  -8  304.96   33.50
  -5  -2  -8  205.23   11.83
  -5  -2   8  253.91   12.12
  -2  -5   8  218.65   20.22
  -5   2   8  212.44   14.84
   2  -5   8  254.75   12.44
  -2   5   8  255.93   13.37
  -2   5  -8  203.14    9.69
   2   5  -8  238.60   21.32
   5   2  -8  214.98   10.12
  -5   2  -8  253.29   11.73
   5  -2  -8  253.34   12.59
  -5  -2  -8  210.99   10.13
   2  -5  -8  228.86   20.45
  -2  -5  -8  234.38   11.09
   2   5   8  215.80    8.19
  -2   5  -8  218.96   15.33
   2   5  -8  243.65   11.10
  -5   2  -9  176.75   11.27
  -2  -5  -9  197.41   19.14
  -5  -2  -9  160.39   22.76
  -5  -2   9  175.72   34.04
  -2  -5   9  159.07   20.83
  -5   2   9  169.07   19.23
   2  -5   9  182.05   18.86
  -2   5   9  188.17   24.83
  -2   5  -9  152.82   12.59
   2   5  -9  173.34   19.07
   5   2  -9  174.44   19.07
  -5   2  -9  174.12   16.83
   5  -2  -9  170.81   14.56
  -5  -2  -9  163.59   17.54
   2  -5  -9  172.37   12.10
  -2  -5  -9  207.23   33.29
  -2   5  -9  174.55   11.52
   2   5  -9  175.92   14.44
  -5   2 -10  306.03   19.20
  -2  -5 -10  293.16   24.50
  -5  -2 -10  293.79   29.54
  -5  -2  10  283.87   15.26
  -2  -5  10  328.50   38.51
  -5   2  10  307.79   15.54
   2  -5  10  296.54   21.88
  -2   5  10  293.09   14.94
  -2   5 -10  270.17   13.69
   2   5 -10  274.56   14.87
   5   2 -10  270.53   25.97
  -5   2 -10  319.61   15.82
   5  -2 -10  301.30   17.09
  -5  -2 -10  303.60   14.42
   2  -5 -10  288.56   27.18
  -2  -5 -10  285.35   25.57
  -2   5 -10  289.70   21.73
   2   5 -10  285.88   19.07
  -5   2 -11  331.75   22.95
  -2  -5 -11  316.71   25.09
  -5  -2 -11  271.73   26.54
  -5  -2  11  309.39   21.09
  -2  -5  11  267.48   35.01
  -5   2  11  273.83   16.18
   2  -5  11  300.04   24.94
  -2   5  11  282.65   17.23
  -2   5 -11  257.10   26.56
   2   5 -11  314.94   19.08
   5   2 -11  260.94   15.79
  -5   2 -11  335.74   18.44
   5  -2 -11  299.21   23.23
  -5  -2 -11  263.82   22.34
   2  -5 -11  260.51   23.00
  -2  -5 -11  303.84   18.67
   2   5 -11  328.09   18.32
  -5   2 -12  471.49   20.55
  -2  -5 -12  400.32   19.60
  -5  -2 -12  410.16   22.81
  -5  -2  12  454.29   25.85
  -2  -5  12  367.10   33.39
  -5   2  12  369.66   17.68
   2  -5  12  431.89   18.77
  -2   5  12  433.39   18.85
  -2   5 -12  402.46   19.04
   2   5 -12  363.39   18.65
   5   2 -12  377.46   18.13
  -5   2 -12  437.84   24.00
   5  -2 -12  424.23   20.79
  -5  -2 -12  357.19   18.44
   2  -5 -12  356.89   30.85
  -2  -5 -12  432.14   25.25
  -2   5 -12  388.24   16.23
   2   5 -12  435.96   20.55
  -5   2 -13  146.52   20.63
  -2  -5 -13  139.97   33.89
  -5  -2 -13  154.55   39.23
  -5  -2  13  126.71   27.17
  -2  -5  13  152.62   22.73
  -5   2  13  150.82   34.93
   2  -5  13  145.67   15.36
  -2   5  13  162.27   39.14
  -2   5 -13  199.01   34.96
   2   5 -13  172.90   35.61
   5   2 -13  177.82   34.07
  -5   2 -13  152.15   22.59
   5  -2 -13  137.57   33.33
  -5  -2 -13  175.19   31.23
   2  -5 -13  159.83   18.12
  -2  -5 -13  170.46   32.39
  -2   5 -13  166.63   19.65
   2   5 -13  137.41   31.28
  -5  -2 -14  482.05   20.56
  -5  -2  14  398.28   16.71
  -2  -5  14  437.93   25.56
  -5   2  14  479.60   18.05
   2  -5  14  418.71   18.75
  -2   5  14  464.07   35.20
   5  -2  14  448.06   16.65
  -2   5 -14  491.18   18.06
   2   5 -14  428.08   18.01
   5   2 -14  502.99   19.17
  -5   2 -14  475.77   20.28
   5  -2 -14  414.66   30.06
  -5  -2 -14  478.58   17.05
   2  -5 -14  493.90   21.76
  -2  -5 -14  458.62   19.80
  -2   5 -14  427.02   15.74
   2   5 -14  436.08   16.18
  -5  -2 -15   18.35    8.82
  -5  -2  15   16.18    7.45
  -2  -5  15   23.15    8.59
  -5   2  15   16.63    8.13
   2  -5  15   13.50    6.90
  -2   5  15   10.86    7.41
   5  -2  15   23.56   12.29
   2   5  15   30.05   10.79
  -2   5 -15   28.12    6.53
   2   5 -15   22.55    6.92
   5   2 -15   13.61    6.04
  -5   2 -15    8.91    5.73
   5  -2 -15   11.66    7.56
  -5  -2 -15   30.40   11.38
   2  -5 -15   23.49   11.76
  -2  -5 -15   25.01    7.82
   2   5 -15   17.94    4.79
  -5  -2 -16  323.08   32.23
  -5  -2  16  340.29   26.22
  -2  -5  16  341.95   16.46
  -5   2  16  346.06   25.40
   2  -5  16  314.63   14.69
   5  -2  16  336.39   40.79
   2   5  16  319.94   15.17
  -2   5 -16  340.98   17.71
   2   5 -16  335.03   15.91
   5   2 -16  311.49   39.99
  -5   2 -16  323.48   14.92
   5  -2 -16  345.61   34.45
  -5  -2 -16  325.64   26.68
   2  -5 -16  290.99   51.87
  -2  -5 -16  361.15   17.24
  -5  -2  17  174.99   31.37
  -2  -5  17  198.40   22.38
  -5   2  17  189.82   19.55
   2  -5  17  194.89   29.51
  -2   5  17  192.93   19.43
   5  -2  17  174.64   25.38
   2   5  17  173.33   46.90
   5   2  17  168.72   39.15
  -2   5 -17  188.93   33.88
   2   5 -17  241.77   49.19
   5   2 -17  219.85   46.42
  -5   2 -17  232.25   37.52
   5  -2 -17  198.70   25.91
  -5  -2 -17  198.85   39.31
   2  -5 -17  179.60   53.02
  -2  -5 -17  174.09   28.81
  -5  -2  18  196.28   18.89
  -2  -5  18  157.83   16.82
  -5   2  18  182.98   13.93
   2  -5  18  158.47   42.38
  -2   5  18  172.67   27.23
   5  -2  18  136.78   31.64
   2   5  18  155.90   18.43
   5   2  18  174.27   22.56
  -2   5 -18  160.47   36.84
   2   5 -18  175.21   34.34
  -5   2 -18  190.35   40.07
   5   2 -18  201.77   36.18
   5  -2 -18  176.55   22.80
  -5  -2 -18  182.70   13.99
   2  -5 -18  161.74   47.70
  -2  -5 -18  171.61   19.68
  -5  -2  19   43.69   26.63
  -2  -5  19   46.23   20.41
  -5   2  19   34.37   18.39
   2  -5  19   38.38   22.40
  -2   5  19   37.97   15.11
   5  -2  19   50.57   18.90
   2   5  19   39.05   30.11
   5   2  19   50.36   20.99
  -2   5 -19   64.07   20.06
   2   5 -19   60.29   17.44
  -5   2 -19   57.03   14.84
   5   2 -19   77.18   16.43
   5  -2 -19   49.64    9.84
  -5  -2 -19   48.66   19.47
   2  -5 -19   36.38   19.37
  -2  -5 -19   25.46   14.58
  -2   5 -20  131.97   36.12
   2   5 -20  104.45   37.80
  -5   2 -20  119.68   38.71
   5   2 -20  105.48   30.47
   5  -2 -20   85.56   42.88
  -5  -2 -20   82.70   26.64
   2  -5 -20   64.33   29.98
  -2  -5 -20   81.44   33.20
  -5   3   0  271.93   12.75
  -3  -5   0  249.78   12.97
  -5  -3   0  273.32   14.64
   5  -3   0  278.36   12.73
  -3   5   0  290.20   24.63
   3   5   0  284.40   20.70
  -3   5   1  661.34    8.25
  -5   3  -1  660.66   12.27
  -3  -5  -1  659.88   13.02
  -5  -3  -1  600.36   15.16
  -3   5   1  664.07    8.32
  -5   3   1  598.46   11.07
  -5  -3   1  690.72   23.88
  -3  -5   1  589.24   12.50
   3  -5   1  636.71    7.98
   3  -5   1  625.65    7.86
   5  -3  -1  663.18   12.47
   3  -5  -1  587.93   12.32
  -3   5   1  676.90   14.96
  -3   5  -1  587.56   15.09
   3   5   1  603.77   13.97
   3   5  -1  663.84   14.65
  -3   5   2  501.16   11.89
  -5   3  -2  500.81   13.40
   3  -5   2  481.06   11.53
  -3  -5  -2  485.42   14.09
  -5  -3  -2  547.57   13.64
  -5  -3   2  512.12   14.14
  -3  -5   2  545.29   17.18
   3  -5   2  489.20   12.06
   5  -3  -2  506.56   10.93
   3  -5  -2  547.79   11.98
  -5  -3  -2  537.65   11.68
  -3  -5  -2  490.75   14.48
  -3   5   2  506.28   16.39
  -3   5  -2  558.01   15.41
   3   5   2  533.89   13.48
   3   5  -2  522.74   13.92
  -5   3  -3 1166.49   27.57
  -3  -5  -3 1158.07   28.19
  -5  -3  -3 1093.40   28.11
  -5  -3   3 1173.05   29.64
  -3  -5   3 1158.29   35.69
  -5   3   3 1083.40   26.65
  -3   5   3 1201.41   28.14
   3  -5   3 1176.76   26.65
   5   3  -3 1084.51   28.93
   5  -3  -3 1214.71   28.60
  -5  -3  -3 1120.72   26.56
   3  -5  -3 1105.96   28.48
  -3  -5  -3 1142.96   28.57
  -3   5   3 1147.68   31.73
  -3   5  -3 1108.59   31.61
   3   5   3 1074.94   26.85
   3   5  -3 1148.25   29.18
  -5   3  -4  113.68    8.59
  -3  -5  -4  118.25   15.12
  -5  -3  -4  113.70    7.08
  -5  -3   4  106.79    7.36
  -3  -5   4  120.70    6.89
  -5   3   4  124.58    9.83
  -3   5   4  122.50    5.90
   3  -5   4  132.43   10.79
   3   5  -4  126.55    7.12
  -5   3  -4  115.73    5.76
   5   3  -4  122.79    6.56
   5  -3  -4  128.15    9.37
  -5  -3  -4  119.68    6.70
   3  -5  -4  134.98   14.25
  -3  -5  -4  118.48   18.28
  -3   5  -4  105.19   10.04
   3   5   4  101.13    5.49
   3   5  -4  141.87   24.39
  -5   3  -5  109.19   11.94
  -3  -5  -5  129.33   22.65
  -5  -3  -5  138.50    8.05
  -5  -3   5  114.53    7.78
  -3  -5   5  130.92   11.25
  -5   3   5  130.98    8.43
  -3   5   5  112.48    6.75
   3  -5   5  126.80   11.30
  -3   5  -5  153.03   10.47
   3   5  -5  142.46   21.07
  -5   3  -5  116.92    6.36
   5   3  -5  149.19   10.30
   5  -3  -5  134.48   19.47
  -5  -3  -5  124.87    8.16
   3  -5  -5  124.76    8.12
  -3  -5  -5  122.45    7.34
  -3   5  -5  146.85   17.16
   3   5   5  134.61    8.14
   3   5  -5  130.18   14.71
  -5   3  -6 2254.04   51.53
  -3  -5  -6 2238.27   52.75
  -5  -3  -6 2264.34   53.76
  -5  -3   6 2343.60   54.69
  -3  -5   6 2157.68   52.48
  -5   3   6 2098.72   48.30
  -3   5   6 2245.19   51.19
  -3   5  -6 2123.12   48.92
   3   5  -6 2333.79   54.11
  -5   3  -6 2251.68   50.37
   5   3  -6 2290.98   53.25
   5  -3  -6 2389.65   55.53
  -5  -3  -6 2186.93   49.96
   3  -5  -6 2085.27   49.93
  -3  -5  -6 2214.64   51.61
  -3   5  -6 2114.96   49.22
   3   5   6 2141.31   47.29
   5   3   6 2260.14   49.79
   3   5  -6 2241.22   52.40
  -5   3  -7  830.55   31.77
  -3  -5  -7  809.42   24.10
  -5  -3  -7  770.07   24.60
  -5  -3   7  792.56   24.28
  -3  -5   7  750.07   29.66
  -5   3   7  766.50   25.61
  -3   5   7  847.06   29.99
   3  -5   7  847.62   30.32
  -3   5  -7  751.12   22.97
   3   5  -7  805.98   24.40
  -5   3  -7  853.70   24.16
   5   3  -7  769.77   24.03
   5  -3  -7  855.96   26.26
  -5  -3  -7  780.06   22.87
   3  -5  -7  781.41   23.92
  -3  -5  -7  837.48   25.48
  -5   3  -7  777.69   22.79
   3   5   7  802.92   21.18
  -3   5  -7  808.29   28.10
   5   3   7  825.80   20.73
   3   5  -7  833.97   28.45
  -5   3  -8   40.46    7.58
  -5  -3  -8   56.99   16.05
  -5  -3   8   35.97   10.18
  -3  -5   8   61.49   13.33
  -5   3   8   51.17   13.72
  -3   5   8   31.87    8.67
   3  -5   8   45.89    9.44
  -3   5  -8   50.27    9.79
   3   5  -8   35.77    9.59
  -5   3  -8   39.08   11.50
   5   3  -8   50.69   14.55
   5  -3  -8   51.71   11.59
  -5  -3  -8   43.36   10.94
   3  -5  -8   49.34    6.89
  -3  -5  -8   42.40   10.85
  -5   3  -8   32.38    7.87
   3   5   8   42.01    4.97
  -3   5  -8   40.28   11.71
   5   3   8   31.61    4.26
   3   5  -8   44.60    8.85
  -5   3  -9  238.89   15.05
  -3  -5  -9  231.86   19.24
  -5  -3  -9  192.63   18.91
  -5  -3   9  208.06   14.35
  -3  -5   9  228.08   33.19
  -5   3   9  206.06   24.63
  -3   5   9  231.66   18.92
   3  -5   9  246.94   20.61
  -3   5  -9  208.59   11.74
   3   5  -9  208.45   21.16
  -5   3  -9  227.49   13.75
   5   3  -9  198.99   11.56
   5  -3  -9  238.46   18.32
  -5  -3  -9  210.14   13.60
   3  -5  -9  201.51   13.70
  -3  -5  -9  214.83   14.06
  -5   3  -9  229.63   13.28
  -3   5  -9  203.67   11.90
   3   5  -9  245.38   25.41
  -5   3 -10  367.92   18.71
  -3  -5 -10  361.56   17.27
  -5  -3 -10  370.90   23.61
  -5  -3  10  330.61   16.97
  -3  -5  10  366.71   17.54
  -5   3  10  343.80   22.57
  -3   5  10  365.58   18.63
   3  -5  10  367.60   19.36
  -3   5 -10  351.59   16.30
   3   5 -10  388.21   18.88
  -5   3 -10  361.43   16.03
   5   3 -10  353.31   17.22
   5  -3 -10  355.42   19.98
  -5  -3 -10  363.36   17.17
   3  -5 -10  352.93   29.29
  -3  -5 -10  368.12   18.87
  -5   3 -10  352.23   16.20
  -3   5 -10  348.10   22.32
   3   5 -10  352.58   16.50
  -5   3 -11   72.96   15.35
  -3  -5 -11   54.06   12.84
  -5  -3 -11   47.98   14.98
  -5  -3  11   40.68   12.90
  -3  -5  11   50.58   12.70
  -5   3  11   52.25   13.16
  -3   5  11   46.45   12.26
   3  -5  11   42.24   10.48
  -3   5 -11   35.45    7.65
   3   5 -11   36.91    9.77
  -5   3 -11   46.73   11.79
   5   3 -11   60.11   13.89
   5  -3 -11   33.50    9.42
  -5  -3 -11   49.46   13.24
   3  -5 -11   44.21   10.27
  -3  -5 -11   40.04   10.51
  -5   3 -11   31.38    7.71
  -3   5 -11   42.85   11.75
   3   5 -11   40.40    9.75
  -3  -5 -12   76.21   19.85
  -5  -3 -12  102.16   19.59
  -5  -3  12   63.59   16.82
  -3  -5  12   79.56   14.43
  -5   3  12   92.57   27.66
  -3   5  12   64.52   16.69
   3  -5  12   83.91   21.66
  -3   5 -12  102.73   21.10
   3   5 -12   78.78   17.86
  -5   3 -12   69.14   18.35
   5   3 -12  100.38   27.19
   5  -3 -12   69.99   16.36
  -5  -3 -12   84.69   17.83
   3  -5 -12   73.90    8.31
  -3  -5 -12   82.38   17.01
  -3   5 -12   90.40   13.11
   3   5 -12   80.89   17.33
  -3  -5 -13  500.31   40.57
  -5  -3 -13  453.98   22.72
  -5  -3  13  474.22   22.71
  -3  -5  13  448.42   23.40
  -5   3  13  451.01   23.67
  -3   5  13  475.36   21.57
   3  -5  13  484.57   26.17
   5  -3  13  445.19   21.56
  -3   5 -13  441.75   23.36
   3   5 -13  529.11   25.75
  -5   3 -13  487.97   24.14
   5   3 -13  460.32   22.19
   5  -3 -13  451.94   24.30
  -5  -3 -13  445.18   20.97
   3  -5 -13  450.37   26.05
  -3  -5 -13  483.21   23.29
  -3   5 -13  437.13   27.15
   3   5 -13  460.55   20.76
  -3  -5 -14   88.96   28.01
  -5  -3 -14   83.41   21.81
  -5  -3  14   87.42   22.58
  -3  -5  14  105.18   27.88
  -5   3  14   85.09   23.80
  -3   5  14  104.13   29.01
   3  -5  14   83.47   22.57
   5  -3  14   72.66    9.50
  -3   5 -14   93.29   25.57
   3   5 -14  128.45   26.75
   5   3 -14  102.16   22.55
  -5   3 -14   84.08   13.96
   5  -3 -14  102.70   24.61
  -5  -3 -14   65.99   29.85
   3  -5 -14   81.49   22.04
  -3  -5 -14  117.16   23.34
  -3   5 -14   60.68   14.66
   3   5 -14  106.40   23.34
  -3  -5 -15  280.69   38.16
  -5  -3 -15  251.07   31.27
  -5  -3  15  280.13   22.98
  -3  -5  15  185.62   50.34
  -5   3  15  212.93   25.91
  -3   5  15  238.97   30.53
   3  -5  15  242.24   16.96
   5  -3  15  196.93   25.07
  -3   5 -15  250.28   30.37
   3   5 -15  314.19   54.53
  -5   3 -15  264.34   15.02
   5   3 -15  256.64   47.65
   5  -3 -15  230.86   27.82
  -5  -3 -15  235.59   14.93
   3  -5 -15  220.89   46.57
  -3  -5 -15  249.37   15.26
   3   5 -15  247.08   16.68
  -5  -3 -16   29.55   11.75
  -5  -3  16   37.14   11.95
  -3  -5  16   22.30   11.15
  -5   3  16   38.62   10.19
  -3   5  16   34.36   11.16
   3  -5  16   34.97   13.89
   5  -3  16   39.46   11.08
   3   5  16   25.51   14.31
  -3   5 -16   42.48   20.75
   3   5 -16   36.04   10.92
   5   3 -16   45.11   10.90
  -5   3 -16   37.59   13.37
   5  -3 -16   17.72    8.05
  -5  -3 -16   38.33   11.79
   3  -5 -16   36.29   16.13
  -3  -5 -16   30.73   11.45
   3   5 -16   24.84    9.46
  -5  -3  17   27.77   12.01
  -3  -5  17   29.21    8.18
  -5   3  17   28.49    7.85
  -3   5  17   13.44    6.48
   3  -5  17   12.66    6.88
   5  -3  17   25.66   11.97
   3   5  17   29.90    8.37
  -3   5 -17   35.28   12.17
   3   5 -17   23.92    8.84
   5   3 -17   37.08   10.76
  -5   3 -17   25.60    7.73
   5  -3 -17   26.32    9.44
  -5  -3 -17   20.50   10.30
   3  -5 -17   15.65    9.80
  -3  -5 -17   14.27    7.65
   3   5 -17   17.08    8.39
  -5  -3  18  172.08   23.43
  -3  -5  18  153.10   31.86
  -5   3  18  169.83   29.66
  -3   5  18  147.53   44.59
   3  -5  18  180.26   21.03
   5  -3  18  166.12   14.97
   3   5  18  189.15   15.53
   5   3  18  198.39   18.04
  -3   5 -18  195.35   30.19
   3   5 -18  201.34   50.81
  -5   3 -18  186.68   37.26
   5   3 -18  216.01   43.98
   5  -3 -18  179.09   47.12
  -5  -3 -18  175.41   20.22
   3  -5 -18  173.68   20.44
  -3  -5 -18  134.50   52.93
  -5  -3  19   92.61   44.47
  -3  -5  19  119.15   27.86
  -5   3  19   93.55   30.83
  -3   5  19   94.53   36.20
   3  -5  19   94.61   37.94
   5  -3  19   87.65   40.34
   3   5  19  124.46   19.34
   5   3  19   97.12   25.97
  -3   5 -19  148.93   46.81
   3   5 -19  124.59   32.53
  -5   3 -19  129.34   32.89
   5   3 -19  168.23   28.13
   5  -3 -19  105.67   20.88
  -5  -3 -19  119.96   33.08
   3  -5 -19  114.42   21.84
  -3  -5 -19   91.96   39.22
  -4   5   0 2941.52   62.00
  -5   4   0 3035.73   71.22
  -4  -5   0 2917.86   65.19
  -5  -4   0 3076.05   74.66
   4  -5   0 2901.20   61.16
   5  -4   0 3267.25   77.14
   4  -5   0 3056.71   73.47
  -4   5   0 2903.92   65.95
   4   5   0 3086.17   74.88
  -5   4  -1  436.16   11.51
  -4  -5  -1  445.02   14.03
  -5  -4  -1  511.39   17.39
  -5   4   1  467.71   12.14
  -4  -5   1  511.23   15.36
  -5  -4   1  447.89   14.83
   4  -5   1  419.19    9.82
   4  -5  -1  454.05   10.51
   5  -4  -1  451.14   14.20
   4  -5  -1  504.79   15.72
  -4   5  -1  492.75   15.47
   4   5   1  481.41   15.03
  -5   4  -2  934.10   22.07
  -4  -5  -2  967.05   25.36
  -5  -4  -2  936.21   25.74
   4  -5   2  911.58   20.52
  -5  -4   2  916.56   28.40
  -4  -5   2  948.80   24.35
  -5   4   2  968.78   24.27
   4  -5  -2  881.28   19.83
   5  -4  -2  960.08   23.42
   4  -5  -2  930.70   26.37
  -5  -4  -2  952.08   24.34
  -4  -5  -2  891.17   22.72
  -4   5  -2  928.57   27.17
   4   5   2  917.82   23.45
  -4   5  -3  113.44    7.74
  -5   4  -3  125.97   10.12
  -4  -5  -3  138.36   20.45
  -5  -4  -3  124.65   21.69
  -5  -4   3  136.19    9.34
  -4  -5   3  102.24    7.97
  -5   4   3  103.99    5.63
  -4   5   3  117.47    6.60
   5  -4  -3  121.64    6.68
   4  -5  -3   98.86    7.91
  -5  -4  -3  103.57   10.35
  -4  -5  -3  107.21    6.90
  -5   4  -3  118.37    7.14
  -4   5  -3  120.28    8.99
   4   5   3  108.54   14.80
  -4   5  -4 1047.56   25.85
  -5   4  -4 1093.62   26.10
  -4  -5  -4 1145.20   29.27
  -5  -4  -4 1048.08   27.72
  -4  -5   4 1090.53   29.29
  -5   4   4 1078.59   25.90
  -4   5   4 1131.77   26.31
   4   5  -4 1143.66   28.56
   5   4  -4 1047.36   26.11
   5  -4  -4 1177.69   28.87
   4  -5  -4 1048.98   26.85
  -5  -4  -4 1069.97   27.90
  -4  -5  -4 1078.87   27.05
  -5   4  -4 1108.02   29.47
  -4   5  -4 1050.36   30.75
   4   5   4 1053.29   25.75
  -4   5  -5  797.55   23.11
  -5   4  -5  812.54   21.06
  -4  -5  -5  750.42   22.45
  -5  -4  -5  772.62   22.61
  -5  -4   5  764.39   21.73
  -4  -5   5  765.87   21.30
  -5   4   5  806.10   23.04
  -4   5   5  817.44   24.49
  -5   4  -5  797.01   20.34
   4   5  -5  791.57   22.38
   5   4  -5  805.97   21.91
   5  -4  -5  766.21   20.64
   4  -5  -5  762.01   21.81
  -5  -4  -5  773.32   20.63
  -4  -5  -5  753.54   20.82
  -5   4  -5  773.89   21.20
  -4   5  -5  815.18   22.64
   4   5   5  761.88   19.24
   5   4   5  776.44   20.11
  -5   4  -6  810.64   25.81
  -4  -5  -6  813.18   24.34
  -5  -4  -6  814.39   24.26
  -5  -4   6  794.60   28.13
  -4  -5   6  871.78   25.59
  -5   4   6  815.62   23.09
  -4   5   6  831.50   25.55
  -4   5  -6  834.14   23.60
  -5   4  -6  789.93   22.56
   4   5  -6  800.12   23.97
   5   4  -6  797.39   23.22
   5  -4  -6  796.46   24.01
   4  -5  -6  845.17   25.30
  -5  -4  -6  791.40   24.07
  -4  -5  -6  829.24   24.36
  -5   4  -6  767.12   22.30
  -4   5  -6  824.05   24.87
   4   5   6  824.09   21.70
   5   4   6  792.45   20.73
  -5   4  -7  506.69   18.36
  -4  -5  -7  515.13   17.97
  -5  -4  -7  487.48   17.68
  -5  -4   7  504.78   24.12
  -4  -5   7  517.86   17.84
  -5   4   7  515.44   22.17
  -4   5   7  483.85   20.98
   4  -5   7  507.13   19.76
  -4   5  -7  513.98   22.25
   4   5  -7  486.98   17.91
  -5   4  -7  498.32   16.03
   5   4  -7  500.16   17.84
   5  -4  -7  509.67   17.65
   4  -5  -7  483.22   16.88
  -5  -4  -7  505.15   17.54
  -4  -5  -7  533.69   18.15
  -5   4  -7  506.61   16.16
  -4   5  -7  492.11   19.72
   4   5   7  491.29   13.92
   5   4   7  508.45   14.11
  -5   4  -8  384.27   19.26
  -4  -5  -8  385.69   18.05
  -5  -4  -8  390.89   18.73
  -5  -4   8  408.83   22.86
  -4  -5   8  353.86   17.08
  -5   4   8  331.66   18.11
  -4   5   8  412.97   19.05
   4  -5   8  396.69   17.36
  -4   5  -8  348.53   18.12
   4   5  -8  379.30   17.32
  -5   4  -8  396.37   18.03
   5   4  -8  347.36   15.92
   5  -4  -8  400.93   25.74
   4  -5  -8  346.94   19.05
  -5  -4  -8  364.78   17.23
  -4  -5  -8  359.92   23.67
  -5   4  -8  406.75   20.09
  -4   5  -8  347.40   18.70
   4   5   8  377.55   14.66
   5   4   8  403.24   15.00
  -5   4  -9   98.44   20.52
  -4  -5  -9   38.68   14.26
  -5  -4  -9   57.74   11.95
  -5  -4   9   45.81   11.42
  -4  -5   9   46.98   12.46
  -5   4   9   59.10   12.76
  -4   5   9   31.70    7.96
   4  -5   9   47.46    9.38
  -4   5  -9   51.23   12.03
   4   5  -9   40.85   14.03
   5   4  -9   60.93   12.62
   5  -4  -9   37.04    9.02
   4  -5  -9   60.13    7.34
  -5  -4  -9   51.57   12.81
  -4  -5  -9   45.07   13.22
   4   5   9   47.18    8.80
  -4   5  -9   51.96   12.55
  -5   4 -10  215.57   14.91
  -4  -5 -10  192.21   20.91
  -5  -4 -10  172.69   33.54
  -5  -4  10  195.06   32.53
  -4  -5  10  208.64   30.92
  -5   4  10  173.61   20.34
  -4   5  10  199.45   23.96
   4  -5  10  205.25   15.79
  -4   5 -10  193.72   12.51
   4   5 -10  197.90   13.56
  -5   4 -10  177.17   11.07
   5   4 -10  188.37   33.90
   5  -4 -10  192.36   18.91
   4  -5 -10  183.24   19.46
  -5  -4 -10  174.15   18.41
  -4  -5 -10  194.13   14.84
  -5   4 -10  182.54   15.79
  -4   5 -10  180.60   21.30
  -4  -5 -11  693.90   30.07
  -5  -4 -11  703.71   35.18
  -5  -4  11  714.23   28.39
  -4  -5  11  721.08   35.71
  -5   4  11  728.92   33.58
  -4   5  11  695.21   29.23
   4  -5  11  710.21   39.57
   5  -4  11  697.28   26.17
  -4   5 -11  754.07   28.14
   4   5 -11  694.17   27.07
  -5   4 -11  773.47   31.97
   5   4 -11  747.92   30.20
   5  -4 -11  695.52   27.24
  -5  -4 -11  751.45   29.76
   4  -5 -11  690.68   50.53
  -4  -5 -11  706.64   27.13
  -5   4 -11  717.97   24.64
  -4   5 -11  729.04   28.42
  -4  -5 -12  316.16   32.63
  -5  -4 -12  294.66   34.81
  -5  -4  12  302.40   41.44
  -4  -5  12  254.43   40.91
  -5   4  12  294.53   15.85
  -4   5  12  302.42   16.76
   4  -5  12  316.79   34.65
   5  -4  12  329.72   36.42
  -4   5 -12  265.00   17.55
   4   5 -12  296.56   44.88
  -5   4 -12  299.85   23.44
   5   4 -12  288.61   15.83
   5  -4 -12  309.62   22.28
  -5  -4 -12  277.20   22.38
   4  -5 -12  303.73   33.61
  -4  -5 -12  295.24   18.62
  -5   4 -12  282.26   11.92
  -4   5 -12  263.71   17.49
  -4  -5 -13    9.24   10.12
  -5  -4 -13    8.41   10.41
  -5  -4  13    7.93    5.03
  -4  -5  13    8.70    8.99
  -5   4  13    6.08    4.16
  -4   5  13    5.01    5.84
   4  -5  13   12.32    7.25
   5  -4  13    2.48    2.94
  -4   5 -13    5.01    6.13
  -5   4 -13    1.12    3.69
   5   4 -13    2.54    4.85
   5  -4 -13    1.68    6.27
  -5  -4 -13    3.69    4.00
   4  -5 -13    6.98    5.20
  -4  -5 -13    6.60    4.64
  -4   5 -13    1.07    3.00
   4   5 -13    7.26    4.27
  -4  -5 -14  177.78   25.35
  -5  -4 -14  168.40   33.63
  -5  -4  14  164.38   47.18
  -4  -5  14  146.72   38.59
  -5   4  14  180.31   39.32
  -4   5  14  167.60   33.94
   4  -5  14  185.08   19.59
   5  -4  14  158.89   35.85
  -4   5 -14  178.96   40.76
   4   5 -14  195.64   40.21
  -5   4 -14  186.93   34.46
   5   4 -14  190.04   40.06
   5  -4 -14  152.80   43.02
  -5  -4 -14  140.63   37.29
   4  -5 -14  186.90   23.33
  -4  -5 -14  173.57   41.19
   4   5 -14  176.35   23.55
  -4  -5 -15   71.15   19.22
  -5  -4 -15   80.60   23.55
  -5  -4  15   78.89   14.98
  -4  -5  15   75.77   12.07
  -5   4  15   76.47   30.00
  -4   5  15   82.53   27.79
   4  -5  15   69.24   22.16
   5  -4  15   77.61    9.15
  -4   5 -15  115.90   22.21
   4   5 -15   89.10   22.72
  -5   4 -15   85.61   17.95
   5   4 -15   91.47   19.13
   5  -4 -15   82.17   22.65
  -5  -4 -15   70.69   23.62
   4  -5 -15   79.18   25.68
  -4  -5 -15   89.83   22.79
   4   5 -15   78.07   24.27
  -4  -5 -16   70.47   23.48
  -5  -4 -16   83.47   18.40
  -5  -4  16   57.67   10.77
  -4  -5  16   72.53   23.73
  -5   4  16   63.65   22.73
  -4   5  16   83.22   21.20
   4  -5  16   65.88   20.55
   5  -4  16   76.28   25.06
  -4   5 -16   76.86   17.43
   4   5 -16   83.29   18.11
  -5   4 -16   82.22   18.36
   5   4 -16   85.53   27.99
   5  -4 -16   67.93   22.76
  -5  -4 -16   66.88   26.42
   4  -5 -16   63.13   26.13
  -4  -5 -16   48.35   19.58
   4   5 -16   56.38   19.70
  -5  -4 -17  155.13   16.76
  -5  -4  17  142.16   27.22
  -4  -5  17  114.12   38.16
  -5   4  17  146.18   42.14
  -4   5  17  136.33   26.78
   4  -5  17  142.09   20.35
   5  -4  17  137.21   25.38
   4   5  17  117.11   48.96
  -4   5 -17  187.99   33.45
   4   5 -17  169.96   47.67
  -5   4 -17  175.41   44.20
   5   4 -17  158.23   39.66
   5  -4 -17  135.76   44.05
  -5  -4 -17  113.50   34.01
   4  -5 -17  135.11   16.21
  -4  -5 -17   94.52   46.65
   4   5 -17  109.57   33.28
   5   4 -17  102.31   34.72
  -5  -4  18   61.63   26.00
  -4  -5  18   54.50   17.05
  -5   4  18   71.81   26.40
  -4   5  18   51.61   27.13
   4  -5  18   60.24   30.20
   5  -4  18   61.12   29.84
   4   5  18   57.92   27.50
   5   4  18   59.69   31.00
  -4   5 -18   80.64   27.88
   4   5 -18   66.07   25.18
  -5   4 -18   61.26   17.54
   5   4 -18   86.08   28.63
   5  -4 -18   61.57   25.56
  -5  -4 -18   68.49   19.32
   4  -5 -18   52.43   22.16
  -4  -5 -18   56.11   23.95
   5   4 -18   51.89   24.45
  -5  -4  19   21.09    8.58
  -4  -5  19    7.34    6.39
  -5   4  19   26.50   15.44
  -4   5  19   23.30   13.48
   4  -5  19   19.39   14.38
   5  -4  19   19.99    9.03
   4   5  19   14.45    5.64
  -4   5 -19   35.22   13.09
   4   5 -19   25.29    9.65
  -5   4 -19   41.22   13.71
   5   4 -19   32.22   12.14
   5  -4 -19   20.60    9.80
  -5  -4 -19   19.87    9.78
   4  -5 -19   27.82    8.28
  -4  -5 -19    8.96    9.17
  -5  -5   0  517.97   16.00
   5  -5   0  452.50   11.32
   5  -5   0  520.31   14.43
  -5   5  -1 1605.68   35.13
  -5  -5  -1 1593.09   38.66
  -5  -5   1 1558.96   38.21
   5  -5  -1 1637.10   37.90
  -5   5  -1 1526.24   38.90
  -5   5  -2   88.10    6.75
  -5  -5  -2  101.30   12.34
  -5  -5   2  115.01   19.54
  -5   5   2   95.50    5.21
   5  -5  -2  122.91   16.40
  -5  -5  -2   73.99   13.92
  -5   5  -2   90.37   11.20
   5   5   2   97.91    9.74
  -5   5  -3  793.04   19.23
  -5  -5  -3  754.73   29.44
  -5  -5   3  761.82   21.29
  -5   5   3  800.98   19.62
   5  -5  -3  845.21   22.19
  -5  -5  -3  752.19   23.60
  -5   5  -3  764.21   23.42
   5   5   3  774.97   20.61
  -5   5  -4  269.02   12.41
  -5  -5  -4  260.96   15.89
  -5  -5   4  245.45   12.56
  -5   5   4  270.14   14.51
   5  -5  -4  270.74   15.63
  -5  -5  -4  251.30   11.12
  -5   5  -4  251.18   14.35
   5   5   4  279.72   18.93
  -5   5  -5   47.16    5.44
  -5  -5  -5   54.96    7.97
  -5  -5   5   37.33    7.44
  -5   5   5   59.28   12.94
   5   5  -5   45.14   10.14
   5  -5  -5   52.24    6.56
  -5  -5  -5   58.90   11.03
  -5   5  -5   45.86   10.76
   5   5   5   51.63    9.53
  -5   5  -6  117.43    7.65
  -5  -5  -6  114.07   13.66
  -5  -5   6  134.82   22.84
  -5   5   6  116.46   10.71
  -5   5  -6  118.02   11.92
   5   5  -6  112.47    7.17
   5  -5  -6  107.45    9.44
  -5  -5  -6  152.15   24.76
  -5   5  -6  127.40    9.35
   5   5   6  120.05   12.20
  -5   5  -7   95.15   16.45
  -5  -5  -7  107.67   15.25
  -5  -5   7  106.81   18.48
  -5   5   7  101.45   11.11
  -5   5  -7  103.50   13.25
   5   5  -7   94.44   13.10
   5  -5  -7   99.58    8.77
  -5  -5  -7   97.48   19.69
  -5   5  -7  100.92   11.04
   5   5   7  100.40   12.16
  -5   5  -8  101.82    8.49
  -5  -5  -8  109.65   24.42
  -5  -5   8  108.01   18.72
  -5   5   8  118.08   22.97
  -5   5  -8  101.36   15.95
   5   5  -8  111.81   26.60
   5  -5  -8  126.98   14.33
  -5  -5  -8   95.83   22.96
  -5   5  -8  111.29   16.38
   5   5   8   99.29   11.02
  -5  -5  -9 1028.05   38.79
  -5  -5   9 1040.64   39.08
  -5   5   9 1093.18   45.39
   5  -5   9 1052.85   37.14
  -5   5  -9 1039.80   36.56
   5   5  -9 1081.26   39.15
   5  -5  -9  992.89   41.13
  -5  -5  -9 1035.55   37.51
  -5   5  -9 1076.06   39.51
   5   5   9 1067.47   34.34
  -5  -5 -10    6.64    7.19
  -5  -5  10   13.54   10.23
  -5   5  10   22.08    6.52
   5  -5  10    7.54    4.87
  -5   5 -10   13.88    5.63
   5   5 -10   14.70    5.55
   5  -5 -10   21.78    9.13
  -5  -5 -10   13.72    7.34
  -5   5 -10   12.80    4.58
  -5  -5 -11  143.62   17.05
  -5  -5  11  122.42   27.02
  -5   5  11  150.32   31.35
   5  -5  11  147.50   24.51
  -5   5 -11  141.95   25.06
   5   5 -11  139.24   25.72
   5  -5 -11  141.18   30.68
  -5  -5 -11  127.58   10.57
  -5   5 -11  137.82   13.97
  -5  -5 -12  188.08   41.36
  -5  -5  12  189.62   32.72
  -5   5  12  168.41   20.92
   5  -5  12  180.21   18.94
  -5   5 -12  171.59   23.71
   5   5 -12  210.64   43.29
   5  -5 -12  193.35   17.07
  -5  -5 -12  179.65   13.55
  -5   5 -12  180.50   12.63
  -5  -5 -13  338.39   18.90
  -5  -5  13  373.05   27.40
  -5   5  13  389.92   28.99
   5  -5  13  360.55   36.95
  -5   5 -13  368.82   18.17
   5   5 -13  365.45   21.70
   5  -5 -13  351.12   31.25
  -5  -5 -13  352.37   19.26
  -5   5 -13  337.21   13.73
  -5  -5 -14   33.71   13.48
  -5  -5  14   34.60    9.61
  -5   5  14   39.53   20.22
   5  -5  14   33.29   14.13
  -5   5 -14   39.70   12.22
   5   5 -14   31.42   12.98
   5  -5 -14   42.64   11.16
  -5  -5 -14   43.01   15.22
  -5  -5 -15  173.11   34.78
  -5  -5  15  136.68   30.52
  -5   5  15  125.55   22.49
   5  -5  15  133.30   19.14
  -5   5 -15  148.75   23.20
   5   5 -15  180.37   35.52
   5  -5 -15  146.20   20.09
  -5  -5 -15  116.48   43.75
   5   5 -15  117.57   32.38
  -5   5  16  341.38   27.41
   5  -5  16  326.99   16.44
  -5   5 -16  362.11   18.56
   5   5 -16  418.17   61.94
   5  -5 -16  301.71   48.27
  -5  -5 -16  369.64   17.12
   5   5 -16  314.97   27.33
  -5  -5 -17   37.84   19.18
  -5  -5  17   54.42   16.29
  -5   5  17   43.99   16.34
   5  -5  17   52.29   21.27
  -5   5 -17   78.94   26.34
   5   5 -17   66.73   18.55
   5  -5 -17   59.34   14.97
  -5  -5 -17   45.31   17.21
   5   5 -17   43.44   12.96
  -5  -5  18    7.84    8.26
  -5   5  18    6.72   10.16
   5  -5  18    2.59    4.88
   5   5  18    9.67   10.22
  -5   5 -18    6.85    6.55
   5   5 -18    5.72    7.25
   5  -5 -18   13.55    6.75
  -5  -5 -18    2.77    5.52
   5   5 -18    5.58    3.09
  -5  -5  19   60.43   31.01
  -5   5  19   88.08   26.05
   5  -5  19   69.17   26.25
   5   5  19   61.57   36.76
  -5   5 -19   79.09   19.08
   5   5 -19   92.91   20.36
   5  -5 -19   68.45   25.19
  -5  -5 -19   61.06   15.46
   0  -6   0 1176.82   16.56
  -6   0   0 1119.29   19.27
   0  -6  -1 1220.87   17.69
  -6   0  -1 1215.30   21.06
   0  -6   1 1224.65   17.35
  -6   0   1 1220.66   20.71
   6   0  -1 1195.43   15.51
  -6   0   1 1176.49   15.52
   0   6   1 1263.50   21.65
   0   6  -1 1180.77   21.47
   0  -6  -2   11.68    2.85
  -6   0  -2   26.46    8.52
  -6   0   2   24.34    6.77
   0  -6   2   14.25    3.20
   6   0  -2   25.87    3.98
   0  -6  -2   20.40    5.60
   0   6   2    9.50    2.82
   0   6  -2   24.60    5.33
   0  -6  -3  810.63   20.67
  -6   0  -3  793.14   22.20
  -6   0   3  765.82   22.32
   0  -6   3  820.29   19.81
   6   0  -3  801.16   21.96
   0  -6  -3  797.52   28.47
   6   0   3  738.73   16.55
   0   6   3  775.20   25.52
   0   6  -3  842.15   23.25
   0  -6  -4  175.36    9.20
  -6   0  -4  167.93   14.89
  -6   0   4  170.77   11.89
   0  -6   4  191.72   11.48
   6   0  -4  174.93    7.18
  -6   0  -4  180.71    8.36
   0  -6  -4  141.76   10.38
   0   6   4  197.32   11.89
   0   6  -4  174.08   12.05
   0  -6  -5 1691.74   38.95
  -6   0  -5 1756.54   42.59
  -6   0   5 1675.72   41.47
   0  -6   5 1721.49   40.04
   0   6  -5 1690.97   40.85
   6   0  -5 1725.50   39.76
  -6   0  -5 1719.91   38.80
   0  -6  -5 1590.90   38.74
   0   6   5 1736.64   40.24
   0   6  -5 1674.95   40.14
   0  -6  -6    2.34    1.91
  -6   0  -6    3.76    4.01
  -6   0   6    6.06    4.68
   0  -6   6    0.53    3.47
   0   6  -6    2.49    4.19
   6   0  -6    3.53    3.80
  -6   0  -6    2.45    2.34
   0  -6  -6    2.75    3.93
   0   6   6    3.08    3.24
   0   6  -6    7.93    5.20
   0  -6  -7 2406.90   84.44
  -6   0  -7 2371.61   60.41
  -6   0   7 2476.01   88.28
   0  -6   7 2396.08   84.08
   0   6  -7 2376.45   60.16
   6   0  -7 2332.84   58.59
  -6   0  -7 2382.61   58.21
   0  -6  -7 2390.40   61.37
   0   6   7 2408.82   83.93
   0   6  -7 2383.28   59.80
   0  -6  -8   68.13   14.28
  -6   0  -8   61.57   14.06
  -6   0   8   73.94   15.80
   0  -6   8   62.50   14.94
   0   6  -8   64.75   15.57
   6   0  -8   60.79   13.52
  -6   0  -8   68.17   13.49
   0  -6  -8   75.90   16.41
   0   6  -8   68.62   11.76
   0  -6  -9 1587.61   58.41
  -6   0  -9 1575.12   59.35
  -6   0   9 1580.82   58.79
   0  -6   9 1624.72   59.49
   0   6  -9 1458.24   55.37
   6   0  -9 1562.92   56.98
  -6   0  -9 1688.61   61.37
   0  -6  -9 1612.00   60.70
   0   6  -9 1591.24   58.02
  -6   0 -10   39.61    7.04
  -6   0  10   24.71    6.87
   0  -6  10   33.71    8.44
   0   6 -10   31.77   19.00
   6   0 -10   19.61    5.32
  -6   0 -10   29.26    6.85
   0  -6 -10   42.15   15.78
   0   6 -10   28.16    6.89
  -6   0 -11  449.73   30.89
  -6   0  11  472.65   24.99
   0  -6  11  497.32   27.89
   0   6  11  472.89   26.92
   0   6 -11  472.35   24.38
   6   0 -11  506.40   26.29
  -6   0 -11  449.49   23.64
   0  -6 -11  480.73   26.33
   0   6 -11  455.21   22.54
  -6   0 -12  478.16   22.39
  -6   0  12  519.38   23.09
   0  -6  12  470.89   20.05
   0   6  12  495.99   21.92
   0   6 -12  470.76   21.63
   6   0 -12  495.98   23.17
  -6   0 -12  495.25   20.65
   0  -6 -12  519.17   32.04
   0   6 -12  483.29   21.61
  -6   0 -13   19.43    7.86
  -6   0  13   23.83    7.72
   0  -6  13   11.09    6.72
   0   6 -13   17.19    8.19
   6   0 -13   23.60    8.32
  -6   0 -13   15.06    6.64
   0  -6 -13   23.42    6.21
   0   6 -13   15.51    7.28
  -6   0 -14   18.85    7.97
  -6   0  14   22.02    5.86
   0  -6  14   24.26    8.43
   0   6  14   16.31    6.77
   0   6 -14   21.88    8.27
   6   0 -14   11.75    9.45
  -6   0 -14    0.91    5.12
   0  -6 -14   11.32    8.18
   0   6 -14   21.10    7.50
  -6   0 -15  239.73   48.88
  -6   0  15  246.91   13.77
   0  -6  15  225.39   27.55
   0   6  15  230.33   21.14
   0   6 -15  258.24   22.50
   6   0 -15  293.03   43.43
  -6   0 -15  233.02   23.94
   0  -6 -15  232.26   46.16
   0   6 -15  243.73   12.00
  -6   0 -16  168.27   27.43
  -6   0  16  143.73   33.76
   0  -6  16  166.24   19.07
   0   6  16  149.66   24.94
   0   6 -16  166.63   32.74
   6   0 -16  202.43   41.17
  -6   0 -16  154.87   10.62
   0  -6 -16  155.75   42.61
   0   6 -16  150.31   12.00
  -6   0  17    5.50    4.87
   0  -6  17   10.75    5.41
   0   6  17    6.05    4.85
   6   0  17    7.68    6.85
   0   6 -17    8.43    5.23
   6   0 -17    1.11    5.47
  -6   0 -17   -1.61    5.16
   0  -6 -17    2.51    5.55
  -6   0  18    6.16    6.49
   0  -6  18   -6.88    5.92
   0   6  18    8.63    7.69
   6   0  18   10.97    5.52
   0   6 -18    7.07    3.87
   6   0 -18   12.65   10.14
  -6   0 -18    5.13    6.72
   0  -6 -18    6.08    6.93
  -6   0  19   53.56   15.28
   0  -6  19   66.56   23.92
   0   6  19   54.35   33.03
   6   0  19   73.97   22.95
   0   6 -19   71.39   25.98
   6   0 -19   81.21   22.18
  -6   0 -19   52.18   19.36
   0  -6 -19   46.43   20.88
   1  -6   0   21.17    4.14
  -1  -6   0   15.37    3.83
  -6   1   0   22.17    7.48
  -6  -1   0   18.54    5.45
  -1   6   0   11.85    2.32
  -6  -1   0   11.37    1.94
  -1   6   0   17.92    5.44
   1   6   0   28.97    7.27
   1  -6  -1  145.11    6.34
  -1  -6  -1  177.49    7.61
  -6   1  -1  167.86    8.29
  -6  -1  -1  171.26   11.99
   1  -6   1  174.56    5.93
  -1  -6   1  159.38    6.90
  -6   1   1  162.41    7.86
  -6  -1   1  192.97   15.22
  -1   6   1  169.70    4.89
  -1   6  -1  148.16    5.22
  -6  -1  -1  153.87    4.32
   6  -1  -1  172.79    5.73
  -6  -1   1  165.31    7.43
  -6   1   1  162.93    5.75
   1  -6  -1  161.98   10.89
  -1   6   1  188.61   10.60
  -1   6  -1  166.86   10.80
   1   6   1  166.47   13.26
   1   6  -1  170.25    8.14
   1  -6  -2  144.58    7.91
  -1  -6  -2   98.08    5.58
  -6   1  -2   96.73    6.52
  -6  -1  -2  140.08   12.47
  -6  -1   2  101.33   12.07
  -6   1   2  136.44    6.69
  -1  -6   2  154.82   11.26
   1  -6   2  107.00    6.93
  -1   6  -2  126.75    4.83
   6   1  -2  135.64    6.81
   6  -1  -2  116.63   11.21
   1  -6  -2  139.41    7.84
  -1  -6  -2  104.89    6.87
  -1   6   2   96.99   13.24
  -1   6  -2  153.56   13.71
   1   6   2  140.98   17.13
   1   6  -2  103.13    7.16
   1  -6  -3 1137.13   26.29
  -1  -6  -3 1076.05   25.68
  -6   1  -3 1101.66   27.27
  -6  -1  -3 1127.94   28.97
  -6  -1   3 1065.22   27.09
  -6   1   3 1112.24   27.24
  -1  -6   3 1120.67   26.55
   1  -6   3 1052.30   24.50
   6   1  -3 1162.98   26.86
   6  -1  -3 1081.13   25.19
   6  -1   3 1072.86   23.36
   1  -6  -3 1095.01   27.58
  -1  -6  -3 1035.50   26.48
  -1   6   3 1055.57   30.01
   1   6   3 1139.35   28.14
  -1   6  -3 1197.25   32.56
   1   6  -3 1029.91   26.80
   1  -6  -4  437.85   13.99
  -1  -6  -4  467.32   13.64
  -6   1  -4  486.03   15.17
  -6  -1  -4  426.50   14.89
  -6  -1   4  435.87   16.05
  -6   1   4  412.24   15.03
  -1  -6   4  470.52   14.65
   1  -6   4  493.99   13.90
  -6   1  -4  483.25   11.83
   6   1  -4  420.81   15.69
   6  -1  -4  486.98   18.99
  -6  -1  -4  449.05   13.70
   1  -6  -4  431.76   18.73
  -1  -6  -4  501.88   16.19
  -1   6   4  502.13   19.77
   1   6   4  428.63   14.23
  -1   6  -4  438.33   14.61
   1   6  -4  492.62   16.03
   1  -6  -5  152.84    8.26
  -1  -6  -5  117.48    9.12
  -6   1  -5  128.91   18.64
  -6  -1  -5  118.02   15.67
  -6  -1   5  135.67    8.91
  -6   1   5  134.05    7.54
  -1  -6   5  138.23   11.24
   1  -6   5  130.34    7.72
   1   6  -5  130.13   17.93
   6   1  -5  130.07    7.83
  -6   1  -5  130.95   11.21
   6  -1  -5  132.98    7.72
  -6  -1  -5  137.86    9.24
   1  -6  -5  120.07    8.08
  -1  -6  -5  127.60   12.42
  -1   6   5  127.52   11.18
   1   6   5  134.51    9.42
  -1   6  -5  138.14   10.95
   1   6  -5  146.46   12.01
   1  -6  -6 1358.32   34.82
  -1  -6  -6 1356.35   36.09
  -6   1  -6 1367.47   36.49
  -6  -1  -6 1412.07   38.45
  -6  -1   6 1463.27   39.78
  -6   1   6 1320.66   37.75
  -1  -6   6 1347.74   35.37
   1  -6   6 1389.59   36.91
  -1   6  -6 1365.66   36.47
   1   6  -6 1417.60   38.06
   6   1  -6 1466.37   39.33
  -6   1  -6 1397.75   34.87
   6  -1  -6 1423.70   37.47
  -6  -1  -6 1479.70   38.41
   1  -6  -6 1330.76   40.12
  -1  -6  -6 1320.67   46.21
  -1   6   6 1376.57   35.84
   1   6   6 1427.90   37.65
  -1   6  -6 1332.79   36.30
   1   6  -6 1359.18   36.64
  -1  -6  -7  974.00   27.10
  -6   1  -7  973.88   29.86
  -6  -1  -7  997.66   29.45
  -6  -1   7  959.72   35.96
  -6   1   7  970.59   32.93
  -1  -6   7 1006.61   31.76
   1  -6   7  958.70   28.54
  -1   6   7  967.94   26.59
  -1   6  -7  978.44   28.57
   1   6  -7  974.58   28.24
   6   1  -7 1003.76   34.01
  -6   1  -7  968.36   26.88
   6  -1  -7 1029.73   28.59
  -6  -1  -7  993.67   26.98
   1  -6  -7 1007.06   29.36
  -1  -6  -7  998.63   29.41
   1   6   7 1032.12   30.94
  -1   6  -7  991.42   30.06
   1   6  -7  959.27   27.52
  -1  -6  -8  332.46   17.32
  -6   1  -8  293.86   15.13
  -6  -1  -8  239.25   13.65
  -6  -1   8  288.16   28.84
  -6   1   8  242.80   12.89
  -1  -6   8  281.85   19.29
   1  -6   8  346.09   22.99
  -1   6   8  323.03   17.40
  -1   6  -8  273.27   14.44
   1   6  -8  331.39   16.10
   6   1  -8  265.09   15.14
  -6   1  -8  311.18   13.72
   6  -1  -8  340.10   29.47
  -6  -1  -8  269.41   22.68
   1  -6  -8  303.32   20.06
  -1  -6  -8  331.52   22.70
   1   6   8  262.82   15.49
   6   1   8  284.54   11.26
  -1   6  -8  270.79   13.74
   1   6  -8  322.04   15.82
  -1  -6  -9  198.49   22.60
  -6   1  -9  191.24   22.74
  -6  -1  -9  160.14   31.22
  -6  -1   9  177.62   12.03
  -6   1   9  165.86   15.73
  -1  -6   9  168.28   17.46
   1  -6   9  178.76   17.69
  -1   6   9  181.24   10.55
  -1   6  -9  166.65   11.57
   1   6  -9  173.90   17.69
   6   1  -9  198.64   32.62
  -6   1  -9  172.11   12.49
   6  -1  -9  193.56   33.52
  -6  -1  -9  186.85   25.55
   1  -6  -9  168.32   22.06
  -1  -6  -9  203.28   32.75
  -1   6  -9  181.68   13.94
   1   6  -9  198.85   19.34
  -1  -6 -10  292.64   27.34
  -6   1 -10  282.68   18.39
  -6  -1 -10  230.36   33.28
  -6  -1  10  276.76   29.81
  -6   1  10  239.71   27.40
  -1  -6  10  268.92   15.15
   1  -6  10  300.10   22.93
  -1   6  10  278.73   16.13
  -1   6 -10  246.39   13.53
   1   6 -10  279.90   14.88
   6   1 -10  245.53   13.88
  -6   1 -10  296.60   15.73
   6  -1 -10  300.21   26.05
  -6  -1 -10  270.47   27.14
   1  -6 -10  248.92   18.08
  -1  -6 -10  273.59   17.12
  -1   6 -10  251.30   16.05
   1   6 -10  287.60   25.36
  -1  -6 -11   31.11   10.82
  -6   1 -11   40.26   10.63
  -6  -1 -11   42.44   10.54
  -6  -1  11   38.67    7.54
  -6   1  11   42.77   13.38
  -1  -6  11   49.17   12.35
   1  -6  11   35.93    8.94
  -1   6  11   37.32    9.57
  -1   6 -11   43.27   12.66
   1   6 -11   31.71    8.52
   6   1 -11   45.90    9.61
  -6   1 -11   33.75   11.24
   6  -1 -11   39.39   11.14
  -6  -1 -11   41.73   12.68
   1  -6 -11   39.96    8.73
  -1  -6 -11   43.15   12.16
  -1   6 -11   40.88   11.73
   1   6 -11   37.15   11.50
  -1  -6 -12  117.39   23.60
  -6   1 -12  122.87   29.18
  -6  -1 -12   98.50   23.83
  -6  -1  12  111.15   20.55
  -6   1  12   80.16   20.81
  -1  -6  12   98.63   26.13
   1  -6  12  124.64   28.36
  -1   6  12  104.35   21.70
  -1   6 -12   98.94   25.03
   1   6 -12  100.78   21.52
   6   1 -12   89.64   25.37
  -6   1 -12   93.66   26.30
   6  -1 -12  117.30   25.44
  -6  -1 -12   81.91   16.39
   1  -6 -12   76.46    9.54
  -1  -6 -12  105.10   14.25
  -1   6 -12   81.75   24.12
   1   6 -12   93.17   23.09
  -6   1 -13   51.78   12.29
  -6  -1 -13   51.65    9.34
  -6  -1  13   48.32   10.93
  -6   1  13   46.30   16.70
  -1  -6  13   48.92   12.43
   1  -6  13   43.12   10.42
  -1   6  13   52.07   15.91
   1   6  13   34.35    8.75
   1   6 -13   46.36   10.45
  -1   6 -13   42.46   15.00
   6   1 -13   53.44   14.38
  -6   1 -13   51.24   11.05
   6  -1 -13   44.62   12.38
  -6  -1 -13   47.01   12.91
   1  -6 -13   47.82    9.34
  -1  -6 -13   47.20   13.87
  -1   6 -13   47.29   12.44
   1   6 -13   41.72   16.41
  -6   1 -14   68.57   13.79
  -6  -1 -14   57.92   15.17
  -6  -1  14   50.95   15.36
  -6   1  14   60.93   22.04
  -1  -6  14   61.37   20.07
   1  -6  14   61.96   25.27
  -1   6  14   58.14   13.02
   1   6  14   58.24   20.85
  -1   6 -14   52.49   18.92
   1   6 -14   51.85   16.88
   6   1 -14   61.39   19.55
  -6   1 -14   60.03   16.24
   6  -1 -14   40.49   12.82
  -6  -1 -14   52.65   18.31
   1  -6 -14   49.77    9.43
  -1  -6 -14   64.76   13.34
  -1   6 -14   59.67   14.49
  -6   1 -15  363.95   15.66
  -6  -1 -15  328.83   48.03
  -6  -1  15  319.73   28.13
  -6   1  15  315.24   25.06
  -1  -6  15  323.47   47.27
   1  -6  15  326.66   28.98
  -1   6  15  329.96   31.07
   1   6  15  350.77   16.54
   1   6 -15  341.03   34.14
  -1   6 -15  365.82   15.85
   6   1 -15  327.32   36.64
  -6   1 -15  369.20   19.92
   6  -1 -15  350.25   42.06
  -6  -1 -15  324.44   14.22
   1  -6 -15  357.30   18.43
  -1  -6 -15  320.53   25.64
  -1   6 -15  333.97   12.39
   1   6 -15  360.45   14.60
  -6  -1 -16  235.97   42.13
  -6  -1  16  183.18   53.76
  -6   1  16  198.22   42.26
  -1  -6  16  191.51   50.32
   1  -6  16  221.84   32.60
  -1   6  16  214.96   17.61
   1   6  16  172.49   27.94
   6  -1  16  209.03   29.23
  -1   6 -16  198.31   39.87
   1   6 -16  251.32   46.27
   6   1 -16  250.80   45.58
  -6   1 -16  241.25   39.16
   6  -1 -16  216.64   27.19
  -6  -1 -16  223.37   17.34
   1  -6 -16  218.97   16.29
  -1  -6 -16  202.66   50.97
   1   6 -16  233.03   11.26
  -6  -1  17  136.66   34.95
  -6   1  17  127.35   46.80
  -1  -6  17  110.48   36.51
   1  -6  17  110.73   40.35
  -1   6  17  124.01   20.16
   1   6  17  105.35   40.12
   6  -1  17  111.46   39.82
  -1   6 -17  149.62   26.69
   1   6 -17  152.63   30.11
   6   1 -17  148.46   35.58
  -6   1 -17  146.95   28.34
   6  -1 -17  144.80   33.69
  -6  -1 -17  119.13   42.37
   1  -6 -17  105.38   38.84
  -1  -6 -17  142.90   31.70
  -6  -1  18   42.33   20.56
  -6   1  18   30.42   24.46
  -1  -6  18   65.87   15.41
   1  -6  18   35.66   23.26
  -1   6  18   41.88   19.55
   1   6  18   44.62   19.41
   6  -1  18   58.83   19.91
   6   1  18   29.65   23.00
   1   6 -18   54.42   16.80
  -1   6 -18   60.97   15.27
   6   1 -18   73.53   20.47
  -6   1 -18   69.21   18.55
   6  -1 -18   69.34   18.40
  -6  -1 -18   62.33   23.84
   1  -6 -18   56.03   16.60
  -1  -6 -18   37.80   12.42
  -6  -1  19   74.95   26.51
  -6   1  19   70.19   29.87
  -1  -6  19   59.40   29.94
   1  -6  19   73.11   33.52
  -1   6  19   65.26   20.62
   1   6  19   65.04   28.49
   6  -1  19   75.88   32.74
   6   1  19   96.37   29.46
  -1   6 -19  103.22   19.32
   1   6 -19   98.67   29.45
   6   1 -19   85.46   26.41
  -6   1 -19   90.73   20.95
   6  -1 -19   79.80   21.97
  -6  -1 -19   66.47   24.26
   1  -6 -19   61.18   31.90
  -1  -6 -19   57.26   30.91
  -2  -6   0  376.55   11.75
  -6   2   0  373.28   12.57
  -6  -2   0  362.15   13.97
   6  -2   0  363.82    8.81
  -2   6   0  371.04   15.08
   2   6   0  353.70   12.71
  -2  -6  -1  460.38   13.61
  -6   2  -1  477.95   15.40
  -6  -2  -1  434.27   14.24
  -6   2   1  456.78   15.42
  -2  -6   1  455.75   18.66
  -6  -2   1  435.72   14.40
   6  -2   1  394.19    8.98
   6  -2  -1  445.22   11.21
   6  -2   1  406.95    9.29
  -6  -2  -1  421.45   11.32
   2  -6  -1  404.57   13.84
  -6   2   1  396.43   10.19
  -2   6   1  429.98   20.39
  -2   6  -1  421.52   20.53
   2   6   1  388.63   12.85
   2   6  -1  457.04   15.30
   2  -6   2 1230.20   26.68
  -2  -6  -2 1271.62   29.92
  -6   2  -2 1286.48   30.79
  -6  -2  -2 1252.84   31.88
  -6  -2   2 1299.11   33.58
  -6   2   2 1222.88   31.10
  -2  -6   2 1242.05   30.52
   2  -6   2 1316.53   28.63
   6   2  -2 1206.93   28.35
   6  -2  -2 1296.97   29.18
  -6  -2  -2 1258.81   28.31
   2  -6  -2 1311.45   32.58
  -2  -6  -2 1292.08   36.06
  -2   6   2 1348.38   33.15
  -2   6  -2 1240.92   31.13
   2   6   2 1210.81   29.82
   2   6  -2 1296.88   32.78
  -2  -6  -3  861.05   21.80
  -6   2  -3  830.99   24.17
  -6  -2  -3  906.04   24.72
  -6  -2   3  864.68   27.15
  -6   2   3  929.48   25.23
  -2  -6   3  977.13   24.13
   2  -6   3  885.01   20.70
  -2   6   3  870.15   19.99
   6   2  -3  989.75   23.90
   6  -2   3  857.55   19.27
   6  -2  -3  909.63   22.17
  -6  -2  -3  951.30   22.44
   2  -6  -3  979.00   25.52
  -2  -6  -3  867.86   24.93
  -2   6   3  902.51   27.12
  -2   6  -3  995.98   26.23
   2   6   3  996.14   25.87
   2   6  -3  851.42   23.24
  -2  -6  -4  149.24   14.81
  -6   2  -4  142.88   13.04
  -6  -2  -4  169.78   10.03
  -6  -2   4  155.48    8.93
  -6   2   4  173.45   15.25
  -2  -6   4  175.64    8.32
   2  -6   4  147.51    7.98
  -2   6   4  162.75    7.44
  -6   2  -4  152.68    6.52
   6   2  -4  175.99    9.86
   6  -2  -4  161.37   10.75
  -6  -2  -4  169.14    6.46
   2  -6  -4  198.66   16.17
  -2  -6  -4  152.82   10.20
  -2   6   4  165.33   15.04
  -2   6  -4  174.63   12.61
   2   6   4  173.00    8.17
   2   6  -4  175.23   22.79
  -2  -6  -5  390.52   16.17
  -6   2  -5  360.21   12.08
  -6  -2  -5  430.08   17.38
  -6  -2   5  353.75   13.44
  -6   2   5  432.49   15.81
  -2  -6   5  410.16   14.02
   2  -6   5  376.25   16.20
  -2   6   5  352.84   12.72
   2   6  -5  367.48   13.03
  -6   2  -5  393.69   12.47
   6   2  -5  390.30   12.67
   6  -2  -5  390.59   14.88
  -6  -2  -5  406.70   11.80
   2  -6  -5  420.79   28.40
  -2  -6  -5  348.04   14.98
  -2   6   5  349.63   12.47
   2   6   5  419.36   13.38
  -2   6  -5  390.00   17.94
   2   6  -5  393.65   14.28
  -2  -6  -6  464.14   21.92
  -6   2  -6  447.87   17.62
  -6  -2  -6  440.45   16.21
  -6  -2   6  441.85   26.93
  -6   2   6  423.63   26.28
  -2  -6   6  429.63   16.35
   2  -6   6  437.24   14.29
  -2   6   6  451.70   15.70
  -2   6  -6  442.38   15.96
   2   6  -6  446.84   17.09
  -6   2  -6  437.63   13.87
   6   2  -6  428.07   14.63
   6  -2  -6  466.00   20.13
  -6  -2  -6  442.96   14.33
   2  -6  -6  427.74   15.98
  -2  -6  -6  438.21   17.11
   2   6   6  441.95   14.16
  -2   6  -6  417.42   14.28
   2   6  -6  457.10   25.23
  -2  -6  -7  539.31   20.41
  -6   2  -7  503.36   20.41
  -6  -2  -7  502.82   24.57
  -6  -2   7  553.64   25.76
  -6   2   7  479.72   18.45
  -2  -6   7  498.46   17.71
   2  -6   7  535.22   23.64
  -2   6   7  529.20   17.22
  -2   6  -7  521.91   17.75
   2   6  -7  517.81   18.91
  -6   2  -7  498.15   16.19
   6   2  -7  509.97   23.77
   6  -2  -7  536.05   28.51
  -6  -2  -7  492.88   17.45
   2  -6  -7  463.68   26.99
  -2  -6  -7  516.60   18.19
   2   6   7  496.12   17.29
  -2   6  -7  495.08   17.38
   2   6  -7  516.12   17.97
  -2  -6  -8   14.31    4.73
  -6   2  -8   23.62    6.82
  -6  -2  -8   15.80    6.90
  -6  -2   8   17.19    5.77
  -6   2   8   12.78    3.73
  -2  -6   8   19.84    4.89
   2  -6   8   18.18    4.57
  -2   6   8   16.67    6.25
  -2   6  -8   21.91    6.76
   2   6  -8   27.67    7.87
  -6   2  -8   19.99    4.73
   6   2  -8   18.40    6.56
   6  -2  -8   16.12    4.28
  -6  -2  -8   14.31    4.33
   2  -6  -8   17.00    3.83
  -2  -6  -8   19.63    4.83
   6   2   8   10.23    2.40
   2   6   8   10.31    3.49
  -2   6  -8   12.85    4.14
   2   6  -8    9.82    7.32
  -2  -6  -9  241.63   12.35
  -6   2  -9  234.79   21.97
  -6  -2  -9  261.30   43.48
  -6  -2   9  210.74   35.00
  -6   2   9  240.19   24.58
  -2  -6   9  262.85   13.88
   2  -6   9  246.32   13.04
  -2   6   9  245.31   13.30
  -2   6  -9  221.87   13.29
   2   6  -9  236.33   13.50
   6   2  -9  241.92   12.59
  -6   2  -9  225.12   18.95
   6  -2  -9  226.65   25.52
  -6  -2  -9  229.81   20.91
   2  -6  -9  262.68   16.02
  -2  -6  -9  254.68   38.00
   2   6   9  243.69   10.22
  -2   6  -9  254.29   15.27
   2   6  -9  236.95   31.22
  -2  -6 -10  510.14   22.16
  -6   2 -10  525.94   28.47
  -6  -2 -10  454.37   34.10
  -6  -2  10  513.08   23.04
  -6   2  10  495.68   25.37
  -2  -6  10  475.53   23.73
   2  -6  10  486.90   21.49
  -2   6  10  482.48   20.67
  -2   6 -10  484.07   22.92
   2   6 -10  500.53   22.34
   6   2 -10  478.27   26.79
  -6   2 -10  473.10   18.85
   6  -2 -10  489.10   24.26
  -6  -2 -10  498.35   20.86
   2  -6 -10  508.70   44.26
  -2  -6 -10  502.65   22.86
  -2   6 -10  463.87   21.27
   2   6 -10  528.74   23.54
  -2  -6 -11  532.54   26.72
  -6   2 -11  508.72   26.16
  -6  -2 -11  550.33   31.88
  -6  -2  11  539.94   27.93
  -6   2  11  516.32   36.60
  -2  -6  11  554.31   27.96
   2  -6  11  456.74   28.90
  -2   6  11  481.47   26.43
  -2   6 -11  519.74   34.66
   2   6 -11  471.81   27.19
   6   2 -11  512.98   30.25
   6  -2 -11  555.66   29.33
  -6  -2 -11  542.39   27.15
   2  -6 -11  546.38   45.76
  -2  -6 -11  530.96   28.26
  -2   6 -11  540.54   25.96
   2   6 -11  551.67   26.95
  -2  -6 -12   13.30    8.09
  -6   2 -12   12.60    4.31
  -6  -2 -12   17.19    8.15
  -6  -2  12    9.15    5.00
  -6   2  12   13.97    7.69
  -2  -6  12   27.17    8.08
   2  -6  12   16.61    8.60
  -2   6  12   17.77    5.11
  -2   6 -12   22.69    6.03
   2   6 -12   14.55    7.01
   6   2 -12   11.37    9.92
  -6   2 -12   12.76    5.99
   6  -2 -12    6.50    6.11
  -6  -2 -12    7.02    5.03
   2  -6 -12   23.40    8.50
  -2  -6 -12    8.54    5.65
  -2   6 -12   16.63    5.13
   2   6 -12    3.67    4.76
  -2  -6 -13  269.71   32.94
  -6   2 -13  218.39   13.43
  -6  -2 -13  231.82   43.96
  -6  -2  13  203.74   35.72
  -6   2  13  214.41   16.95
  -2  -6  13  242.21   43.90
   2  -6  13  222.63   17.43
  -2   6  13  216.29   28.49
  -2   6 -13  228.91   41.45
   2   6 -13  214.06   21.54
   6   2 -13  235.09   39.17
  -6   2 -13  212.53   23.21
   6  -2 -13  218.14   25.08
  -6  -2 -13  207.11   11.31
   2  -6 -13  270.42   36.06
  -2  -6 -13  205.87   38.92
  -2   6 -13  216.99   12.95
   2   6 -13  214.36   14.42
  -6   2 -14  321.41   20.67
  -6  -2 -14  318.00   19.36
  -6  -2  14  332.50   37.34
  -6   2  14  297.74   34.75
  -2  -6  14  322.01   25.52
   2  -6  14  347.38   21.83
  -2   6  14  329.81   19.53
  -2   6 -14  287.61   16.89
   2   6 -14  325.32   22.08
  -6   2 -14  328.99   16.80
   6   2 -14  316.78   30.80
   6  -2 -14  323.34   33.63
  -6  -2 -14  274.45   18.36
   2  -6 -14  309.04   32.05
  -2  -6 -14  312.84   28.57
  -2   6 -14  300.58   20.11
   2   6 -14  348.47   18.26
  -6  -2 -15  430.92   48.15
  -6  -2  15  444.20   18.62
  -6   2  15  442.79   38.44
  -2  -6  15  400.13   32.80
   2  -6  15  399.26   18.90
  -2   6  15  420.28   18.21
   2   6  15  432.12   23.45
   6  -2  15  408.24   20.79
  -2   6 -15  416.69   16.55
   2   6 -15  392.35   35.73
   6   2 -15  469.54   38.68
  -6   2 -15  436.08   15.63
   6  -2 -15  402.22   40.37
  -6  -2 -15  404.57   16.08
   2  -6 -15  433.89   45.40
  -2  -6 -15  386.98   37.28
  -2   6 -15  407.01   14.50
   2   6 -15  430.61   16.06
  -6  -2 -16   20.63    7.80
  -6  -2  16   25.71   10.21
  -6   2  16   13.44    8.94
  -2  -6  16   32.11   11.67
   2  -6  16   20.94    7.60
  -2   6  16   22.33    9.83
   2   6  16   20.36    9.60
   6  -2  16   30.46   11.94
  -2   6 -16   27.20    9.88
   2   6 -16   42.30   11.89
  -6   2 -16   32.19    8.77
   6   2 -16   23.37   11.96
   6  -2 -16   27.80   12.85
  -6  -2 -16   23.19    6.39
   2  -6 -16   23.26    7.26
  -2  -6 -16   31.81    9.50
   2   6 -16   15.96    4.22
  -6  -2 -17  206.52   21.24
  -6  -2  17  172.37   46.94
  -6   2  17  222.78   28.53
  -2  -6  17  217.88   35.06
   2  -6  17  216.20   39.78
  -2   6  17  214.64   16.00
   2   6  17  233.69   19.33
   6  -2  17  203.70   25.00
  -2   6 -17  243.57   49.57
   2   6 -17  212.79   47.18
   6   2 -17  231.16   29.36
  -6   2 -17  209.30   27.40
   6  -2 -17  201.25   25.60
  -6  -2 -17  198.52   36.27
   2  -6 -17  203.43   44.36
  -2  -6 -17  196.99   54.92
   2   6 -17  215.96   21.21
  -6  -2  18  139.33   34.01
  -6   2  18  155.78   41.71
  -2  -6  18  155.87   31.71
   2  -6  18  124.94   30.83
  -2   6  18  122.95   42.86
   2   6  18  164.91   18.41
   6  -2  18  115.72   43.56
   6   2  18  142.27   29.20
  -2   6 -18  188.94   36.88
   2   6 -18  153.32   30.76
   6   2 -18  161.79   34.36
  -6   2 -18  171.73   38.19
   6  -2 -18  122.60   36.57
  -6  -2 -18  178.39   13.51
   2  -6 -18  165.85   23.96
  -2  -6 -18  122.87   31.99
  -6  -2  19   84.52   19.91
  -6   2  19   57.90   35.41
  -2  -6  19   81.35   27.69
   2  -6  19   78.69   29.92
  -2   6  19   65.81   39.05
   2   6  19   77.98   30.81
   6  -2  19   71.92   36.51
   6   2  19   72.08   37.53
  -2   6 -19   87.21   21.14
   2   6 -19   71.18   29.51
   6   2 -19  104.73   26.24
  -6   2 -19   99.27   26.15
   6  -2 -19   93.25   35.25
  -6  -2 -19   57.01   33.52
   2  -6 -19   86.93   31.32
  -2  -6 -19   64.62   27.44
  -6   3   0 2462.19   54.52
  -3  -6   0 2470.25   55.49
  -6  -3   0 2286.81   53.78
   6  -3   0 2433.26   52.38
  -3   6   0 2590.94   59.53
   3   6   0 2503.54   57.11
  -6   3  -1   43.79    7.48
  -3  -6  -1   51.44    5.22
  -6  -3  -1   73.26    9.29
  -6   3   1   60.71    8.38
  -3  -6   1   77.29   15.22
  -6  -3   1   70.49   18.68
   6  -3   1   55.37    4.99
   6  -3  -1   55.76    7.89
   6  -3   1   65.82    3.98
   3  -6  -1   60.57    4.97
  -6  -3  -1   64.19    3.93
  -3   6   1   45.66   14.48
  -3   6  -1   59.24   14.70
   3   6   1   86.90   12.57
   3   6  -1   53.01    9.33
  -6   3  -2  228.11    8.50
   3  -6   2  218.93    5.51
  -3  -6  -2  233.83    9.23
  -6  -3  -2  260.91   11.34
  -6  -3   2  228.25   10.37
  -3  -6   2  262.31    9.75
  -6   3   2  286.80   13.47
  -3   6   2  231.50    6.85
   3  -6   2  238.01    7.13
   6  -3   2  236.98    7.11
   6  -3  -2  240.30   10.83
  -6  -3  -2  261.68    9.75
   3  -6  -2  266.73   18.46
  -3  -6  -2  253.88   10.84
  -3   6   2  246.73   22.67
  -3   6  -2  262.15   14.75
   3   6   2  258.02   10.00
   3   6  -2  242.54   10.43
  -3   6   3  820.43   19.08
   3  -6   3  836.63   20.78
  -6   3  -3  865.16   22.18
  -3  -6  -3  850.64   24.53
  -6  -3  -3  878.51   24.83
  -6  -3   3  840.87   23.16
  -3  -6   3  881.87   23.68
  -6   3   3  892.07   22.30
   3  -6   3  837.42   19.52
   6   3  -3  911.93   22.77
   6  -3  -3  854.30   21.17
  -6  -3  -3  944.26   24.20
   3  -6  -3  938.74   25.11
  -3  -6  -3  846.51   22.73
  -3   6   3  851.75   22.91
  -3   6  -3  895.95   25.17
   3   6   3  908.25   23.44
   3   6  -3  823.44   23.10
  -6   3  -4  887.26   23.20
  -3  -6  -4  893.21   23.62
  -6  -3  -4  867.66   24.64
  -6  -3   4  856.03   23.77
  -3  -6   4  854.80   23.77
  -6   3   4  880.94   23.60
  -3   6   4  922.09   23.44
   3  -6   4  869.59   20.88
   6   3  -4  884.41   22.57
   6  -3  -4  903.32   22.88
  -6  -3  -4  939.71   23.19
   3  -6  -4  900.94   26.80
  -3  -6  -4  887.95   23.78
  -3   6   4  847.56   25.54
  -3   6  -4  892.52   25.84
   3   6   4  875.06   23.81
   3   6  -4  852.16   23.81
  -6   3  -5 1374.04   36.01
  -3  -6  -5 1396.41   37.05
  -6  -3  -5 1314.74   36.41
  -6  -3   5 1284.58   36.34
  -3  -6   5 1405.77   37.26
  -6   3   5 1358.93   36.74
  -3   6   5 1353.98   33.89
   3  -6   5 1386.32   35.87
   3   6  -5 1362.92   36.34
  -6   3  -5 1385.83   35.98
   6   3  -5 1382.41   37.27
   6  -3  -5 1425.17   37.01
  -6  -3  -5 1378.59   35.22
   3  -6  -5 1324.85   37.15
  -3  -6  -5 1334.37   35.97
  -3   6  -5 1360.47   36.16
   3   6   5 1325.03   33.91
   3   6  -5 1323.37   37.10
  -6   3  -6  101.77   12.27
  -3  -6  -6  118.16    8.27
  -6  -3  -6   93.34   19.43
  -6  -3   6  126.35   21.99
  -3  -6   6  113.22   14.86
  -6   3   6  101.16   10.35
  -3   6   6  107.53   12.38
   3  -6   6  105.93    8.36
  -3   6  -6  103.08    9.19
   3   6  -6  111.39   22.28
  -6   3  -6  114.73   15.99
   6   3  -6  107.17   14.44
   6  -3  -6  109.93    7.85
  -6  -3  -6  108.84   13.41
   3  -6  -6  118.70   14.37
  -3  -6  -6  131.92   26.12
  -3   6  -6   94.70    7.37
   3   6   6  105.01   14.75
   3   6  -6  114.10   20.08
  -6   3  -7  371.17   20.41
  -3  -6  -7  430.30   20.74
  -6  -3  -7  412.00   20.42
  -6  -3   7  402.62   18.92
  -3  -6   7  403.74   23.80
  -6   3   7  451.61   19.32
  -3   6   7  416.85   18.22
   3  -6   7  433.36   20.38
  -3   6  -7  423.22   18.55
   3   6  -7  419.59   19.89
  -6   3  -7  400.73   22.66
   6   3  -7  465.54   22.83
   6  -3  -7  464.98   30.64
  -6  -3  -7  442.99   19.44
   3  -6  -7  423.07   26.15
  -3  -6  -7  398.16   18.62
   3   6   7  400.64   16.11
  -3   6  -7  415.30   24.41
   3   6  -7  439.30   32.01
   6   3   7  431.25   16.39
  -6   3  -8  103.09   18.13
  -3  -6  -8  110.39   18.95
  -6  -3  -8   89.98   23.12
  -6  -3   8   98.91   20.53
  -3  -6   8  104.53   17.85
  -6   3   8  112.97   23.80
  -3   6   8  102.26   12.66
   3  -6   8  111.50   12.46
  -3   6  -8  105.89   21.70
   3   6  -8  102.41   27.73
  -6   3  -8  114.10   17.56
   6   3  -8  100.15   21.07
   6  -3  -8  103.51   10.58
  -6  -3  -8  116.68   19.27
   3  -6  -8  101.29   13.76
  -3  -6  -8  122.80   19.91
   3   6   8  102.52   10.33
  -3   6  -8   98.87   13.39
   6   3   8   90.72    8.31
   3   6  -8  125.32   22.31
  -6   3  -9  652.59   29.60
  -3  -6  -9  607.87   25.48
  -6  -3  -9  595.99   26.91
  -6  -3   9  555.76   24.06
  -3  -6   9  657.19   25.97
  -6   3   9  641.12   30.65
  -3   6   9  642.21   26.88
   3  -6   9  590.67   29.76
  -3   6  -9  591.01   23.72
   3   6  -9  602.43   27.95
  -6   3  -9  593.35   27.38
   6   3  -9  604.33   23.81
   6  -3  -9  607.94   43.37
  -6  -3  -9  633.16   26.40
   3  -6  -9  675.52   48.32
  -3  -6  -9  605.47   24.79
   3   6   9  609.85   21.74
   6   3   9  552.72   17.28
  -3   6  -9  620.58   24.26
   3   6  -9  648.87   26.09
  -6   3 -10   23.67    6.48
  -3  -6 -10   16.79    5.34
  -6  -3 -10   15.55    7.65
  -6  -3  10   15.20    5.69
  -3  -6  10   11.05    7.58
  -6   3  10    6.94    5.54
  -3   6  10   15.64    4.73
   3  -6  10   16.69    4.82
  -3   6 -10   15.29    5.69
   3   6 -10   16.72    5.22
  -6   3 -10   26.44    6.17
   6   3 -10   16.34    5.64
   6  -3 -10   20.26    4.77
  -6  -3 -10   29.75    9.01
   3  -6 -10   18.24    9.49
  -3  -6 -10   23.96    6.00
  -3   6 -10   19.63    6.71
   3   6 -10   19.22    7.31
  -6   3 -11  208.89   15.74
  -3  -6 -11  220.74   27.66
  -6  -3 -11  170.64   37.27
  -6  -3  11  218.62   42.75
  -3  -6  11  171.53   30.62
  -6   3  11  163.13   17.38
  -3   6  11  179.00   16.95
   3  -6  11  185.26   23.98
  -3   6 -11  199.48   29.03
   3   6 -11  191.71   41.73
   6   3 -11  203.62   31.87
   6  -3 -11  192.47   17.82
  -6  -3 -11  156.26   15.45
   3  -6 -11  159.97   16.34
  -3  -6 -11  198.12   43.45
  -3   6 -11  156.65   17.33
   3   6 -11  202.30   21.96
  -3  -6 -12  409.68   23.04
  -6  -3 -12  417.02   24.13
  -6  -3  12  356.39   37.53
  -3  -6  12  447.63   21.64
  -3   6  12  412.60   22.42
   3  -6  12  413.46   19.26
  -3   6 -12  413.74   19.77
   3   6 -12  379.62   19.25
  -6   3 -12  397.53   19.55
   6   3 -12  424.81   36.56
   6  -3 -12  399.78   28.54
  -6  -3 -12  430.26   19.60
   3  -6 -12  455.28   23.13
  -3  -6 -12  355.63   19.31
  -3   6 -12  432.38   18.71
   3   6 -12  397.66   18.67
  -6   3 -13  141.38   33.86
  -3  -6 -13  167.89   34.75
  -6  -3 -13  140.37   18.73
  -6  -3  13  141.54   30.26
  -3  -6  13  138.14   29.55
  -6   3  13  137.65   28.00
  -3   6  13  131.06   23.97
   3  -6  13  126.69   12.78
  -3   6 -13  150.80   26.82
   3   6 -13  159.76   26.16
  -6   3 -13  156.36   31.66
   6   3 -13  172.68   37.02
   6  -3 -13  128.20   25.38
  -6  -3 -13  137.45   20.63
  -3  -6 -13  138.17   36.58
  -3   6 -13  154.82   20.68
   3   6 -13  120.92   21.96
  -3  -6 -14    5.66    8.36
  -6  -3 -14    6.10    9.30
  -6  -3  14    9.89    6.54
  -3  -6  14   14.21    8.15
  -6   3  14    6.77    3.41
  -3   6  14   10.14    5.99
   3  -6  14    2.54    6.80
   6  -3  14   11.96    9.81
  -3   6 -14   13.69    4.53
   3   6 -14    7.71    6.25
  -6   3 -14   12.11    5.96
   6   3 -14   19.04    9.01
   6  -3 -14    7.99    6.94
  -6  -3 -14    9.94    5.19
   3  -6 -14   14.93    6.59
  -3  -6 -14    9.40    4.66
  -3   6 -14   12.81    4.59
   3   6 -14   12.87    5.47
  -3  -6 -15   69.04   21.76
  -6  -3 -15   90.46   22.67
  -6  -3  15   77.91   21.55
  -3  -6  15   83.38   23.33
  -6   3  15   73.17   20.27
  -3   6  15   63.81   21.26
   3  -6  15   77.92   18.59
   6  -3  15   59.73   19.98
   3   6 -15   91.18   22.05
  -6   3 -15  106.60   20.24
   6   3 -15   81.81   20.18
   6  -3 -15   74.58   21.31
  -6  -3 -15   62.98   26.37
   3  -6 -15   81.52   17.75
  -3  -6 -15   81.83   19.44
   3   6 -15   63.33   26.29
  -6  -3 -16  116.96   25.44
  -6  -3  16   91.58   14.84
  -3  -6  16   93.78   22.76
  -6   3  16  107.60   40.30
  -3   6  16   97.03   30.11
   3  -6  16   98.77   15.70
   6  -3  16  111.47   30.29
   3   6  16   89.26   32.72
  -3   6 -16   97.01   22.49
   3   6 -16  106.74   33.62
  -6   3 -16  109.25   29.50
   6   3 -16  108.73   23.81
   6  -3 -16   87.28   28.33
  -6  -3 -16   93.19   32.80
   3  -6 -16  110.02   30.09
  -3  -6 -16  107.65   34.26
   3   6 -16   96.06   33.56
  -6  -3 -17   61.59   31.15
  -6  -3  17   88.76   30.54
  -3  -6  17   71.26   29.10
  -6   3  17   83.21   24.64
  -3   6  17   83.60   33.84
   3  -6  17   67.54   29.77
   6  -3  17   52.87   30.64
   3   6  17   66.07   29.86
  -3   6 -17   80.01   28.42
   3   6 -17   83.68   28.35
  -6   3 -17  121.49   25.46
   6   3 -17   85.32   18.92
   6  -3 -17   96.14   32.23
  -6  -3 -17   65.00   20.42
   3  -6 -17   63.59   25.97
  -3  -6 -17   79.05   25.01
   3   6 -17   56.62   23.65
  -6  -3  18   32.50    9.64
  -3  -6  18   20.08   11.07
  -6   3  18   31.39   10.68
  -3   6  18   38.85   13.64
   3  -6  18   36.78   14.52
   6  -3  18   26.95   13.47
   3   6  18   43.84   19.08
  -3   6 -18   39.18   15.79
   3   6 -18   43.39   13.48
  -6   3 -18   39.48   16.34
   6   3 -18   57.30   19.35
   6  -3 -18   29.87   13.23
  -6  -3 -18   32.34   13.59
   3  -6 -18   43.46   15.34
  -3  -6 -18   36.49   14.58
  -6  -3  19   49.31   26.94
  -3  -6  19   46.57   21.66
  -6   3  19   50.77   22.60
  -3   6  19   43.00   32.91
   3  -6  19   63.16   31.31
   6  -3  19   37.68   31.57
   3   6  19   31.05   22.22
   6   3  19   45.16   32.39
  -3   6 -19   79.57   17.80
   3   6 -19   82.34   21.80
  -6   3 -19   84.53   20.50
   6   3 -19   92.89   19.77
   6  -3 -19   61.81   29.47
  -6  -3 -19   53.89   20.49
   3  -6 -19   58.71   29.71
  -3  -6 -19   33.99   25.40
  -6   4   0  220.06    7.45
  -4  -6   0  249.85   11.30
  -6  -4   0  205.80    9.49
   6  -4   0  223.59    8.84
   4  -6   0  234.20   10.39
  -4   6   0  266.71   23.02
   4   6   0  248.96   16.07
  -6   4  -1   97.17    5.76
  -4  -6  -1   91.77    7.09
  -6  -4  -1  107.53    8.72
  -6   4   1  107.37    6.00
  -4  -6   1  125.66   18.83
  -6  -4   1   92.87    6.85
   6  -4  -1   96.31    8.01
   4  -6  -1   99.32    6.97
   6  -4   1   96.60    4.43
  -6  -4  -1  103.94    7.00
  -4   6   1   85.96    7.28
  -4   6  -1  113.36   12.79
   4   6   1  122.99   19.67
   4   6  -1  112.78   19.30
  -4   6   2  119.35    4.75
  -6   4  -2  132.65    5.90
  -4  -6  -2  120.92   11.96
  -6  -4  -2  113.27    8.09
   4  -6   2  116.43    4.17
  -6  -4   2  174.19   25.04
  -4  -6   2  125.49   10.64
  -6   4   2  113.30    6.30
  -4   6   2  126.06    4.77
   4  -6   2  123.83    5.98
   6  -4  -2  118.74    9.55
   4  -6  -2  108.76    9.87
  -6  -4  -2  124.91    8.50
  -4  -6  -2  133.89    9.69
  -4   6   2  155.01   15.29
  -4   6  -2  102.27    9.37
   4   6   2  126.52   14.98
   4   6  -2  138.32   18.72
  -6   4  -3  107.34   11.50
  -4  -6  -3  140.94   17.98
  -6  -4  -3  105.93   19.07
  -6  -4   3   98.44   10.84
  -4  -6   3   94.98   16.94
  -6   4   3   82.90    5.08
  -4   6   3  107.34    5.45
   4  -6   3  117.17    9.30
   6  -4  -3  119.12   11.48
   4  -6  -3   92.68   15.41
  -6  -4  -3   93.75   12.34
  -4  -6  -3  128.37   20.46
  -4   6  -3   97.20   21.78
   4   6   3   99.54   16.66
   4   6  -3  143.01   22.06
  -6   4  -4 2045.01   51.09
  -4  -6  -4 2098.54   53.43
  -6  -4  -4 2049.72   52.72
  -6  -4   4 2063.20   52.61
  -4  -6   4 2055.04   52.05
  -6   4   4 1981.93   50.24
  -4   6   4 2109.52   50.74
   4  -6   4 2143.07   51.98
   6   4  -4 2081.08   52.28
   6  -4  -4 2091.57   51.84
   4  -6  -4 2023.37   51.11
  -6  -4  -4 2102.95   51.75
  -4  -6  -4 2162.90   58.86
  -4   6  -4 2054.82   53.30
   4   6   4 2041.42   50.60
   4   6  -4 2092.87   56.87
  -6   4  -5  100.90   12.58
  -4  -6  -5  106.48   14.64
  -6  -4  -5   59.58    7.04
  -6  -4   5   97.55   14.19
  -4  -6   5   83.07   15.78
  -6   4   5   78.47   11.28
  -4   6   5  102.30   11.60
   4  -6   5  104.90   11.36
   4   6  -5  102.48   20.38
   6   4  -5   76.59   16.89
   6  -4  -5   91.93    9.75
   4  -6  -5   92.25   20.68
  -6  -4  -5   64.78   16.85
  -4  -6  -5  103.86   15.34
  -4   6  -5   74.96   17.27
   4   6   5   83.82   15.16
   4   6  -5  122.14   21.28
  -6   4  -6  220.85   21.02
  -4  -6  -6  203.04   10.87
  -6  -4  -6  209.63   19.67
  -6  -4   6  210.18   19.86
  -4  -6   6  241.71   18.67
  -6   4   6  242.87   12.27
  -4   6   6  204.10   11.30
   4  -6   6  222.72   15.34
   4   6  -6  211.71   10.33
  -6   4  -6  223.22   13.63
   6   4  -6  226.31   11.08
   6  -4  -6  228.18   17.77
  -6  -4  -6  227.20   12.55
   4  -6  -6  228.57   13.17
  -4  -6  -6  224.42   14.40
  -4   6  -6  220.23   17.52
   4   6   6  226.93   12.05
   6   4   6  217.81   13.39
   4   6  -6  232.05   22.74
  -6   4  -7  127.89    8.75
  -4  -6  -7  142.95    9.88
  -6  -4  -7  143.25   36.39
  -6  -4   7  132.65   16.67
  -4  -6   7  162.94   32.35
  -6   4   7  153.39   11.00
  -4   6   7  142.64   16.32
   4  -6   7  166.82   22.62
  -4   6  -7  150.54   12.79
   4   6  -7  135.66    9.19
  -6   4  -7  141.35    8.59
   6   4  -7  165.67   29.95
   6  -4  -7  135.94   13.96
  -6  -4  -7  148.66    9.87
   4  -6  -7  145.82   23.33
  -4  -6  -7  141.18   10.22
  -4   6  -7  147.93   18.15
   4   6   7  139.57   12.44
   6   4   7  147.95   12.28
   4   6  -7  156.59   17.35
  -6   4  -8 1054.03   40.00
  -4  -6  -8 1060.43   37.83
  -6  -4  -8 1056.39   39.59
  -6  -4   8 1107.64   40.38
  -4  -6   8 1029.55   37.02
  -6   4   8 1034.47   39.80
  -4   6   8 1057.12   36.75
   4  -6   8 1057.14   36.74
  -4   6  -8 1030.66   39.59
   4   6  -8  976.36   38.42
  -6   4  -8 1012.98   35.20
   6   4  -8 1031.88   36.68
   6  -4  -8 1079.11   42.89
  -6  -4  -8 1034.25   36.30
   4  -6  -8 1074.24   38.61
  -4  -6  -8 1014.78   38.73
  -4   6  -8 1013.84   40.33
   4   6   8 1035.26   34.18
   6   4   8 1020.01   32.90
   4   6  -8 1025.44   43.05
  -6   4  -9  187.39   18.18
  -4  -6  -9  177.95   11.10
  -6  -4  -9  173.04   29.48
  -6  -4   9  176.07   32.95
  -4  -6   9  178.74   40.06
  -6   4   9  183.20   27.79
  -4   6   9  192.21   20.80
   4  -6   9  204.86   21.30
  -4   6  -9  153.96   17.04
   4   6  -9  165.89   24.23
  -6   4  -9  181.34   10.81
   6   4  -9  171.64   32.56
   6  -4  -9  210.97   20.61
  -6  -4  -9  161.72   14.91
   4  -6  -9  176.85   17.87
  -4  -6  -9  207.03   22.96
   4   6   9  160.35    7.97
  -4   6  -9  170.27   12.38
   6   4   9  176.87    7.20
   4   6  -9  184.54   22.42
  -6   4 -10   11.11    5.11
  -4  -6 -10   17.57    6.53
  -6  -4 -10   10.81    8.60
  -6  -4  10    8.39    4.84
  -4  -6  10   14.72    7.31
  -6   4  10    7.43    4.41
  -4   6  10   17.12    4.66
   4  -6  10   21.44    4.74
  -4   6 -10    5.19    5.87
   4   6 -10   14.26    6.65
  -6   4 -10   12.55    6.08
   6   4 -10   18.27    6.12
   6  -4 -10   15.94    6.02
  -6  -4 -10    7.78    6.81
   4  -6 -10    9.89    7.11
  -4  -6 -10   15.75    5.54
   4   6  10    5.36    2.38
  -4   6 -10    4.93    3.14
   4   6 -10   10.74    5.57
  -6   4 -11   52.48   13.24
  -4  -6 -11   52.20   12.83
  -6  -4 -11   47.88   14.26
  -6  -4  11   39.40   11.60
  -4  -6  11   59.71   12.54
  -6   4  11   45.78   17.24
  -4   6  11   30.59    9.60
   4  -6  11   33.19    8.59
  -4   6 -11   58.54   10.20
   4   6 -11   30.20    9.88
  -6   4 -11   38.09   10.08
   6   4 -11   56.45   14.41
   6  -4 -11   43.08   16.12
  -6  -4 -11   53.52   15.90
   4  -6 -11   41.86   13.23
  -4  -6 -11   41.51    9.40
  -4   6 -11   39.92    9.69
   4   6 -11   41.66   11.35
  -6   4 -12  411.18   21.58
  -4  -6 -12  408.62   21.14
  -6  -4 -12  474.75   52.50
  -6  -4  12  424.49   21.97
  -4  -6  12  418.84   20.97
  -6   4  12  416.16   28.11
  -4   6  12  382.73   21.50
   4  -6  12  377.58   20.45
  -4   6 -12  371.20   19.62
   4   6 -12  385.25   23.65
  -6   4 -12  410.29   25.74
   6   4 -12  405.69   24.85
   6  -4 -12  363.06   33.64
  -6  -4 -12  432.76   44.20
   4  -6 -12  414.11   35.66
  -4  -6 -12  422.48   21.20
  -4   6 -12  388.75   23.87
   4   6 -12  402.20   29.35
  -4  -6 -13   65.43   17.56
  -6  -4 -13   56.21   14.32
  -6  -4  13   54.06   19.86
  -4  -6  13   62.04   15.60
  -6   4  13   40.19   13.29
  -4   6  13   49.67   16.15
   4  -6  13   69.72   21.73
   6  -4  13   53.58   15.67
  -4   6 -13   57.75   16.23
   4   6 -13   56.87   12.92
  -6   4 -13   82.22   23.90
   6   4 -13   62.03   14.52
   6  -4 -13   55.35   13.99
  -6  -4 -13   50.05   14.63
   4  -6 -13   85.95   17.74
  -4  -6 -13   35.84   16.53
  -4   6 -13   45.18   10.80
   4   6 -13   52.46   12.22
  -4  -6 -14  187.54   38.39
  -6  -4 -14  160.97   38.85
  -6  -4  14  175.26   30.46
  -4  -6  14  178.35   24.19
  -6   4  14  166.37   18.33
  -4   6  14  163.73   32.19
   4  -6  14  171.72   21.08
   6  -4  14  153.21   12.92
  -4   6 -14  176.29   28.02
   4   6 -14  209.41   38.88
  -6   4 -14  189.36   12.41
   6   4 -14  203.54   36.45
   6  -4 -14  188.14   40.68
  -6  -4 -14  133.34   38.54
   4  -6 -14  160.30   20.70
  -4  -6 -14  157.44   37.26
   4   6 -14  144.99   36.81
  -4  -6 -15  250.39   32.11
  -6  -4 -15  260.11   50.74
  -6  -4  15  252.35   45.88
  -4  -6  15  212.35   30.60
  -6   4  15  246.37   25.23
  -4   6  15  255.70   15.53
   4  -6  15  272.45   34.86
   6  -4  15  281.94   21.63
  -4   6 -15  257.78   44.19
  -6   4 -15  262.58   17.73
   6   4 -15  245.42   49.71
   6  -4 -15  233.57   24.54
  -6  -4 -15  220.80   41.63
   4  -6 -15  260.96   51.52
  -4  -6 -15  262.12   49.75
   4   6 -15  269.33   32.24
  -4  -6 -16   57.32   17.32
  -6  -4 -16   44.04   15.06
  -6  -4  16   42.28   15.35
  -4  -6  16   69.61   15.17
  -6   4  16   56.16   14.55
  -4   6  16   50.62   15.03
   4  -6  16   43.45   15.46
   6  -4  16   48.16   20.15
  -4   6 -16   51.62   15.61
   4   6 -16   68.42   15.85
  -6   4 -16   57.25   12.84
   6   4 -16   44.18    9.52
   6  -4 -16   73.28   26.10
  -6  -4 -16   29.70   13.11
   4  -6 -16   49.27   18.75
  -4  -6 -16   52.73   15.25
   4   6 -16   41.25   15.64
  -6  -4 -17   51.90   32.34
  -6  -4  17   47.34   22.67
  -4  -6  17   67.01   20.08
  -6   4  17   52.48   13.51
  -4   6  17   43.17   23.83
   4  -6  17   61.41   19.73
   6  -4  17   52.50   25.02
  -4   6 -17   64.11   18.37
   4   6 -17   65.89   21.49
  -6   4 -17   85.64   22.55
   6   4 -17   58.45   18.25
   6  -4 -17   63.85   21.95
  -6  -4 -17   44.90   14.34
   4  -6 -17   52.66   29.37
  -4  -6 -17   41.00   18.72
   4   6 -17   42.80   20.24
  -6  -4 -18   41.26   18.33
  -6  -4  18   42.38   17.77
  -4  -6  18   42.82   17.50
  -6   4  18   58.29   19.92
  -4   6  18   32.55   14.63
   4  -6  18   37.50   22.95
   6  -4  18   47.32   23.53
   4   6  18   44.50   31.18
  -4   6 -18   37.24   20.30
   4   6 -18   34.59   11.30
  -6   4 -18   56.01   13.78
   6  -4 -18   53.79   18.95
  -6  -4 -18   38.29   16.22
   4  -6 -18   57.60   19.31
  -4  -6 -18   27.46   18.36
   6   4 -18   27.85   22.86
  -6  -4  19   52.03   16.90
  -4  -6  19   57.34   18.34
  -6   4  19   35.93   20.85
  -4   6  19   24.98   22.44
   4  -6  19   40.26   15.62
   6  -4  19   45.25   28.14
   4   6  19   58.56   20.21
   6   4  19   39.38   18.44
  -4   6 -19   54.19   22.65
   4   6 -19   58.89   21.44
  -6   4 -19   47.95   23.35
   6   4 -19   48.95   24.35
   6  -4 -19   30.61   12.26
  -6  -4 -19   33.66   27.14
   4  -6 -19   55.93   33.49
  -4  -6 -19   28.43   22.59
  -5   6   0 2216.42   51.57
  -6   5   0 2217.53   52.89
  -5  -6   0 2186.21   55.28
  -6  -5   0 2116.39   59.08
   5  -6   0 2033.07   47.35
   6  -5   0 2202.26   53.32
   5  -6   0 2165.91   53.33
  -5   6   0 2147.70   54.71
   5   6   0 2158.87   55.01
  -5   6  -1  462.17   14.28
  -5   6   1  563.66   14.32
  -6  -5  -1  479.68   16.83
  -6   5   1  473.04   13.33
  -5  -6   1  469.09   16.27
   5  -6   1  532.73   13.22
   6  -5  -1  561.36   16.22
   5  -6  -1  464.40   16.01
   6  -5   1  485.43   15.07
  -5   6  -1  458.74   19.16
   5   6   1  469.53   16.37
   5   6  -1  588.06   19.56
  -6   5  -2   47.39    5.59
  -5  -6  -2   58.38   12.38
  -6  -5  -2   59.79   13.01
  -5  -6   2   63.88   14.61
   5  -6   2   34.90    5.81
  -6  -5   2   45.95    8.35
  -6   5   2   50.25    3.81
   5  -6  -2   38.30    6.60
   6  -5  -2   62.58   12.21
   5  -6  -2   56.34   11.65
  -6  -5  -2   64.84   13.67
  -5  -6  -2   53.48    8.70
  -5   6  -2   50.64   13.10
   5   6   2   62.25   10.47
  -5   6  -3  380.26   11.29
  -6   5  -3  374.20   14.30
  -5  -6  -3  384.27   16.57
  -6  -5  -3  373.69   16.71
  -6  -5   3  371.19   14.09
  -5  -6   3  373.49   23.01
  -6   5   3  407.67   16.65
  -5   6   3  394.95   12.18
   6  -5  -3  398.82   14.11
   5  -6  -3  391.34   25.09
  -6  -5  -3  376.43   13.02
  -5  -6  -3  341.79   22.54
  -5   6  -3  405.88   19.65
   5   6   3  395.51   13.76
  -5   6  -4  189.27    9.15
  -6   5  -4  156.66   11.12
  -5  -6  -4  169.67   10.56
  -6  -5  -4  215.70   12.58
  -6  -5   4  158.94   17.79
  -5  -6   4  254.25   33.72
  -6   5   4  218.25   13.50
  -5   6   4  156.62   11.56
   6  -5  -4  193.99   17.79
   5  -6  -4  195.06   17.95
  -6  -5  -4  199.16   11.56
  -5  -6  -4  160.10   24.95
  -5   6  -4  203.62   25.85
   5   6   4  191.94   13.94
   6   5   4  173.75   14.48
  -5   6  -5  846.82   25.87
  -6   5  -5  854.41   25.66
  -5  -6  -5  843.36   25.56
  -6  -5  -5  851.18   26.46
  -6  -5   5  865.43   26.30
  -5  -6   5  943.80   28.11
  -6   5   5  845.88   28.67
  -5   6   5  825.83   22.86
   6   5  -5  878.65   25.53
   6  -5  -5  840.53   24.28
   5  -6  -5  861.42   28.93
  -6  -5  -5  843.45   25.67
  -5  -6  -5  843.65   25.15
  -6   5  -5  836.97   25.07
  -5   6  -5  899.37   31.55
   5   6   5  858.64   25.62
   6   5   5  848.47   23.89
  -6   5  -6  124.39   16.70
  -5  -6  -6  106.98   22.16
  -6  -5  -6  111.10   22.89
  -6  -5   6  110.59   16.74
  -5  -6   6  127.35   20.04
  -6   5   6  103.78   11.04
  -5   6   6  106.94   14.53
   5  -6   6  113.44   12.86
   5   6  -6  117.08    8.08
   6   5  -6  115.39   17.55
   6  -5  -6  106.17    9.41
   5  -6  -6  108.04    9.50
  -6  -5  -6  125.19   17.94
  -5  -6  -6  122.15   24.74
  -6   5  -6  114.15   26.41
  -5   6  -6  110.87   27.18
   5   6   6  100.87   12.25
   6   5   6  120.05   12.96
  -6   5  -7  143.61   15.03
  -5  -6  -7  130.00   13.82
  -6  -5  -7  154.53   25.20
  -6  -5   7  156.67   33.75
  -5  -6   7  157.67   11.68
  -6   5   7  145.61   13.07
  -5   6   7  165.90   20.13
   5  -6   7  159.83   16.80
  -5   6  -7  145.77   19.73
  -6   5  -7  145.67    9.43
   5   6  -7  137.71   17.66
   6   5  -7  177.36   29.61
   6  -5  -7  150.34   15.35
   5  -6  -7  157.60   10.03
  -6  -5  -7  130.07   12.54
  -5  -6  -7  158.48   30.44
  -6   5  -7  126.35   14.36
  -5   6  -7  146.40   10.86
   5   6   7  147.26   12.17
   6   5   7  139.70   14.06
  -6   5  -8  110.28   13.22
  -5  -6  -8  106.61   27.49
  -6  -5  -8   82.16   26.01
  -6  -5   8  134.26   30.07
  -5  -6   8   87.01   17.09
  -6   5   8   94.63   16.25
  -5   6   8  120.59   21.59
   5  -6   8  106.60   18.28
  -5   6  -8   93.20   17.41
  -6   5  -8  118.72   16.25
   5   6  -8  120.65   26.63
   6   5  -8   97.24   17.90
   6  -5  -8  103.14   10.69
   5  -6  -8  100.56   17.62
  -6  -5  -8  113.30   12.23
  -5  -6  -8   95.28   22.84
  -6   5  -8  106.71   19.71
  -5   6  -8  102.83   15.85
   5   6   8  102.18   15.84
   6   5   8   96.92   14.45
  -6   5  -9   30.91    7.73
  -5  -6  -9   35.25   12.25
  -6  -5  -9   26.77    8.73
  -6  -5   9   27.69   11.35
  -5  -6   9   30.43    8.33
  -6   5   9   36.92   13.10
  -5   6   9   37.32    9.66
   5  -6   9   33.35    9.05
  -5   6  -9   25.82    8.53
  -6   5  -9   33.40    9.18
   5   6  -9   34.33    7.19
   6   5  -9   33.57    8.66
   6  -5  -9   26.29    5.62
   5  -6  -9   32.46    8.71
  -6  -5  -9   31.36    9.63
  -5  -6  -9   33.46   12.49
  -6   5  -9   33.94    9.05
  -5   6  -9   39.71   10.56
   5   6   9   21.46    6.13
   6   5   9   26.53    4.90
  -6   5 -10  313.62   28.11
  -5  -6 -10  319.10   49.09
  -6  -5 -10  259.23   17.34
  -6  -5  10  330.00   18.36
  -5  -6  10  299.90   43.31
  -6   5  10  302.15   19.19
   5  -6  10  289.65   15.66
  -5   6 -10  270.54   13.15
   5   6 -10  353.50   48.35
   6   5 -10  289.85   15.24
   6  -5 -10  292.35   23.12
   5  -6 -10  295.47   30.63
  -6  -5 -10  275.64   14.27
  -5  -6 -10  315.31   41.93
  -6   5 -10  270.26   14.37
   5   6  10  266.77    9.98
  -5   6 -10  298.86   18.00
  -5  -6 -11   77.09   17.41
  -6  -5 -11   92.59   24.20
  -6  -5  11   83.52   20.29
  -5  -6  11   89.86   22.74
  -6   5  11   99.42   25.73
  -5   6  11   72.93   15.51
   5  -6  11   68.75   16.61
   6  -5  11   89.18   16.47
  -5   6 -11   92.62   20.83
   5   6 -11   72.31   18.47
  -6   5 -11   80.57   18.84
   6   5 -11  106.24   28.17
   6  -5 -11   84.27   11.26
   5  -6 -11   85.27   28.08
  -6  -5 -11  103.21   25.03
  -5  -6 -11   76.25   27.14
  -6   5 -11   53.30   14.76
  -5   6 -11   92.13   18.83
  -5  -6 -12  102.87   19.57
  -5  -6  12   79.87   22.52
  -6   5  12   89.41   18.98
  -5   6  12   88.53   21.53
   5  -6  12   85.62   23.09
   6  -5  12   81.26   13.53
  -5   6 -12   87.22   17.93
   5   6 -12   84.86   16.21
  -6   5 -12  106.39   17.92
   6   5 -12   88.38   18.06
   6  -5 -12  112.05   26.29
   5  -6 -12   99.99   19.12
  -6  -5 -12   94.45   20.94
  -5  -6 -12  109.57   25.97
  -6   5 -12   72.77   14.38
  -5   6 -12   88.38   20.06
   5   6 -12   95.58   21.53
  -5  -6 -13   82.61   15.58
  -6  -5 -13   68.26   17.91
  -6  -5  13   81.30   24.12
  -5  -6  13   70.86   18.29
  -6   5  13   54.32   21.85
  -5   6  13   58.71   20.03
   5  -6  13   65.76   17.53
   6  -5  13   81.37   18.05
  -5   6 -13   67.22   17.01
   5   6 -13   75.41   18.59
  -6   5 -13   87.39   21.72
   6   5 -13   90.21   21.15
   6  -5 -13   68.93   19.16
   5  -6 -13   67.71   24.12
  -6  -5 -13   59.15   19.47
  -5  -6 -13   72.19   21.72
  -5   6 -13   58.90   13.13
   5   6 -13   71.20   15.70
  -5  -6 -14   56.85   19.67
  -6  -5 -14   42.47   15.45
  -6  -5  14   39.32   14.55
  -5  -6  14   39.95   10.38
  -6   5  14   33.11   11.38
  -5   6  14   35.52   11.64
   5  -6  14   38.39   16.02
   6  -5  14   34.16   13.41
  -5   6 -14   41.80   12.07
   5   6 -14   35.56   12.62
  -6   5 -14   48.42   10.24
   6   5 -14   31.20   10.42
   6  -5 -14   40.52   10.48
   5  -6 -14   46.69   13.17
  -6  -5 -14   24.32    8.14
  -5  -6 -14   29.17   11.60
   5   6 -14   36.52   10.22
  -5  -6 -15  201.55   38.41
  -6  -5 -15  210.01   28.23
  -6  -5  15  184.32   43.32
  -5  -6  15  189.25   50.16
  -6   5  15  187.97   24.22
  -5   6  15  190.99   42.87
   5  -6  15  198.43   23.02
   6  -5  15  212.43   15.60
  -5   6 -15  205.72   20.12
   5   6 -15  267.18   48.27
  -6   5 -15  214.19   35.25
   6   5 -15  219.95   40.28
   6  -5 -15  196.69   33.71
  -6  -5 -15  167.84   31.42
   5  -6 -15  199.80   44.69
  -5  -6 -15  177.79   45.71
  -5  -6 -16  180.31   38.82
  -6  -5 -16  242.54   32.24
  -6  -5  16  193.55   49.30
  -5  -6  16  187.08   32.27
  -6   5  16  242.25   20.71
  -5   6  16  176.07   34.63
   5  -6  16  174.84   28.16
   6  -5  16  202.25   23.57
  -5   6 -16  198.61   44.67
   5   6 -16  177.33   46.12
  -6   5 -16  197.67   32.11
   6   5 -16  228.63   43.69
   6  -5 -16  180.78   32.35
   5  -6 -16  174.44   39.12
  -6  -5 -16  220.45   19.82
  -5  -6 -16  204.76   17.63
   5   6 -16  159.11   43.27
  -5  -6 -17  205.11   37.70
  -6  -5 -17  224.26   39.42
  -6  -5  17  181.04   37.27
  -5  -6  17  185.40   50.01
  -6   5  17  231.43   31.68
  -5   6  17  198.82   33.73
   5  -6  17  196.84   28.67
   6  -5  17  210.44   14.67
  -5   6 -17  209.64   20.20
   5   6 -17  161.57   42.35
  -6   5 -17  186.12   47.44
   6   5 -17  214.32   48.79
   6  -5 -17  185.80   36.98
  -6  -5 -17  218.43   17.55
   5  -6 -17  212.71   24.69
  -5  -6 -17  206.21   13.53
   5   6 -17  218.10   15.74
   6   5 -17  215.27   29.57
  -6  -5 -18   28.53   13.62
  -6  -5  18   15.91    9.20
  -5  -6  18   26.51    9.46
  -6   5  18   30.80   17.17
  -5   6  18   21.17   10.16
   5  -6  18   21.99   10.03
   6  -5  18   19.06   13.65
  -5   6 -18   31.37   14.81
   5   6 -18   28.12    8.94
  -6   5 -18   33.56   14.12
   6   5 -18   24.62    7.13
   6  -5 -18   19.94    8.68
  -6  -5 -18   26.96   14.19
   5  -6 -18   33.26   12.80
  -5  -6 -18   15.28    8.37
   5   6 -18   20.72    8.82
   6   5 -18   20.54    7.42
  -6  -6   0  144.71   10.89
   6  -6   0  120.55   12.05
  -6  -6  -1    3.04    3.16
  -6  -6   1    2.73    4.06
   6  -6  -1    5.61    4.85
   6  -6   1    4.48    1.64
  -6   6  -2 1461.68   35.40
  -6  -6  -2 1517.06   40.49
  -6   6   2 1522.53   37.57
  -6  -6   2 1595.58   42.58
   6  -6  -2 1612.60   41.57
  -6  -6  -2 1510.55   39.78
  -6   6  -2 1442.37   38.47
   6   6   2 1523.65   40.20
  -6   6  -3  448.93   14.77
  -6  -6  -3  438.51   21.02
  -6  -6   3  481.36   21.09
  -6   6   3  449.05   13.16
   6  -6  -3  467.66   19.55
  -6  -6  -3  435.03   17.36
  -6   6  -3  458.28   22.71
   6   6   3  481.74   24.00
  -6   6  -4   46.18    9.78
  -6  -6  -4   47.20    6.48
  -6  -6   4   51.96   12.50
  -6   6   4   44.87    5.29
   6  -6  -4   47.92   11.87
  -6  -6  -4   60.35   11.83
  -6   6  -4   42.09   10.99
   6   6   4   50.55    6.96
  -6   6  -5  117.77    8.92
  -6  -6  -5  176.72   33.25
  -6  -6   5  172.31   32.94
  -6   6   5  125.61    7.54
   6  -6  -5  153.90   13.41
  -6  -6  -5  147.78   24.87
  -6   6  -5  132.23   15.13
   6   6   5  148.22   16.85
  -6   6  -6   46.98   10.84
  -6  -6  -6   52.91   14.50
  -6  -6   6   59.32   10.16
  -6   6   6   42.21   10.34
   6   6  -6   42.39   11.43
   6  -6  -6   39.32   10.97
  -6  -6  -6   39.00   10.91
  -6   6  -6   63.04   12.03
  -6   6  -7  310.41   18.79
  -6  -6  -7  292.05   49.67
  -6  -6   7  367.04   47.47
  -6   6   7  302.79   16.52
   6   6  -7  287.72   16.57
   6  -6  -7  289.00   18.44
  -6  -6  -7  318.10   16.30
  -6   6  -7  276.37   16.27
   6   6   7  318.03   13.48
  -6   6  -8  155.88   13.52
  -6  -6  -8  137.52   30.15
  -6  -6   8  156.01   25.44
  -6   6   8  146.62   12.47
  -6   6  -8  155.86   30.47
   6   6  -8  176.01   34.64
   6  -6  -8  149.83   18.79
  -6  -6  -8  153.37   26.61
  -6   6  -8  152.83   11.82
   6   6   8  159.12   13.21
  -6  -6  -9 1167.52   42.71
  -6  -6   9 1201.10   44.75
  -6   6   9 1226.59   43.96
   6  -6   9 1184.24   39.56
   6   6  -9 1188.90   45.36
   6  -6  -9 1198.71   46.18
  -6  -6  -9 1138.71   39.60
  -6   6  -9 1192.79   42.41
   6   6   9 1118.01   34.88
  -6  -6 -10  165.32   18.14
  -6  -6  10  189.15   32.20
  -6   6  10  181.35   23.24
   6  -6  10  182.49   13.41
  -6   6 -10  185.83   20.16
   6   6 -10  191.33   40.30
   6  -6 -10  180.89   14.95
  -6  -6 -10  173.48   35.63
  -6   6 -10  174.09   13.87
  -6  -6 -11    6.64    5.06
  -6  -6  11    4.89    6.28
  -6   6  11    0.72    3.62
  -6   6 -11    8.08    6.92
   6   6 -11    8.19    5.84
   6  -6 -11    5.87    8.24
  -6  -6 -11    2.04    4.13
  -6   6 -11    1.44    2.29
  -6  -6 -12   90.81   18.02
  -6  -6  12   84.33   23.92
  -6   6  12   87.53   21.61
   6  -6  12   80.39   21.53
  -6   6 -12   87.31   23.19
   6   6 -12   91.09   20.29
   6  -6 -12   91.69   19.35
  -6  -6 -12   81.40   15.72
  -6   6 -12   65.55   14.38
  -6  -6 -13   30.72    8.77
  -6  -6  13   10.51   11.21
  -6   6  13    8.73    6.48
   6  -6  13   15.13    8.04
  -6   6 -13   26.37    8.75
   6   6 -13   16.76    7.54
   6  -6 -13   34.09   10.89
  -6  -6 -13   13.57    6.33
  -6  -6 -14  799.82   25.45
  -6  -6  14  803.06   23.37
  -6   6  14  834.47   35.66
   6  -6  14  807.14   28.75
  -6   6 -14  715.72   27.44
   6   6 -14  766.33   33.26
   6  -6 -14  778.75   36.69
  -6  -6 -14  820.94   22.26
   6   6 -14  828.43   23.45
  -6  -6 -15    8.98    6.87
  -6  -6  15    4.21    6.27
  -6   6  15    3.07    7.43
   6  -6  15    2.92    4.35
  -6   6 -15   -2.29    4.92
   6   6 -15    7.44    4.62
   6  -6 -15    0.48    4.16
  -6  -6 -15    4.93    5.64
   6   6 -15    3.59    4.79
  -6  -6 -16   15.50    9.29
  -6  -6  16    6.26    6.95
  -6   6  16    8.21    5.99
   6  -6  16    2.43    5.09
  -6   6 -16   16.62    5.60
   6   6 -16    5.30    4.82
   6  -6 -16   11.63   10.91
  -6  -6 -16   11.71    6.82
   6   6 -16    5.49    3.51
  -6  -6 -17   11.25    6.10
  -6  -6  17    8.16    5.12
  -6   6  17    8.49    4.28
   6  -6  17    4.21    7.20
  -6   6 -17   10.24    4.86
   6  -6 -17    7.38    5.74
  -6  -6 -17    6.70    4.94
   6   6 -17   11.10    7.89
  -6  -6 -18  345.47   19.19
  -6  -6  18  309.47   50.91
  -6   6  18  343.46   18.11
   6  -6  18  334.94   20.85
  -6   6 -18  324.78   28.56
   6   6 -18  322.78   38.03
   6  -6 -18  331.98   33.41
  -6  -6 -18  335.48   19.74
   6   6 -18  345.26   19.01
   0  -7   0    0.53    1.11
  -7   0   0    6.18    5.48
   0   7   0    3.39    3.26
   0  -7  -1  157.56    8.24
  -7   0  -1  158.07    8.32
   0  -7   1  158.27    7.30
  -7   0   1  172.99   25.51
   7   0  -1  154.65    7.04
  -7   0   1  137.46    6.45
   0  -7  -1  159.24    8.99
   0   7   1  148.91   12.62
   0   7  -1  133.62   17.04
   0  -7  -2  419.97   11.89
  -7   0  -2  417.22   14.20
  -7   0   2  393.17   13.25
   0  -7   2  389.74   11.00
   7   0  -2  433.38   12.69
   0  -7  -2  399.33   18.09
   0   7   2  417.42   19.13
   0   7  -2  402.42   17.23
   0  -7  -3  500.41   14.93
  -7   0  -3  526.53   17.44
  -7   0   3  484.02   15.61
   0  -7   3  512.46   16.44
   7   0  -3  505.79   14.42
   0  -7  -3  495.61   18.90
   0   7   3  516.15   15.95
   0   7  -3  501.88   17.20
   0  -7  -4  344.29   12.42
  -7   0  -4  340.43   13.90
  -7   0   4  329.17   12.19
   0  -7   4  378.35   12.75
   7   0  -4  361.16   12.55
   0  -7  -4  345.59   13.51
   7   0   4  315.50    9.01
   0   7   4  342.57   19.79
   0   7  -4  345.26   22.45
   0  -7  -5  553.70   20.31
  -7   0  -5  568.06   24.44
  -7   0   5  558.17   18.81
   0  -7   5  558.00   18.96
   7   0  -5  560.14   19.90
  -7   0  -5  553.57   15.05
   0   7   5  583.61   17.90
   0   7  -5  504.89   17.36
   0  -7  -6   19.58    6.42
  -7   0  -6   23.25    9.08
  -7   0   6   29.53    7.33
   0  -7   6   27.56    5.38
   7   0  -6   28.30    7.68
  -7   0  -6   21.97    4.20
   0  -7  -6   31.96    7.54
   0   7   6   25.17    6.15
   0   7  -6   27.31    6.48
   0  -7  -7   96.59   17.02
  -7   0  -7   66.98   18.55
  -7   0   7   98.01   24.30
   0  -7   7   89.64   18.29
   0   7  -7   96.74   21.87
   7   0  -7   90.11   13.05
  -7   0  -7   89.47   12.22
   0  -7  -7   90.15    8.76
   0   7   7   91.76    9.60
   0   7  -7  104.00   23.73
   0  -7  -8  742.30   31.80
  -7   0  -8  774.05   33.41
  -7   0   8  786.42   32.10
   0  -7   8  802.79   31.86
   0   7  -8  742.24   34.57
   7   0  -8  845.31   37.32
  -7   0  -8  805.35   30.66
   0  -7  -8  774.57   33.25
   0   7   8  758.54   32.86
   0   7  -8  771.41   31.37
   0  -7  -9    6.03    4.02
  -7   0  -9   13.59    4.64
  -7   0   9   13.86    8.16
   0  -7   9    2.72    4.63
   0   7  -9    9.46    5.78
   7   0  -9   12.62    6.47
  -7   0  -9   11.95    4.36
   0  -7  -9   21.77    7.99
   0   7  -9   12.88    5.64
   0  -7 -10   11.60    4.74
  -7   0 -10   17.58    9.32
  -7   0  10   19.38    7.21
   0  -7  10   27.98    7.60
   0   7 -10   21.24    5.67
   7   0 -10    8.31    4.82
  -7   0 -10   12.62    4.81
   0  -7 -10   16.06    9.76
   0   7 -10   29.22   11.64
  -7   0 -11  198.41   35.79
  -7   0  11  177.99   26.76
   0  -7  11  178.01   33.63
   0   7  11  174.30   26.58
   0   7 -11  168.88   34.57
   7   0 -11  182.09   33.53
  -7   0 -11  172.57   23.36
   0  -7 -11  189.31   17.51
   0   7 -11  174.90   23.41
  -7   0 -12   32.67    7.48
  -7   0  12   26.88    7.06
   0  -7  12   24.56    6.37
   0   7  12   27.57   12.06
   0   7 -12   28.62    8.60
   7   0 -12   29.43    7.46
  -7   0 -12   15.41    5.54
   0  -7 -12   15.71    5.29
   0   7 -12   32.11    8.83
  -7   0 -13  355.51   24.11
  -7   0  13  311.27   29.08
   0  -7  13  317.63   27.45
   0   7  13  309.84   17.68
   0   7 -13  315.65   17.12
   7   0 -13  353.09   27.66
  -7   0 -13  322.32   15.82
   0  -7 -13  316.96   41.91
   0   7 -13  324.25   16.87
  -7   0 -14  147.36   31.31
  -7   0  14  112.20   26.74
   0  -7  14  112.95   28.74
   0   7  14  105.47   36.53
   0   7 -14  128.07   31.76
   7   0 -14  167.58   33.63
  -7   0 -14  124.53   28.68
   0  -7 -14  119.42   31.82
   0   7 -14   97.56   24.04
  -7   0 -15  437.25   26.94
  -7   0  15  414.53   17.37
   0  -7  15  426.57   32.20
   0   7  15  427.26   18.31
   0   7 -15  447.93   17.99
   7   0 -15  405.20   34.47
  -7   0 -15  468.25   19.31
   0  -7 -15  430.13   26.17
   0   7 -15  451.60   15.82
  -7   0 -16   61.69   19.23
  -7   0  16   50.21   17.32
   0  -7  16   55.90   23.03
   0   7  16   53.52   20.91
   0   7 -16   63.51   16.09
   7   0 -16   74.92   16.71
  -7   0 -16   66.56   16.71
   0  -7 -16   55.43   10.46
   0   7 -16   35.25   17.08
  -7   0 -17  268.70   38.87
  -7   0  17  268.48   23.30
   0  -7  17  273.46   26.66
   0   7  17  269.35   16.51
   7   0 -17  323.37   44.01
  -7   0 -17  302.72   23.62
   0  -7 -17  238.34   55.06
  -7   0  18   99.69   29.87
   0  -7  18   72.62   30.45
   0   7  18   52.65   28.17
   7   0  18   77.79   34.06
   0   7 -18   91.06   21.84
   7   0 -18  115.30   23.54
  -7   0 -18   74.93   17.53
   0  -7 -18   84.88   28.84
  -7   0  19   21.81   11.13
   0  -7  19   29.05   23.50
   0   7  19   19.54   11.00
   7   0  19   29.77    9.87
   0   7 -19   46.69   19.89
   7   0 -19   44.85   14.29
  -7   0 -19   42.67   14.68
   0  -7 -19   25.72   21.18
   1  -7   0   49.01    5.32
  -1  -7   0   48.39    6.55
  -7   1   0   76.12   18.90
  -7  -1   0   60.13    6.28
  -1   7   0   38.82    4.99
  -7  -1   0   43.19    5.09
  -1   7   0   41.55   12.72
   1   7   0   61.97   13.97
   1  -7  -1  871.26   19.58
  -1  -7  -1  860.35   20.83
  -7   1  -1  823.02   22.15
  -7  -1  -1  880.95   24.57
   1  -7   1  892.57   20.02
  -1  -7   1  852.01   20.68
  -7   1   1  859.29   23.37
  -7  -1   1  869.41   23.72
  -1   7   1  837.76   18.73
  -1   7  -1  806.12   18.24
   7  -1  -1  823.86   18.46
  -7  -1  -1  795.41   17.38
   1  -7  -1  877.23   23.75
  -1   7   1  887.39   28.24
  -1   7  -1  757.40   25.89
   1   7   1  856.16   23.12
   1   7  -1  901.33   24.43
   1  -7  -2 1491.25   32.82
  -1  -7  -2 1490.14   34.28
  -7   1  -2 1494.21   35.82
  -7  -1  -2 1575.22   38.52
  -7  -1   2 1503.28   36.79
  -7   1   2 1521.75   37.53
  -1  -7   2 1550.59   35.45
   1  -7   2 1535.77   33.92
  -7  -1  -2 1486.89   31.82
   7   1  -2 1547.46   34.71
   7  -1  -2 1519.38   33.52
  -7  -1  -2 1508.79   32.37
   1  -7  -2 1543.32   43.44
  -1  -7  -2 1513.84   37.34
  -1   7   2 1506.71   36.69
  -1   7  -2 1558.50   38.38
   1   7   2 1581.75   38.11
   1   7  -2 1465.59   36.45
   1  -7  -3  196.81    8.64
  -1  -7  -3  204.28   10.47
  -7   1  -3  197.86   17.15
  -7  -1  -3  185.48   11.05
  -7  -1   3  203.47    9.43
  -7   1   3  181.38    8.56
  -1  -7   3  191.13    7.79
   1  -7   3  201.12    6.53
   7   1  -3  192.06    8.38
   7  -1  -3  215.15   12.97
   1  -7  -3  192.15   10.85
  -1  -7  -3  195.44   12.20
   7  -1   3  175.17    4.21
  -1   7   3  207.68   11.57
   1   7   3  200.66    8.88
  -1   7  -3  178.63   12.61
   1   7  -3  217.31   10.77
   1  -7  -4  468.35   15.71
  -1  -7  -4  508.97   16.17
  -7   1  -4  496.69   16.29
  -7  -1  -4  465.95   21.09
  -7  -1   4  500.18   17.96
  -7   1   4  492.54   16.04
  -1  -7   4  498.53   15.13
   1  -7   4  518.55   16.04
   7   1  -4  511.70   18.14
   7  -1  -4  537.13   17.33
  -7  -1  -4  507.05   13.70
   7  -1   4  474.46   13.50
   1  -7  -4  490.34   16.99
  -1  -7  -4  508.89   17.61
  -1   7   4  562.95   25.61
   1   7   4  497.51   16.96
  -1   7  -4  494.67   18.71
   1   7  -4  516.74   17.55
   1  -7  -5  689.10   20.81
  -1  -7  -5  691.90   20.02
  -7   1  -5  690.50   24.78
  -7  -1  -5  637.09   29.27
  -7  -1   5  656.33   21.17
  -7   1   5  679.75   22.32
  -1  -7   5  714.20   20.67
   1  -7   5  703.17   19.84
  -7   1  -5  660.17   17.07
   7   1  -5  695.66   21.15
   7  -1  -5  695.02   21.72
  -7  -1  -5  684.75   18.44
   1  -7  -5  707.38   30.30
  -1  -7  -5  697.79   30.19
  -1   7   5  699.58   21.87
   1   7   5  727.70   24.55
  -1   7  -5  687.23   25.08
   1   7  -5  646.93   21.18
   1  -7  -6  708.90   21.68
  -1  -7  -6  695.89   23.19
  -7   1  -6  686.12   22.68
  -7  -1  -6  659.06   29.60
  -7  -1   6  698.84   22.22
  -7   1   6  685.13   25.96
  -1  -7   6  703.01   26.78
   1  -7   6  719.94   26.72
   7   1  -6  779.48   30.60
  -7   1  -6  709.28   20.34
   7  -1  -6  751.01   31.19
  -7  -1  -6  696.19   19.14
   1  -7  -6  710.14   22.95
  -1  -7  -6  688.12   30.12
  -1   7   6  742.11   22.16
   1   7   6  720.36   22.27
  -1   7  -6  659.13   21.53
   1   7  -6  711.98   22.76
  -1  -7  -7  391.20   23.63
  -7   1  -7  378.26   18.65
  -7  -1  -7  408.83   21.95
  -7  -1   7  364.01   17.91
  -7   1   7  393.62   18.08
  -1  -7   7  422.10   29.80
   1  -7   7  388.99   18.56
  -1   7  -7  426.06   19.42
   1   7  -7  377.70   19.48
   7   1  -7  421.34   20.33
  -7   1  -7  371.82   19.07
   7  -1  -7  405.69   19.17
  -7  -1  -7  417.21   17.11
   1  -7  -7  460.82   34.45
  -1  -7  -7  350.29   30.04
  -1   7   7  388.04   17.67
   1   7   7  440.43   18.68
  -1   7  -7  439.67   24.80
   1   7  -7  371.41   17.68
  -1  -7  -8  535.53   23.33
  -7   1  -8  470.80   31.32
  -7  -1  -8  463.38   30.29
  -7  -1   8  479.47   22.40
  -7   1   8  543.78   23.90
  -1  -7   8  501.48   29.90
   1  -7   8  489.62   25.80
  -1   7   8  494.25   21.29
  -1   7  -8  505.83   23.43
   1   7  -8  500.83   22.43
   7   1  -8  511.90   21.84
  -7   1  -8  504.39   20.62
   7  -1  -8  529.21   30.57
  -7  -1  -8  521.07   21.19
   1  -7  -8  541.89   47.72
  -1  -7  -8  506.72   23.89
   1   7   8  536.73   21.52
  -1   7  -8  506.59   23.46
   1   7  -8  452.82   21.30
  -1  -7  -9  295.05   28.61
  -7   1  -9  251.64   19.34
  -7  -1  -9  244.40   17.63
  -7  -1   9  278.52   43.28
  -7   1   9  254.80   26.20
  -1  -7   9  275.83   14.87
   1  -7   9  276.97   23.92
  -1   7   9  260.45   13.18
  -1   7  -9  271.92   15.63
   1   7  -9  254.33   14.18
   7   1  -9  276.71   27.28
  -7   1  -9  244.38   13.18
   7  -1  -9  294.62   19.64
  -7  -1  -9  254.03   12.07
   1  -7  -9  245.06   21.89
  -1  -7  -9  268.57   28.47
   1   7   9  256.08   17.29
  -1   7  -9  249.75   19.38
   1   7  -9  313.20   35.47
  -1  -7 -10  404.62   20.93
  -7   1 -10  434.44   22.91
  -7  -1 -10  493.64   25.21
  -7  -1  10  423.14   22.87
  -7   1  10  472.27   25.26
  -1  -7  10  440.18   34.29
   1  -7  10  436.92   34.27
  -1   7  10  416.32   26.75
  -1   7 -10  479.54   25.95
   1   7 -10  416.39   21.85
   7   1 -10  468.27   23.93
  -7   1 -10  427.42   22.17
   7  -1 -10  382.48   22.84
  -7  -1 -10  477.25   25.68
   1  -7 -10  454.30   41.86
  -1  -7 -10  438.86   25.02
  -1   7 -10  487.49   24.42
   1   7 -10  409.05   22.97
  -1  -7 -11  375.23   18.29
  -7   1 -11  389.47   18.24
  -7  -1 -11  349.66   20.04
  -7  -1  11  382.45   18.65
  -7   1  11  354.38   28.66
  -1  -7  11  411.32   46.10
   1  -7  11  409.32   18.75
  -1   7  11  360.67   22.81
  -1   7 -11  380.42   19.31
   1   7 -11  383.41   19.03
   7   1 -11  383.41   28.80
  -7   1 -11  360.20   16.80
   7  -1 -11  372.03   20.86
  -7  -1 -11  392.18   18.55
   1  -7 -11  386.74   20.93
  -1  -7 -11  391.34   20.61
  -1   7 -11  391.26   19.36
   1   7 -11  394.30   25.18
  -1  -7 -12  205.23   27.26
  -7   1 -12  198.36   37.21
  -7  -1 -12  184.70   26.19
  -7  -1  12  209.65   41.03
  -7   1  12  195.30   36.68
  -1  -7  12  169.94   29.76
   1  -7  12  172.82   38.96
  -1   7  12  184.56   27.52
  -1   7 -12  211.71   37.21
   1   7 -12  167.45   33.87
   7   1 -12  182.32   17.17
  -7   1 -12  217.96   17.85
   7  -1 -12  217.19   41.66
  -7  -1 -12  165.23   22.13
   1  -7 -12  180.10   42.05
  -1  -7 -12  182.79   38.10
  -1   7 -12  159.31   37.69
   1   7 -12  179.89   23.03
  -7   1 -13   25.95    7.50
  -7  -1 -13   27.49    9.68
  -7  -1  13   37.48   10.56
  -7   1  13   23.65    6.42
  -1  -7  13   15.20    6.30
   1  -7  13   27.03   11.48
  -1   7  13   23.12    7.97
   1   7  13   20.83    9.52
  -1   7 -13   24.35    6.84
   1   7 -13   27.40    8.61
   7   1 -13   16.15    7.09
  -7   1 -13   24.39    8.58
   7  -1 -13   25.78    9.91
  -7  -1 -13   24.21    6.13
   1  -7 -13   22.41   10.40
  -1  -7 -13   15.66    6.60
  -1   7 -13   23.05    7.60
   1   7 -13   17.29    5.84
  -7   1 -14  607.57   43.61
  -7  -1 -14  580.60   27.04
  -7  -1  14  561.99   23.56
  -7   1  14  682.52   20.94
  -1  -7  14  656.91   29.54
   1  -7  14  583.87   30.08
  -1   7  14  578.52   29.11
   1   7  14  603.56   25.04
   1   7 -14  571.75   22.78
  -1   7 -14  612.86   22.64
   7   1 -14  695.51   25.94
  -7   1 -14  592.46   24.92
   7  -1 -14  623.07   25.46
  -7  -1 -14  615.78   22.27
   1  -7 -14  620.31   26.43
  -1  -7 -14  585.10   23.85
  -1   7 -14  630.38   18.24
   1   7 -14  601.21   22.53
  -7   1 -15   43.89   15.87
  -7  -1 -15   22.11    7.03
  -7  -1  15   52.83   18.05
  -7   1  15   32.02    9.42
  -1  -7  15   43.55   12.87
   1  -7  15   47.72   13.82
  -1   7  15   34.68   12.27
   1   7  15   31.39    9.93
  -1   7 -15   27.94   11.39
   1   7 -15   30.28   10.69
   7   1 -15   37.89   10.23
  -7   1 -15   42.19   10.79
   7  -1 -15   27.71    8.66
  -7  -1 -15   22.74   10.63
   1  -7 -15   35.03   16.04
  -1  -7 -15   31.09   15.81
  -1   7 -15   25.62    6.37
   1   7 -15   36.57    9.47
  -7   1 -16   96.13   25.68
  -7  -1 -16  104.61   18.78
  -7  -1  16  100.14   25.40
  -7   1  16   84.84   32.39
  -1  -7  16   99.44   22.10
   1  -7  16   86.10   34.69
  -1   7  16   76.51   32.41
   1   7  16   85.53   26.77
  -1   7 -16  129.43   26.05
   1   7 -16   84.22   18.68
   7   1 -16   98.29   16.74
  -7   1 -16   90.87   19.93
   7  -1 -16  100.84   21.79
  -7  -1 -16   66.55   22.58
   1  -7 -16   84.96   24.99
  -1  -7 -16   61.69   21.69
   1   7 -16   77.94   20.08
  -7  -1 -17   15.34   12.08
  -7  -1  17    9.36    6.14
  -7   1  17   25.73   15.01
  -1  -7  17   16.86    4.79
   1  -7  17   24.14    8.75
  -1   7  17    4.69    9.00
   1   7  17   17.54    7.06
   7  -1  17   12.17    5.53
  -1   7 -17   15.70    7.49
   1   7 -17   21.79    8.70
   7   1 -17   20.15    7.12
  -7   1 -17   27.17    6.56
   7  -1 -17   23.29    6.25
  -7  -1 -17   21.39    7.30
   1  -7 -17   16.48   10.18
  -1  -7 -17   16.81    8.12
  -7  -1  18   87.08   40.65
  -7   1  18   74.21   38.68
  -1  -7  18   89.39   32.27
  -1   7  18   76.68   36.37
   1   7  18   80.31   31.89
   7  -1  18  111.04   16.48
  -1   7 -18  105.78   25.77
   1   7 -18  113.30   28.56
   7   1 -18  112.00   21.88
  -7   1 -18  101.03   24.01
   7  -1 -18  119.48   23.09
  -7  -1 -18   82.54   27.80
   1  -7 -18   79.12   30.26
  -1  -7 -18   80.60   42.43
  -7  -1  19    5.07    4.36
  -7   1  19   22.85   11.50
  -1  -7  19   13.97   12.20
   1  -7  19   16.85   11.37
  -1   7  19   14.24    8.24
   1   7  19    9.70    9.69
   7  -1  19   13.26    8.36
   7   1  19    2.75    6.71
  -1   7 -19    9.04    5.76
   1   7 -19    4.19    4.09
   7   1 -19   10.50    8.26
  -7   1 -19    6.23    6.06
   7  -1 -19   16.28    6.72
  -7  -1 -19    2.67    3.52
   1  -7 -19    7.09   12.53
  -1  -7 -19   10.03    6.77
  -2  -7   0    5.59    3.25
  -7   2   0    3.11    3.80
  -7  -2   0    2.95    4.34
   7  -2   0    2.22    1.15
  -2   7   0    6.13    3.87
   2   7   0    6.16    5.31
  -2  -7  -1   13.99    3.98
  -7   2  -1   15.39    7.11
  -7  -2  -1   21.87    5.88
  -2  -7   1   21.09    6.48
  -7   2   1   28.62    6.93
  -7  -2   1    6.60    6.70
   7  -2  -1   11.68    2.47
  -7  -2  -1   24.81    5.16
   2  -7  -1   27.27    8.15
  -2   7   1   15.23    4.46
  -2   7  -1   34.37    9.93
   2   7   1   26.84    6.56
   2   7  -1   14.12    6.05
   2  -7   2  506.41   12.91
  -2  -7  -2  574.55   16.09
  -7   2  -2  561.25   16.36
  -7  -2  -2  567.45   19.37
  -2   7   2  543.70   12.78
  -7   2   2  543.21   17.25
  -7  -2   2  572.59   17.45
  -2  -7   2  536.85   14.98
   2  -7   2  567.37   13.03
  -2   7   2  566.44   12.99
   7  -2  -2  592.65   14.72
  -7  -2  -2  548.49   13.36
   2  -7  -2  524.59   28.05
  -2  -7  -2  577.27   17.91
  -2   7   2  548.96   16.98
  -2   7  -2  556.29   20.82
   2   7   2  523.87   16.17
   2   7  -2  567.02   17.77
  -2  -7  -3  544.71   15.62
  -7   2  -3  543.67   17.93
  -7  -2  -3  617.31   19.13
  -7  -2   3  555.05   19.50
  -7   2   3  637.33   22.32
  -2  -7   3  611.70   16.69
   2  -7   3  564.90   14.05
   7   2  -3  633.08   16.68
   7  -2  -3  588.73   15.91
   7  -2   3  548.52   12.46
  -7  -2  -3  623.50   15.31
   2  -7  -3  618.96   24.17
  -2  -7  -3  564.62   17.90
  -2   7   3  553.92   19.48
  -2   7  -3  636.31   19.88
   2   7   3  611.04   20.01
   2   7  -3  540.72   19.65
  -2  -7  -4  431.09   19.62
  -7   2  -4  446.27   19.23
  -7  -2  -4  406.77   15.94
  -7  -2   4  431.39   15.82
  -7   2   4  432.51   16.23
  -2  -7   4  419.84   24.14
   2  -7   4  400.97   12.10
  -2   7   4  421.43   14.30
   7   2  -4  429.05   15.42
   7  -2  -4  441.15   21.24
   7  -2   4  386.75   11.19
  -7  -2  -4  424.08   12.50
   2  -7  -4  401.55   23.54
  -2  -7  -4  413.73   19.12
  -2   7   4  420.55   21.44
  -2   7  -4  404.38   15.96
   2   7   4  414.63   14.44
   2   7  -4  389.12   15.02
  -2  -7  -5 1546.03   41.72
  -7   2  -5 1492.20   40.25
  -7  -2  -5 1526.20   41.40
  -7  -2   5 1573.59   42.57
  -7   2   5 1525.24   41.73
  -2  -7   5 1623.91   41.70
   2  -7   5 1513.28   39.71
  -2   7   5 1585.94   39.40
  -7   2  -5 1482.67   36.40
   7   2  -5 1491.74   38.52
   7  -2  -5 1463.81   40.05
  -7  -2  -5 1591.46   39.44
   2  -7  -5 1558.49   42.31
  -2  -7  -5 1414.20   43.18
  -2   7   5 1534.61   40.19
   2   7   5 1512.15   38.93
  -2   7  -5 1545.42   41.22
   2   7  -5 1480.66   40.32
  -2  -7  -6  859.55   25.12
  -7   2  -6  819.53   24.29
  -7  -2  -6  807.21   25.72
  -7  -2   6  785.80   36.33
  -7   2   6  765.84   27.99
  -2  -7   6  853.29   24.83
   2  -7   6  880.64   28.14
  -2   7   6  847.37   27.97
  -7   2  -6  819.62   21.90
   7   2  -6  812.93   24.89
   7  -2  -6  841.79   27.92
  -7  -2  -6  826.38   22.84
   2  -7  -6  851.05   25.93
  -2  -7  -6  829.23   31.13
  -2   7   6  867.27   27.77
   2   7   6  802.74   23.84
  -2   7  -6  785.70   25.17
   2   7  -6  823.51   26.15
  -2  -7  -7 1232.09   46.85
  -7   2  -7 1177.46   44.18
  -7  -2  -7 1263.13   48.40
  -7  -2   7 1191.03   45.36
  -7   2   7 1129.57   44.68
  -2  -7   7 1171.94   43.70
   2  -7   7 1174.66   45.43
  -2   7   7 1219.34   45.65
  -2   7  -7 1097.92   41.74
   2   7  -7 1249.41   51.82
  -7   2  -7 1204.45   43.05
   7   2  -7 1166.14   43.24
   7  -2  -7 1215.15   44.90
  -7  -2  -7 1146.03   44.47
   2  -7  -7 1095.84   41.92
  -2  -7  -7 1264.42   48.11
   2   7   7 1160.43   43.00
  -2   7  -7 1161.27   44.13
   2   7  -7 1222.23   46.36
  -2  -7  -8  414.50   17.67
  -7   2  -8  434.35   26.19
  -7  -2  -8  477.24   26.40
  -7  -2   8  392.05   18.87
  -7   2   8  492.25   22.01
  -2  -7   8  489.64   21.82
   2  -7   8  414.99   21.87
  -2   7   8  410.58   18.08
  -2   7  -8  473.06   20.51
   2   7  -8  429.83   19.41
  -7   2  -8  429.25   16.62
   7   2  -8  486.27   19.76
   7  -2  -8  436.86   22.31
  -7  -2  -8  464.06   21.04
   2  -7  -8  464.86   33.00
  -2  -7  -8  412.91   18.85
  -2   7  -8  439.02   27.74
   2   7  -8  420.37   20.03
  -2  -7  -9  279.66   15.16
  -7   2  -9  236.08   23.01
  -7  -2  -9  272.79   22.90
  -7  -2   9  275.02   15.45
  -7   2   9  231.21   26.27
  -2  -7   9  287.38   21.73
   2  -7   9  325.18   26.97
  -2   7   9  323.29   16.18
  -2   7  -9  284.49   15.67
   2   7  -9  277.28   28.25
  -7   2  -9  259.75   19.36
   7   2  -9  279.80   23.86
   7  -2  -9  321.08   23.32
  -7  -2  -9  272.08   16.63
   2  -7  -9  273.28   22.21
  -2  -7  -9  302.12   37.75
   2   7   9  285.74   22.82
  -2   7  -9  262.24   21.61
   2   7  -9  262.06   14.91
  -2  -7 -10  162.55   11.32
  -7   2 -10  157.86   24.32
  -7  -2 -10  183.29   34.32
  -7  -2  10  184.40   30.53
  -7   2  10  164.19   19.50
  -2  -7  10  188.34   35.56
   2  -7  10  160.97   13.99
  -2   7  10  146.17   23.47
  -2   7 -10  200.33   33.02
   2   7 -10  145.61   32.99
  -7   2 -10  143.90   15.42
   7   2 -10  203.84   30.82
   7  -2 -10  169.81   19.87
  -7  -2 -10  172.18   12.06
   2  -7 -10  204.89   34.64
  -2  -7 -10  166.87   31.52
  -2   7 -10  176.27   14.92
   2   7 -10  174.21   31.31
  -2  -7 -11   78.81   17.47
  -7   2 -11   89.87   18.67
  -7  -2 -11  106.93   20.69
  -7  -2  11  101.64   17.88
  -7   2  11  107.53   21.75
  -2  -7  11   97.13   21.92
   2  -7  11   80.06   21.10
  -2   7  11   77.43   17.00
  -2   7 -11   80.49   19.27
   2   7 -11   76.73   22.61
   7   2 -11   95.98   18.03
  -7   2 -11   92.66   18.56
   7  -2 -11   90.27   15.93
  -7  -2 -11   80.75   22.20
   2  -7 -11   74.24   21.97
  -2  -7 -11  102.91   19.23
  -2   7 -11   92.70   21.85
   2   7 -11   90.35   17.20
  -2  -7 -12   98.48   15.90
  -7   2 -12   82.08   16.76
  -7  -2 -12  134.51   26.15
  -7  -2  12   78.88   19.90
  -7   2  12  113.47   28.28
  -2  -7  12  114.00   30.61
   2  -7  12   84.33   19.61
  -2   7  12   79.02   19.42
  -2   7 -12  146.19   27.47
   2   7 -12   82.75   20.96
   7   2 -12  147.93   33.96
  -7   2 -12   98.05   22.52
   7  -2 -12  101.13   28.89
  -7  -2 -12   96.12   14.10
   2  -7 -12  107.10   17.31
  -2  -7 -12  101.34   18.93
  -2   7 -12  124.17   23.21
   2   7 -12   92.14   19.88
  -2  -7 -13   34.98   14.21
  -7   2 -13   33.44   10.41
  -7  -2 -13   19.34    8.01
  -7  -2  13   32.01   11.78
  -7   2  13   28.17   11.76
  -2  -7  13   24.94   10.36
   2  -7  13   34.40   13.20
  -2   7  13   34.85   13.25
  -2   7 -13   34.20    8.63
   2   7 -13   23.70    8.54
  -7   2 -13   31.47    7.95
   7   2 -13   25.82    9.00
   7  -2 -13   41.83   12.90
  -7  -2 -13   12.91    4.99
   2  -7 -13   29.66   11.12
  -2  -7 -13   39.41    9.38
  -2   7 -13   25.81    8.85
   2   7 -13   24.87    9.30
  -2  -7 -14   61.88   19.72
  -7   2 -14   52.96   14.41
  -7  -2 -14   90.05   21.40
  -7  -2  14   48.51   16.57
  -7   2  14   69.48   19.29
  -2  -7  14   59.88   21.94
   2  -7  14   73.68   20.92
  -2   7  14   53.78   24.74
  -2   7 -14   76.34   14.84
   2   7 -14   55.16   12.44
  -7   2 -14   85.13   17.44
   7   2 -14   70.84   17.29
   7  -2 -14   69.60   17.17
  -7  -2 -14   49.27   14.83
   2  -7 -14   80.04   20.69
  -2  -7 -14   55.13   14.20
  -2   7 -14   83.96   14.98
   2   7 -14   50.04   19.62
  -7   2 -15   21.80    8.17
  -7  -2 -15   33.88   12.91
  -7  -2  15   21.80    7.10
  -7   2  15   25.01   11.84
  -2  -7  15   17.05   10.90
   2  -7  15   17.32   10.01
  -2   7  15   20.34    7.94
   2   7  15   22.35    8.82
  -2   7 -15   18.75    7.40
   2   7 -15   22.51   10.41
  -7   2 -15   23.08    6.83
   7   2 -15   37.49   10.43
   7  -2 -15   35.86   13.58
  -7  -2 -15   18.93    6.80
   2  -7 -15   36.89   14.49
  -2  -7 -15   13.57    8.88
  -2   7 -15   24.07    7.77
   2   7 -15   18.12    6.18
  -7  -2 -16   36.72   19.34
  -7  -2  16   34.66   11.99
  -7   2  16   40.52   18.07
  -2  -7  16   46.90   15.59
   2  -7  16   41.66   13.71
  -2   7  16   42.24   13.72
   2   7  16   48.45   22.37
   7  -2  16   33.47   17.57
  -2   7 -16   49.22   15.67
   2   7 -16   49.54   15.96
  -7   2 -16   55.12   14.29
   7   2 -16   62.78   13.17
   7  -2 -16   32.53   13.99
  -7  -2 -16   42.46   16.74
   2  -7 -16   46.13   15.55
  -2  -7 -16   48.84   19.05
   2   7 -16   38.50   13.15
  -7  -2 -17   12.95   10.16
  -7  -2  17   15.64    9.90
  -7   2  17    8.29    8.71
  -2  -7  17    8.33    4.06
   2  -7  17   22.82   15.24
  -2   7  17   14.14    8.55
   2   7  17   22.34   12.36
   7  -2  17   -4.47    6.24
  -2   7 -17    6.46    6.38
   2   7 -17   10.12    7.98
  -7   2 -17   16.55    5.50
   7   2 -17    9.73    6.08
   7  -2 -17   18.50    9.68
  -7  -2 -17   15.29    7.43
   2  -7 -17    4.47    3.83
  -2  -7 -17    8.37    9.35
   2   7 -17   10.19    7.28
  -7  -2 -18   22.35   12.61
  -7  -2  18   39.61   14.31
  -7   2  18   24.89   11.51
  -2  -7  18   16.71    7.42
   2  -7  18   20.31    8.30
  -2   7  18   20.44    6.85
   2   7  18   12.54   10.54
   7  -2  18   17.95    9.04
  -2   7 -18   30.61    8.78
   2   7 -18   14.30    6.00
  -7   2 -18   30.92   10.90
   7   2 -18   24.57    8.13
   7  -2 -18   26.09   12.59
  -7  -2 -18   22.26   11.78
   2  -7 -18   28.74   16.31
  -2  -7 -18   16.22   14.33
  -7  -2  19   52.95   14.79
  -7   2  19   37.33   17.75
  -2  -7  19   51.46   19.59
   2  -7  19   47.59   19.43
  -2   7  19   29.01   15.99
   2   7  19   29.51   15.91
   7  -2  19   12.68    6.59
   7   2  19   29.17   26.20
  -2   7 -19   55.57   20.08
   2   7 -19   48.17   14.76
  -7   2 -19   59.28   16.99
   7   2 -19   50.81   16.92
   7  -2 -19   50.88   17.76
  -7  -2 -19   32.57   18.71
   2  -7 -19   54.64   19.55
  -2  -7 -19   36.48   24.23
  -7   3   0   18.12    5.72
  -3  -7   0   16.14    5.64
  -7  -3   0   13.88    5.32
   7  -3   0   12.87    3.04
  -3   7   0   14.72    4.86
   3   7   0   20.31    4.93
  -7   3  -1  288.68   14.06
  -7  -3  -1  333.87   30.77
  -7   3   1  291.42   11.95
  -3  -7   1  314.07   11.36
  -7  -3   1  277.57   11.87
   7  -3  -1  292.66    9.74
   7  -3   1  307.62    8.03
   3  -7  -1  287.86   10.87
  -7  -3  -1  306.05    9.54
  -3   7   1  304.40   16.32
  -3   7  -1  290.30   13.71
   3   7   1  308.15   11.76
   3   7  -1  295.60   14.99
  -7   3  -2  104.36    9.33
  -3  -7  -2  115.27   15.85
   3  -7   2   94.89    2.73
  -7  -3  -2  163.81   23.59
  -3   7   2   97.15    3.05
  -7  -3   2  116.75   19.12
  -7   3   2  109.81    6.91
  -3  -7   2   96.31    7.14
   3  -7   2   96.44    3.23
  -3   7   2   91.24    2.62
   7  -3   2   84.83    7.04
   7  -3  -2  106.17   10.47
  -7  -3  -2  102.77    5.01
   3  -7  -2  104.03   11.26
   7  -3   2  105.02    4.94
  -3  -7  -2  130.84   22.83
  -3   7   2  121.28   18.28
  -3   7  -2  118.07   21.19
   3   7   2  117.57   17.80
   3   7  -2  110.00   16.24
  -7   3  -3  929.00   25.70
  -3  -7  -3  968.27   26.60
  -7  -3  -3 1040.94   29.81
  -7  -3   3  971.06   28.29
  -3  -7   3 1029.14   27.78
  -7   3   3 1011.48   27.40
   7   3  -3 1086.01   28.54
   7  -3  -3  968.15   25.62
  -7  -3  -3 1038.22   26.51
   3  -7  -3 1026.75   28.88
  -3  -7  -3  965.83   31.17
  -3   7   3  997.50   29.81
  -3   7  -3 1070.25   34.11
   3   7   3 1058.02   29.31
   3   7  -3  964.58   28.39
  -7   3  -4 1030.57   28.36
  -3  -7  -4 1029.27   29.90
  -7  -3  -4 1020.60   30.30
  -7  -3   4 1006.06   29.18
  -3  -7   4 1022.69   28.22
  -7   3   4 1059.11   28.92
   3  -7   4 1038.17   26.27
  -3   7   4 1072.22   27.49
   7   3  -4 1045.76   29.00
   7  -3  -4 1055.27   28.12
  -7  -3  -4 1040.39   28.56
   3  -7  -4 1042.58   30.00
  -3  -7  -4 1011.54   28.97
  -3   7   4 1014.61   29.96
  -3   7  -4 1024.12   32.62
   3   7   4 1100.06   29.78
   3   7  -4 1084.90   31.86
  -7   3  -5   31.95    7.12
  -3  -7  -5   24.11    7.82
  -7  -3  -5   31.57    6.04
  -7  -3   5   45.29   11.57
  -3  -7   5   41.90    8.53
  -7   3   5   42.56   13.74
   3  -7   5   29.45    5.73
  -3   7   5   26.37    6.78
   7   3  -5   34.83    8.02
   7  -3  -5   49.74    9.59
  -7  -3  -5   36.05    9.55
   3  -7  -5   46.22   10.08
  -3  -7  -5   30.46    8.48
  -3   7   5   38.92    9.85
  -3   7  -5   30.52    8.21
   3   7   5   36.59   10.12
   3   7  -5   15.89   15.21
  -7   3  -6   50.57   12.34
  -3  -7  -6   41.19   12.54
  -7  -3  -6   33.50    8.45
  -7  -3   6   37.25    6.62
  -3  -7   6   29.01    6.33
  -7   3   6   36.44    8.74
   3  -7   6   43.57    8.91
  -3   7   6   50.23    8.70
  -7   3  -6   56.14    8.30
   7   3  -6   22.78    5.19
   7  -3  -6   60.93   11.44
  -7  -3  -6   24.89    7.42
   3  -7  -6   27.61    5.30
  -3  -7  -6   42.79   12.38
  -3   7  -6   31.73    9.00
   3   7   6   25.86    6.07
   3   7  -6   51.06    8.87
  -7   3  -7   89.99   22.53
  -3  -7  -7   91.02   16.71
  -7  -3  -7  111.48   22.25
  -7  -3   7  117.06   18.29
  -3  -7   7  125.78   22.14
  -7   3   7  106.60   12.71
   3  -7   7   89.23   15.35
  -3   7   7  100.22   19.50
   3   7  -7  106.35   23.72
  -7   3  -7  114.37   16.88
   7   3  -7  108.10   24.43
   7  -3  -7  106.27   12.71
  -7  -3  -7  111.71   14.46
   3  -7  -7  108.59   14.01
  -3  -7  -7  102.08   21.16
   3   7   7  106.56   14.15
  -3   7  -7  113.36   23.91
   3   7  -7   99.15   13.18
  -7   3  -8  621.45   25.32
  -3  -7  -8  647.66   25.02
  -7  -3  -8  565.07   28.43
  -7  -3   8  617.01   38.89
  -3  -7   8  625.40   31.40
  -7   3   8  592.51   30.87
   3  -7   8  632.62   25.67
  -3   7   8  675.49   25.84
  -3   7  -8  666.55   26.86
   3   7  -8  660.88   26.98
  -7   3  -8  622.37   24.78
   7   3  -8  638.74   24.59
   7  -3  -8  664.35   33.90
  -7  -3  -8  611.10   23.13
   3  -7  -8  635.94   30.71
  -3  -7  -8  665.00   27.71
   3   7   8  687.13   25.23
  -3   7  -8  595.51   25.15
   3   7  -8  646.58   26.87
   7   3   8  619.77   21.28
  -7   3  -9  661.68   41.73
  -3  -7  -9  611.33   28.90
  -7  -3  -9  714.49   62.24
  -7  -3   9  617.49   42.62
  -3  -7   9  631.89   30.90
  -7   3   9  658.80   34.72
   3  -7   9  630.42   28.69
  -3   7   9  643.50   29.75
  -3   7  -9  639.67   31.44
   3   7  -9  616.81   30.04
   7   3  -9  683.87   34.62
   7  -3  -9  668.02   34.45
  -7  -3  -9  679.46   31.20
   3  -7  -9  723.29   59.41
  -3  -7  -9  676.42   33.28
   3   7   9  646.62   29.09
  -3   7  -9  637.00   32.16
   7   3   9  614.37   25.63
   3   7  -9  610.71   29.42
  -7   3 -10  147.55   14.14
  -3  -7 -10  159.48   29.81
  -7  -3 -10  119.86   27.16
  -7  -3  10  136.23   21.30
  -3  -7  10  141.06   28.03
  -7   3  10  134.52   28.55
   3  -7  10  138.76   22.92
  -3   7  10  139.29   17.11
  -3   7 -10  126.40   22.00
   3   7 -10  135.43   32.13
  -7   3 -10  132.84   28.02
   7   3 -10  134.83   27.08
   7  -3 -10  139.12   22.64
  -7  -3 -10  131.80   14.66
   3  -7 -10  129.68   10.70
  -3  -7 -10  120.66   30.87
   3   7  10  123.39    8.01
   3   7 -10  142.65   24.30
  -7   3 -11  121.12   29.59
  -3  -7 -11  159.45   29.96
  -7  -3 -11  128.10   33.41
  -7  -3  11  157.51   41.43
  -3  -7  11  135.10   31.92
  -7   3  11  139.84   25.76
   3  -7  11  146.71   15.99
  -3   7  11  135.17   20.51
  -3   7 -11  143.09   23.20
   3   7 -11  148.78   25.96
  -7   3 -11  148.10   22.78
   7   3 -11  129.01   23.25
   7  -3 -11  133.29   28.24
  -7  -3 -11  126.71   16.43
   3  -7 -11  142.83   14.30
  -3  -7 -11  143.77   20.20
  -3   7 -11  124.67   23.62
   3   7 -11  168.87   33.88
  -7   3 -12   44.54   11.40
  -3  -7 -12   52.99   11.78
  -7  -3 -12   19.13    9.21
  -7  -3  12   62.35   11.82
  -3  -7  12   17.96    5.72
  -7   3  12   13.91    5.65
   3  -7  12   36.79   11.53
  -3   7  12   37.92   12.30
  -3   7 -12   31.42    7.06
   3   7 -12   63.24   16.55
  -7   3 -12   43.79    9.23
   7   3 -12   22.18   11.55
   7  -3 -12   48.51   10.72
  -7  -3 -12   20.61    9.01
   3  -7 -12   25.73    8.63
  -3  -7 -12   44.72   14.20
  -3   7 -12   20.64    5.45
   3   7 -12   42.92   12.05
  -7   3 -13  320.95   18.23
  -3  -7 -13  328.79   38.64
  -7  -3 -13  392.63   44.63
  -7  -3  13  346.31   20.50
  -3  -7  13  338.93   25.35
  -7   3  13  391.39   20.97
   3  -7  13  323.11   16.67
  -3   7  13  290.20   21.63
  -3   7 -13  348.47   19.30
   3   7 -13  319.42   59.62
  -7   3 -13  308.08   18.54
   7   3 -13  326.89   19.37
   7  -3 -13  302.94   21.26
  -7  -3 -13  349.36   17.87
   3  -7 -13  322.14   21.42
  -3  -7 -13  307.59   20.06
  -3   7 -13  333.13   22.29
   3   7 -13  308.77   35.49
  -7   3 -14   21.64    8.26
  -3  -7 -14   20.56    9.47
  -7  -3 -14   25.41   15.24
  -7  -3  14   27.38    9.55
  -3  -7  14   14.45    5.88
  -7   3  14   19.45    8.30
   3  -7  14   23.25    8.26
  -3   7  14   18.61   12.96
  -3   7 -14   19.49    8.38
   3   7 -14   12.12    7.19
  -7   3 -14   19.54    6.31
   7   3 -14   21.08    9.10
   7  -3 -14   18.55    7.55
  -7  -3 -14    6.81    5.15
   3  -7 -14   12.52    7.08
  -3  -7 -14   18.53    9.12
  -3   7 -14   14.73    6.95
   3   7 -14   17.80    8.18
  -3  -7 -15  309.58   15.66
  -7  -3 -15  340.38   34.41
  -7  -3  15  342.54   17.41
  -3  -7  15  373.03   18.86
  -7   3  15  353.14   16.96
   3  -7  15  326.86   15.15
  -3   7  15  301.15   14.29
   7  -3  15  350.13   31.28
  -3   7 -15  342.51   19.66
   3   7 -15  328.59   47.72
  -7   3 -15  310.56   17.06
   7   3 -15  371.56   44.17
   7  -3 -15  336.79   31.16
  -7  -3 -15  335.10   16.39
  -3  -7 -15  315.23   18.22
   3   7 -15  295.83   35.75
  -7  -3 -16  145.91   39.20
  -7  -3  16  150.30   35.13
  -3  -7  16  144.42   24.26
  -7   3  16  170.77   17.71
   3  -7  16  137.46   40.65
  -3   7  16  119.02   30.38
   7  -3  16  159.31   36.96
   3   7  16  145.44   28.86
  -3   7 -16  142.03   41.17
   3   7 -16  115.22   29.59
  -7   3 -16  148.78   31.65
   7   3 -16  174.84   28.83
   7  -3 -16  127.18   34.91
  -7  -3 -16  118.31   30.00
   3  -7 -16  157.69   36.70
  -3  -7 -16  115.76   35.49
   3   7 -16  131.09   36.45
  -7  -3 -17   70.87   17.36
  -7  -3  17   56.54   15.62
  -3  -7  17   88.79   14.82
  -7   3  17   55.76   24.36
   3  -7  17   77.18   25.97
  -3   7  17   83.74   32.16
   7  -3  17   73.52   19.06
   3   7  17   73.38   34.65
  -3   7 -17   61.34   21.97
   3   7 -17   98.83   26.67
  -7   3 -17   65.46   18.53
   7   3 -17   81.55   20.67
   7  -3 -17   80.34   18.48
  -7  -3 -17   54.67   13.91
   3  -7 -17   69.82   29.46
  -3  -7 -17   85.10   31.74
   3   7 -17   62.64   24.15
  -7  -3 -18   11.85    8.93
  -7  -3  18    5.27    9.39
  -3  -7  18   14.75    9.86
  -7   3  18    8.94    6.51
   3  -7  18    8.68   12.47
  -3   7  18    3.52    4.80
   7  -3  18    3.67    7.43
   3   7  18    7.96    6.72
  -3   7 -18   16.53    7.80
   3   7 -18    9.39    7.98
  -7   3 -18    7.38    5.17
   7   3 -18    6.48    4.98
   7  -3 -18    4.05    4.22
  -7  -3 -18   13.91    8.05
   3  -7 -18   15.09    8.77
  -3  -7 -18   -0.29    6.95
  -7   4   0  504.10   14.88
  -4  -7   0  512.20   16.52
  -7  -4   0  530.28   23.11
   7  -4   0  546.60   14.94
   4  -7   0  545.48   23.02
  -4   7   0  557.44   20.36
   4   7   0  577.75   18.97
  -7   4  -1  316.19   10.78
  -4  -7  -1  369.65   13.40
  -7  -4  -1  328.05   17.54
  -7   4   1  323.07   11.41
  -4  -7   1  347.11   13.69
  -7  -4   1  343.25   13.83
   7  -4  -1  334.87   11.80
   7  -4   1  307.21   10.76
   4  -7  -1  323.54   14.69
  -7  -4  -1  321.00   11.25
  -4   7   1  371.16   27.46
  -4   7  -1  347.57   23.27
   4   7   1  334.76   22.97
   4   7  -1  356.61   24.61
  -7   4  -2  250.77    9.99
  -4  -7  -2  273.52   12.45
  -7  -4  -2  279.52   19.01
  -7   4   2  271.36   12.75
  -4  -7   2  265.38   25.70
  -7  -4   2  281.89   19.92
   7  -4  -2  269.35    9.98
   4  -7  -2  235.73   15.46
  -7  -4  -2  231.09    9.10
  -4  -7  -2  259.37   15.10
   7  -4   2  237.33    7.69
  -4   7   2  267.53   20.86
  -4   7  -2  215.07   10.37
   4   7   2  237.56   18.86
   4   7  -2  265.50   12.29
  -4   7   3   44.07    5.62
  -7   4  -3   55.14   14.70
  -4  -7  -3   57.46   10.08
  -7  -4  -3   62.35   11.58
   4  -7   3   53.47    4.76
  -7  -4   3   56.18   12.95
  -4  -7   3   68.79    8.68
  -7   4   3   58.22   10.38
   4  -7   3   53.30    7.40
   7  -4  -3   64.85   12.09
  -7  -4  -3   63.51   12.81
   4  -7  -3   52.51    6.53
  -4  -7  -3   72.83   15.44
  -4   7   3   62.49   13.17
  -4   7  -3   48.34   10.75
   4   7   3   66.92   13.45
   4   7  -3   71.15   16.42
  -7   4  -4 1074.33   29.68
  -4  -7  -4 1104.37   30.98
  -7  -4  -4 1156.49   33.34
  -7  -4   4 1061.39   41.02
  -4  -7   4 1106.88   37.25
  -7   4   4 1144.39   31.24
  -4   7   4 1064.64   26.49
   4  -7   4 1090.47   27.73
   7   4  -4 1221.19   33.94
   7  -4  -4 1129.80   30.12
  -7  -4  -4 1093.77   28.96
   4  -7  -4 1151.26   33.03
  -4  -7  -4 1100.95   33.70
  -4   7  -4 1174.87   33.26
   4   7   4 1147.66   30.96
   4   7  -4 1080.86   31.62
  -7   4  -5  274.89   25.97
  -4  -7  -5  250.58   14.75
  -7  -4  -5  258.84   15.09
  -7  -4   5  270.76   15.11
  -4  -7   5  281.63   19.49
  -7   4   5  278.38   14.11
  -4   7   5  245.24   13.98
   4  -7   5  249.17   12.91
   7   4  -5  300.72   15.39
   7  -4  -5  255.49   18.62
  -7  -4  -5  286.86   13.28
   4  -7  -5  232.50   16.77
  -4  -7  -5  240.96   12.60
  -4   7  -5  271.54   16.59
   4   7   5  281.02   17.89
   4   7  -5  269.51   25.18
  -7   4  -6   33.43    6.22
  -4  -7  -6   31.08    8.73
  -7  -4  -6   21.27    7.38
  -7  -4   6   37.58   10.80
  -4  -7   6   22.51    5.92
  -7   4   6   32.57    8.08
  -4   7   6   33.20    8.17
   4  -7   6   33.09    7.60
   7   4  -6   34.34    7.15
   7  -4  -6   25.79    5.67
  -7  -4  -6   18.54    6.67
   4  -7  -6   30.64    8.24
  -4  -7  -6   33.27    7.45
  -4   7  -6   19.46    6.06
   4   7   6   26.40    6.01
   4   7  -6   35.02    7.96
  -7   4  -7   16.37    3.94
  -4  -7  -7    9.88    5.78
  -7  -4  -7   13.79    6.58
  -7  -4   7   17.93    6.37
  -4  -7   7    8.16    5.76
  -7   4   7   18.67    4.62
  -4   7   7   12.41    4.49
   4  -7   7   20.26    4.16
   4   7  -7   13.88    4.91
  -7   4  -7   11.43    4.00
   7   4  -7    7.16    2.99
   7  -4  -7   16.34    6.75
  -7  -4  -7    4.87    3.99
   4  -7  -7    5.18    4.66
  -4  -7  -7   12.03    6.00
  -4   7  -7    9.68    3.68
   4   7   7    9.78    2.24
   4   7  -7    7.65    7.11
   7   4   7   15.35    3.76
  -7   4  -8   92.81   18.54
  -4  -7  -8   68.19   19.44
  -7  -4  -8   68.46   15.51
  -7  -4   8   86.87   12.74
  -4  -7   8   71.87   18.33
  -7   4   8  100.62   23.19
  -4   7   8   76.58   13.82
   4  -7   8   71.01   14.26
  -4   7  -8   83.84   13.45
   4   7  -8   81.31   23.07
  -7   4  -8   85.94   15.45
   7   4  -8   84.19   14.84
   7  -4  -8   92.85   20.89
  -7  -4  -8   69.24   16.02
   4  -7  -8   84.73   16.30
  -4  -7  -8   71.52   14.16
  -4   7  -8   86.70   21.18
   4   7   8   77.78   14.76
   7   4   8   72.12   10.99
   4   7  -8   81.15   17.35
  -7   4  -9   31.23    8.87
  -4  -7  -9   37.06   11.65
  -7  -4  -9   32.63    8.20
  -7  -4   9   24.35    6.56
  -4  -7   9   30.34    9.41
  -7   4   9   20.48    6.27
  -4   7   9   26.18    6.08
   4  -7   9   29.09    7.45
  -4   7  -9   29.50    6.67
   4   7  -9   26.51    7.28
  -7   4  -9   26.00    7.11
   7   4  -9   21.45    6.60
   7  -4  -9   39.89   11.22
  -7  -4  -9   17.45    6.37
   4  -7  -9   23.03    7.18
  -4  -7  -9   27.08    6.50
   4   7   9   18.85    4.49
  -4   7  -9   20.06    5.93
   7   4   9   20.96    4.49
   4   7  -9   44.99   14.80
  -7   4 -10    7.53    4.81
  -4  -7 -10    6.29    6.18
  -7  -4 -10   45.63    9.45
  -7  -4  10   14.57    7.14
  -4  -7  10    8.75    8.94
  -7   4  10    6.11    4.47
  -4   7  10    5.71    5.57
   4  -7  10    4.26    4.86
  -4   7 -10   10.31    6.43
   4   7 -10    8.87    7.10
  -7   4 -10    3.71    2.57
   7   4 -10   14.85    4.51
   7  -4 -10    6.14    5.35
  -7  -4 -10   13.00    5.17
   4  -7 -10    5.08    5.75
  -4  -7 -10    4.89    3.95
   4   7  10    1.40    1.97
  -4   7 -10   12.46    6.79
   4   7 -10   10.82    3.85
  -7   4 -11  241.04   15.77
  -4  -7 -11  241.21   34.43
  -7  -4 -11  290.12   41.99
  -7  -4  11  212.60   39.76
  -4  -7  11  253.68   15.91
  -7   4  11  304.68   16.11
  -4   7  11  215.53   24.16
   4  -7  11  204.19   12.79
  -4   7 -11  261.19   15.12
   4   7 -11  214.72   31.34
  -7   4 -11  215.13   12.35
   7   4 -11  264.72   44.23
   7  -4 -11  220.04   17.04
  -7  -4 -11  236.68   28.59
   4  -7 -11  259.46   36.10
  -4  -7 -11  229.62   15.14
  -4   7 -11  237.93   21.37
   4   7 -11  235.81   35.84
  -7   4 -12  125.37   28.15
  -4  -7 -12  117.06   23.27
  -7  -4 -12   97.75   20.63
  -7  -4  12   95.60   22.34
  -4  -7  12   98.27   22.21
  -7   4  12   92.68   22.20
  -4   7  12  110.81   23.55
   4  -7  12  106.58   14.77
  -4   7 -12  125.11   27.21
   4   7 -12   84.17   24.77
  -7   4 -12  109.03   20.36
   7   4 -12   98.08   19.89
   7  -4 -12  104.78   22.67
  -7  -4 -12  101.12   22.03
   4  -7 -12  126.61   24.10
  -4  -7 -12  102.57   21.61
  -4   7 -12  102.10   21.22
   4   7 -12  110.02   19.29
  -7   4 -13  115.81   24.84
  -4  -7 -13  163.30   34.63
  -7  -4 -13  145.05   30.40
  -7  -4  13  124.16   19.90
  -4  -7  13  125.22   24.24
  -7   4  13  134.29   28.62
  -4   7  13  136.99   36.15
   4  -7  13  121.73   33.21
  -4   7 -13  161.73   30.54
   4   7 -13  149.89   29.32
  -7   4 -13  138.26   21.42
   7   4 -13  165.80   38.10
   7  -4 -13  125.75   30.90
  -7  -4 -13  135.04   22.65
   4  -7 -13  159.14   25.70
  -4  -7 -13  102.08   27.07
  -4   7 -13  128.88   25.06
   4   7 -13  153.67   36.95
  -4  -7 -14  241.60   34.68
  -7  -4 -14  229.70   43.21
  -7  -4  14  230.72   45.83
  -4  -7  14  193.27   43.66
  -7   4  14  213.33   25.90
  -4   7  14  234.94   15.28
   4  -7  14  200.47   23.46
   7  -4  14  188.00   44.01
  -4   7 -14  206.58   38.96
   4   7 -14  218.54   50.03
  -7   4 -14  238.21   27.42
   7   4 -14  213.19   47.78
   7  -4 -14  225.06   31.77
  -7  -4 -14  212.49   24.91
   4  -7 -14  214.82   21.86
  -4  -7 -14  194.65   38.58
  -4   7 -14  210.04   27.99
   4   7 -14  237.28   34.12
  -4  -7 -15   26.33    9.98
  -7  -4 -15   25.64   12.93
  -7  -4  15   16.52    8.08
  -4  -7  15   25.98    9.54
  -7   4  15   22.51    8.39
  -4   7  15   21.23   11.35
   4  -7  15   12.68    5.95
   7  -4  15   24.83    9.77
  -4   7 -15   15.01    9.09
   4   7 -15   26.69    8.61
  -7   4 -15   19.19    7.77
   7   4 -15   22.46    8.35
   7  -4 -15   11.71    7.38
  -7  -4 -15   14.05    5.60
   4  -7 -15   27.04    8.77
  -4  -7 -15   24.59   11.83
   4   7 -15   28.23   11.80
  -4  -7 -16  625.55   38.33
  -7  -4 -16  576.17   47.05
  -7  -4  16  625.15   34.69
  -4  -7  16  608.67   43.91
  -7   4  16  578.38   35.42
  -4   7  16  626.96   33.98
   4  -7  16  557.15   37.18
   7  -4  16  521.02   40.48
  -4   7 -16  606.11   33.88
   4   7 -16  561.55   31.78
  -7   4 -16  604.54   38.06
   7   4 -16  575.72   54.09
   7  -4 -16  594.69   35.85
  -7  -4 -16  595.41   32.72
   4  -7 -16  546.48   31.97
  -4  -7 -16  618.55   34.67
   4   7 -16  612.60   36.20
  -7  -4 -17  112.44   25.76
  -7  -4  17   71.78   36.26
  -4  -7  17   92.74   27.66
  -7   4  17   70.16   23.98
  -4   7  17   79.25   22.96
   4  -7  17   73.28   20.38
   7  -4  17   95.24   22.04
  -4   7 -17   82.92   23.34
   4   7 -17  103.07   26.78
  -7   4 -17   92.24   23.40
   7   4 -17  102.71   23.08
   7  -4 -17   88.72   24.66
  -7  -4 -17   65.52   25.11
   4  -7 -17   63.77   28.02
  -4  -7 -17   67.07   28.77
   4   7 -17   63.49   22.95
  -7  -4 -18   13.74   12.72
  -7  -4  18   35.12   13.01
  -4  -7  18   13.97    7.73
  -7   4  18   15.36    8.39
  -4   7  18   19.76   10.56
   4  -7  18   13.45    8.99
   7  -4  18   15.92   10.18
   4   7  18   15.61    9.81
  -4   7 -18   11.87    6.80
   4   7 -18   11.27    5.03
  -7   4 -18   18.02   10.09
   7   4 -18   10.11   10.98
   7  -4 -18    6.70   10.66
  -7  -4 -18    9.30    7.86
   4  -7 -18   15.93    8.36
  -4  -7 -18    9.50    7.98
   4   7 -18   21.87    9.32
  -7   5   0  151.39   11.24
  -5  -7   0  173.51    9.49
  -7  -5   0  202.26   31.10
   7  -5   0  152.11   11.00
   5  -7   0  166.02   12.47
  -5   7   0  146.82   13.83
   5   7   0  179.81   16.43
  -7   5  -1  441.74   14.64
  -5  -7  -1  441.71   16.92
  -7  -5  -1  437.50   16.46
  -7   5   1  440.31   13.02
  -5  -7   1  409.05   18.49
  -7  -5   1  426.16   17.63
   7  -5  -1  441.62   15.53
   5  -7  -1  433.60   14.91
   7  -5   1  440.95   14.50
  -7  -5  -1  410.70   13.84
  -5   7   1  401.64   21.81
  -5   7  -1  425.38   17.21
   5   7   1  433.17   15.65
   5   7  -1  438.48   16.34
  -5   7   2   54.70    5.78
  -7   5  -2   75.89    6.64
  -5  -7  -2   89.39   22.41
  -7  -5  -2  104.88   23.62
  -5   7   2   66.69    3.30
  -7   5   2   80.85    5.81
  -5  -7   2  103.69   27.19
  -7  -5   2   70.98   16.64
   5  -7   2   57.92    2.95
   7  -5  -2   80.18   15.21
   5  -7  -2   80.75    6.10
  -7  -5  -2   83.19   16.19
  -5  -7  -2   87.97   16.53
   7  -5   2   83.79    7.50
  -5   7  -2   85.07   20.15
   5   7   2  101.47   18.53
   5   7  -2   89.25   22.04
  -7   5  -3  649.13   24.47
  -5  -7  -3  693.55   28.37
  -7  -5  -3  669.80   28.23
  -7  -5   3  712.98   29.50
  -5  -7   3  701.26   28.21
  -7   5   3  676.22   25.38
   5  -7   3  688.56   24.45
   7  -5  -3  695.95   26.74
   5  -7  -3  700.30   31.44
  -7  -5  -3  637.40   24.85
  -5  -7  -3  710.85   28.62
  -5   7  -3  652.33   30.64
   5   7   3  659.72   26.40
   5   7  -3  753.24   30.98
  -7   5  -4  621.30   28.53
  -5  -7  -4  678.51   28.49
  -7  -5  -4  653.79   27.31
  -7  -5   4  654.69   29.57
  -5  -7   4  672.92   29.69
  -7   5   4  665.04   29.92
  -5   7   4  644.08   25.12
   5  -7   4  677.34   25.09
   7  -5  -4  668.74   26.25
   5  -7  -4  713.87   28.20
  -7  -5  -4  720.01   27.72
  -5  -7  -4  608.59   30.91
  -5   7  -4  676.92   37.01
   5   7   4  666.56   26.19
   5   7  -4  653.56   27.71
  -7   5  -5  249.36   18.66
  -5  -7  -5  251.80   15.47
  -7  -5  -5  256.59   37.98
  -7  -5   5  267.98   36.17
  -5  -7   5  271.78   38.87
  -7   5   5  232.96   12.65
  -5   7   5  246.45   12.76
   5  -7   5  246.75   12.30
   7   5  -5  250.12   13.69
   7  -5  -5  243.86   18.83
   5  -7  -5  267.59   28.08
  -7  -5  -5  254.02   23.24
  -5  -7  -5  251.10   13.30
  -5   7  -5  246.52   21.36
   5   7   5  227.86   13.48
   5   7  -5  244.18   25.09
   7   5   5  254.02   16.67
  -7   5  -6   84.57   11.71
  -5  -7  -6   77.53   19.19
  -7  -5  -6   61.52   14.06
  -7  -5   6   86.64   15.04
  -5  -7   6   95.69   21.36
  -7   5   6   84.14   17.10
  -5   7   6   97.81   16.90
   5  -7   6   81.46   10.00
   7   5  -6   77.05   18.09
   7  -5  -6   92.63   18.84
   5  -7  -6   72.00   16.25
  -7  -5  -6   53.22   17.79
  -5  -7  -6   79.39   13.70
  -5   7  -6   58.41   16.02
   5   7   6   70.20   16.93
   7   5   6   90.98   11.24
   5   7  -6  111.40   19.84
  -7   5  -7  578.56   22.74
  -5  -7  -7  584.53   24.92
  -7  -5  -7  529.76   30.51
  -7  -5   7  565.57   24.04
  -5  -7   7  563.99   23.64
  -7   5   7  570.78   28.65
  -5   7   7  610.36   30.25
   5  -7   7  598.23   24.85
   5   7  -7  617.28   24.94
   7   5  -7  554.58   22.48
   7  -5  -7  569.63   24.02
  -7  -5  -7  574.32   22.53
   5  -7  -7  585.85   30.01
  -5  -7  -7  619.35   27.03
  -5   7  -7  577.02   34.06
   5   7   7  552.87   20.35
   7   5   7  585.30   21.42
   5   7  -7  571.39   24.80
  -7   5  -8  290.23   20.69
  -5  -7  -8  277.32   18.13
  -7  -5  -8  266.95   48.18
  -7  -5   8  289.10   17.68
  -5  -7   8  242.20   22.39
  -7   5   8  254.29   21.11
  -5   7   8  276.75   19.87
   5  -7   8  271.40   18.34
   5   7  -8  279.01   19.05
   7   5  -8  247.75   16.55
   7  -5  -8  297.83   22.24
  -7  -5  -8  233.19   13.57
   5  -7  -8  269.93   27.37
  -5  -7  -8  241.89   35.57
  -5   7  -8  245.53   24.09
   5   7   8  248.83   12.89
   7   5   8  250.35   16.32
   5   7  -8  257.45   32.37
  -7   5  -9  478.35   26.94
  -5  -7  -9  497.40   23.09
  -7  -5  -9  582.96   25.91
  -7  -5   9  498.14   22.78
  -5  -7   9  593.14   28.07
  -5   7   9  500.45   28.33
   5  -7   9  471.91   20.31
  -5   7  -9  519.69   21.06
   5   7  -9  494.63   21.59
  -7   5  -9  486.74   25.06
   7   5  -9  564.00   22.72
   7  -5  -9  509.05   34.79
  -7  -5  -9  593.72   43.48
   5  -7  -9  562.56   30.32
  -5  -7  -9  548.90   23.27
  -5   7  -9  578.47   31.71
   5   7   9  581.25   21.29
   7   5   9  493.07   17.19
   5   7  -9  505.33   22.98
  -7   5 -10  119.60   16.66
  -5  -7 -10  138.45   38.86
  -7  -5 -10  106.86   20.90
  -7  -5  10  157.26   35.45
  -5  -7  10  130.69   22.93
  -7   5  10  128.62   28.67
  -5   7  10  130.35   25.05
   5  -7  10  137.07   28.25
  -5   7 -10  122.61   26.52
   5   7 -10  145.56   33.89
  -7   5 -10  142.37   21.04
   7   5 -10  133.52   25.97
   7  -5 -10  146.68   15.10
  -7  -5 -10   86.07   16.60
   5  -7 -10  107.36   31.33
  -5  -7 -10  118.79   28.32
  -5   7 -10  114.66   19.93
   5   7  10   96.41    9.47
   5   7 -10  131.11   28.21
  -7   5 -11  168.63   24.90
  -5  -7 -11  154.55   20.17
  -7  -5 -11  120.26   31.00
  -7  -5  11  162.82   24.00
  -5  -7  11  147.40   37.93
  -7   5  11  147.66   13.00
  -5   7  11  134.25   27.48
  -5   7 -11  163.85   31.76
   5   7 -11  169.86   38.49
  -7   5 -11  127.72   24.95
   7   5 -11  153.34   31.68
   7  -5 -11  169.40   17.17
  -7  -5 -11  161.71   21.20
   5  -7 -11  171.02   23.06
  -5  -7 -11  150.07   10.85
  -5   7 -11  149.31   29.42
   5   7 -11  132.77   18.76
  -5  -7 -12   42.14   14.30
  -7  -5 -12   18.97    5.70
  -7  -5  12   34.37   10.93
  -5  -7  12   38.01   14.41
  -7   5  12   41.16   11.99
  -5   7  12   37.78   10.78
   5  -7  12   29.32   13.93
  -5   7 -12   34.89    9.40
   5   7 -12   34.55   10.26
  -7   5 -12   36.20    9.30
   7   5 -12   37.68   11.39
   7  -5 -12   39.36   10.13
  -7  -5 -12   21.84    7.26
   5  -7 -12   52.34   16.76
  -5  -7 -12   35.36    8.24
  -5   7 -12   28.68    6.67
   5   7 -12   42.04   13.72
  -5  -7 -13  390.05   22.35
  -7  -5 -13  385.20   51.35
  -7  -5  13  376.67   49.56
  -5  -7  13  322.05   55.91
  -7   5  13  368.02   19.17
  -5   7  13  373.55   22.37
   5  -7  13  395.51   18.20
   7  -5  13  346.32   24.34
  -5   7 -13  344.74   28.93
   5   7 -13  374.39   18.52
  -7   5 -13  363.79   23.03
   7   5 -13  377.60   21.95
   7  -5 -13  378.64   31.61
  -7  -5 -13  394.90   18.08
   5  -7 -13  366.71   30.37
  -5  -7 -13  387.69   25.12
  -5   7 -13  376.58   15.29
   5   7 -13  378.35   39.13
  -5  -7 -14   14.05    7.51
  -7  -5 -14   12.67    8.88
  -5  -7  14   25.82   10.31
  -7   5  14   10.93    6.82
  -5   7  14   11.48    7.31
   5  -7  14   14.63    6.00
   7  -5  14   15.74    7.11
  -5   7 -14   10.97    3.81
   5   7 -14   20.58   10.36
  -7   5 -14    9.44    4.56
   7   5 -14   16.67   10.50
   7  -5 -14    9.55    8.55
  -7  -5 -14   13.53    7.19
   5  -7 -14   16.39    7.92
  -5  -7 -14   20.51    9.93
   5   7 -14   14.58    7.08
  -5  -7 -15   10.09    6.85
  -7  -5 -15   34.02   23.86
  -7  -5  15   33.80    7.42
  -5  -7  15   26.25    8.34
  -7   5  15   22.03    8.48
  -5   7  15   24.41    7.82
   5  -7  15   13.79    7.96
   7  -5  15   29.46   15.25
  -5   7 -15   32.19    9.28
   5   7 -15   17.94    8.88
  -7   5 -15   28.09    9.07
   7   5 -15   36.30    9.48
   7  -5 -15   31.82   13.17
  -7  -5 -15   26.19    7.94
   5  -7 -15   38.18   12.90
  -5  -7 -15   32.13    7.67
   5   7 -15   25.66    8.67
  -5  -7 -16   72.93   28.13
  -7  -5 -16   87.49   20.40
  -7  -5  16   67.27   23.25
  -5  -7  16   66.93   29.39
  -7   5  16   81.28   25.39
  -5   7  16   61.37   30.47
   5  -7  16   88.07   16.66
   7  -5  16   66.77   34.59
  -5   7 -16   75.90   28.13
   5   7 -16   99.36   21.58
  -7   5 -16   84.90   25.74
   7   5 -16   90.87   24.69
   7  -5 -16   62.88   27.01
  -7  -5 -16   58.97   22.52
   5  -7 -16  101.10   32.13
  -5  -7 -16   61.77   29.65
   5   7 -16   73.86   26.53
  -5  -7 -17   13.64    7.84
  -7  -5 -17   13.91    7.74
  -7  -5  17    8.24    5.00
  -5  -7  17    1.74    8.07
  -7   5  17    5.48    6.94
  -5   7  17   -1.52    5.99
   5  -7  17    1.47    7.56
   7  -5  17   11.07    9.32
  -5   7 -17    6.28    7.11
   5   7 -17   -5.81    6.62
  -7   5 -17    5.99    4.00
   7   5 -17    9.89    5.39
   7  -5 -17   18.95    8.80
  -7  -5 -17    9.51    9.15
   5  -7 -17    8.45    5.23
  -5  -7 -17    6.25    5.89
   5   7 -17    2.08    4.01
  -7  -5 -18   42.78   19.27
  -7  -5  18   40.75   16.28
  -5  -7  18   33.45   12.04
  -7   5  18   38.05   16.60
  -5   7  18   39.74   14.80
   5  -7  18   28.43   15.05
   7  -5  18   28.52   18.63
  -5   7 -18   26.06   11.28
   5   7 -18   49.08   11.91
  -7   5 -18   42.99   13.69
   7   5 -18   31.67   14.70
   7  -5 -18   25.47   19.90
  -7  -5 -18   19.04    9.60
   5  -7 -18   38.88   15.78
  -5  -7 -18   22.41   17.51
   5   7 -18   28.58   11.63
   7   5 -18   22.06   13.50
  -7   6   0   12.88    2.73
  -6  -7   0    8.66    5.10
  -7  -6   0   15.24    5.62
   6  -7   0    3.29    0.92
   7  -6   0    8.48    3.01
   6  -7   0    7.36    5.08
   6   7   0    3.00    2.48
  -7   6  -1  569.52   21.64
  -7   6   1  515.85   19.78
  -6  -7  -1  551.87   23.82
  -7  -6  -1  535.94   22.99
  -6  -7   1  517.32   27.17
  -7  -6   1  582.40   26.51
   6  -7   1  455.08   16.06
   6  -7  -1  472.73   16.78
   6  -7  -1  513.87   21.12
   7  -6   1  521.14   20.46
   6  -7   1  535.67   21.68
  -7  -6  -1  513.93   22.04
  -6   7  -1  521.07   24.05
   6   7   1  520.56   32.99
   6   7  -1  583.25   35.64
  -7   6  -2   90.24   10.75
  -6  -7  -2   88.78   21.44
  -7  -6  -2   77.66    8.61
  -6   7   2   77.38    5.28
  -7   6   2   90.83    7.80
  -6  -7   2  103.81   25.00
  -7  -6   2   86.61   19.13
   6  -7   2   74.02    6.68
   6  -7  -2   61.91    8.24
   7  -6  -2   90.20   10.60
   6  -7  -2  113.35   18.79
  -7  -6  -2   81.74   15.43
  -6  -7  -2  102.43   18.88
   7  -6   2   92.19   11.25
  -6   7  -2  132.47   28.37
   6   7   2   99.99   16.59
   6   7  -2   98.42   13.34
  -7   6  -3   98.81   11.96
  -6  -7  -3   98.54   18.98
  -7  -6  -3   99.46   23.26
  -7  -6   3  102.69   17.64
  -6  -7   3   90.04   12.18
  -7   6   3   87.16   10.82
   7  -6  -3  102.04   12.33
   6  -7  -3   82.82   11.04
  -7  -6  -3   93.84   12.32
  -6  -7  -3   94.56   21.30
  -6   7  -3   84.91   11.62
   6   7   3   86.23    9.66
   7   6   3   89.67   13.18
   6   7  -3   82.22   15.91
  -6   7  -4    3.25    2.05
  -7   6  -4    5.61    1.36
  -6  -7  -4    4.83    2.87
  -7  -6  -4    4.52    3.07
  -7  -6   4    7.83    5.95
  -6  -7   4    6.01    5.69
  -7   6   4    2.64    2.58
  -6   7   4    5.69    2.55
   7  -6  -4    8.69    8.58
   6  -7  -4    4.85    3.74
  -7  -6  -4    2.99    2.82
  -6  -7  -4    0.54    5.17
  -6   7  -4   -1.07    4.58
   6   7   4    0.97    2.31
   7   6   4    2.33    2.94
  -7   6  -5  140.66    9.83
  -6  -7  -5  146.30   10.45
  -7  -6  -5  223.10   31.46
  -7  -6   5  168.42   30.56
  -6  -7   5  195.25   28.95
  -7   6   5  201.15   10.62
  -6   7   5  142.16   10.34
   7  -6  -5  131.96   18.21
   6  -7  -5  194.05   19.93
  -7  -6  -5  208.22   26.20
  -6  -7  -5  168.50   11.78
  -6   7  -5  174.79   17.75
   6   7   5  189.49   20.31
   7   6   5  148.62   15.63
  -7   6  -6  577.83   35.25
  -6  -7  -6  619.47   32.12
  -7  -6  -6  588.52   29.85
  -7  -6   6  622.46   30.59
  -6  -7   6  636.99   30.72
  -7   6   6  571.29   32.76
  -6   7   6  587.75   28.52
   6  -7   6  621.68   27.92
   7  -6  -6  601.88   28.00
   6  -7  -6  592.08   31.05
  -7  -6  -6  543.13   25.65
  -6  -7  -6  577.38   33.30
  -6   7  -6  551.05   32.67
   6   7   6  566.09   25.80
   7   6   6  664.58   29.85
  -7   6  -7   99.31   13.41
  -6  -7  -7   80.03   20.13
  -7  -6  -7   68.97   19.24
  -7  -6   7   86.45   15.79
  -6  -7   7   66.95   19.62
  -7   6   7   90.58   20.15
  -6   7   7   95.38   16.89
   6  -7   7   81.42   18.23
   6   7  -7   76.06   24.46
   7   6  -7   67.38   14.00
   7  -6  -7   83.13   17.51
   6  -7  -7   66.42   17.76
  -7  -6  -7   64.75   17.82
  -6  -7  -7   65.55   15.72
  -6   7  -7   73.99   17.39
   6   7   7   63.77   15.67
   7   6   7   80.41   15.62
  -7   6  -8   26.41    5.37
  -6  -7  -8   43.59    8.41
  -7  -6  -8   12.28    6.33
  -7  -6   8   31.68    7.95
  -6  -7   8   32.27   10.74
  -7   6   8   41.85    9.18
  -6   7   8   39.70    9.56
   6  -7   8   39.28    8.85
   6   7  -8   42.70   10.05
   7   6  -8   48.19    9.14
   7  -6  -8   32.13    5.74
   6  -7  -8   52.87   11.39
  -7  -6  -8   34.45    9.54
  -6  -7  -8   38.26   13.64
  -6   7  -8   33.48    8.72
   6   7   8   26.56    8.95
   7   6   8   29.91   10.51
  -7   6  -9  148.23   18.48
  -6  -7  -9  132.80   33.14
  -7  -6  -9  151.16   35.40
  -7  -6   9  132.56   19.88
  -6  -7   9  128.00   35.47
  -7   6   9  138.01   12.96
  -6   7   9  143.90   11.36
   6  -7   9  127.77   12.30
  -7   6  -9  140.19   22.97
   6   7  -9  144.41   26.57
   7   6  -9  149.49   28.56
   7  -6  -9  152.94   19.77
   6  -7  -9  124.68   14.34
  -7  -6  -9  165.36   18.08
  -6  -7  -9  130.64   11.40
  -6   7  -9  148.51   26.52
   6   7   9  127.53    9.64
   7   6   9  124.81   14.22
  -6  -7 -10  395.86   17.50
  -7  -6 -10  404.75   19.48
  -7  -6  10  389.78   21.87
  -6  -7  10  365.62   21.33
  -7   6  10  354.23   17.20
  -6   7  10  398.97   22.70
   6  -7  10  385.90   16.46
  -6   7 -10  412.24   20.44
  -7   6 -10  396.54   18.30
   6   7 -10  415.64   16.59
   7   6 -10  378.61   17.67
   7  -6 -10  373.86   37.59
   6  -7 -10  395.23   26.93
  -7  -6 -10  382.79   14.91
  -6  -7 -10  367.26   24.40
  -6   7 -10  367.06   24.91
   6   7 -10  392.43   37.55
  -6  -7 -11   98.59   19.88
  -7  -6 -11  135.37   36.07
  -7  -6  11  115.32   27.97
  -6  -7  11  117.20   24.96
  -7   6  11  153.70   25.11
  -6   7  11  109.82   29.58
   6  -7  11  106.91   16.07
   7  -6  11  122.85   19.10
  -6   7 -11  137.32   27.52
  -7   6 -11  131.40   27.23
   6   7 -11  130.01   37.08
   7   6 -11  138.56   28.53
   7  -6 -11  152.22   38.00
   6  -7 -11  127.86   29.50
  -7  -6 -11   95.57   22.21
  -6  -7 -11   93.15   32.74
  -6   7 -11  119.19   25.63
   6   7 -11  115.29   30.53
  -6  -7 -12   28.83   12.14
  -7  -6 -12   46.09   14.12
  -7  -6  12   38.70   11.24
  -6  -7  12   37.31   11.71
  -7   6  12   40.71   10.11
  -6   7  12   48.61   11.98
   6  -7  12   36.06   12.92
   7  -6  12   40.28    7.22
  -6   7 -12   44.19   11.15
  -7   6 -12   47.50   13.54
   6   7 -12   42.13   15.72
   7   6 -12   39.90   12.40
   7  -6 -12   36.86   10.79
   6  -7 -12   62.62   16.88
  -7  -6 -12   42.80   14.71
  -6  -7 -12   35.03    9.82
   6   7 -12   35.73   13.44
  -6  -7 -13   22.01    7.08
  -7  -6 -13   10.66    5.73
  -7  -6  13    5.97    9.72
  -6  -7  13   17.93   13.85
  -7   6  13   23.76    6.59
  -6   7  13    9.42    4.25
   6  -7  13   10.20    4.13
   7  -6  13   14.86    4.79
  -6   7 -13   17.66    4.43
  -7   6 -13   11.97    6.00
   6   7 -13   13.86    9.01
   7   6 -13   24.65   10.05
   7  -6 -13   10.11    4.93
   6  -7 -13    7.21    5.57
  -7  -6 -13   23.18    8.17
  -6  -7 -13   12.41    7.08
  -6   7 -13    8.76    7.30
   6   7 -13   25.79   11.80
  -6  -7 -14  155.80   30.33
  -7  -6 -14  138.94   31.64
  -7  -6  14  134.90   39.13
  -6  -7  14  116.72   39.03
  -6   7  14  138.95   40.50
   6  -7  14  127.26   28.58
   7  -6  14  128.00   19.33
  -6   7 -14  131.22   21.20
  -7   6 -14  148.63   31.75
   6   7 -14  154.14   36.20
   7   6 -14  142.65   34.02
   7  -6 -14  119.55   28.75
   6  -7 -14  156.63   26.90
  -7  -6 -14  142.30   35.76
  -6  -7 -14  165.27   13.96
   6   7 -14  160.99   36.97
  -6  -7 -15   89.57   18.12
  -7  -6 -15  127.06   24.24
  -7  -6  15   81.05   31.67
  -6  -7  15  107.93   25.55
  -7   6  15  116.70   30.27
  -6   7  15   81.40   17.65
   6  -7  15   77.23   31.06
   7  -6  15   77.24   34.38
  -6   7 -15   94.45   19.41
  -7   6 -15   88.11   22.38
   6   7 -15   73.39   29.17
   7   6 -15  110.23   30.99
   7  -6 -15   94.37   31.65
   6  -7 -15   67.01   34.87
  -7  -6 -15   86.80   33.17
  -6  -7 -15   81.95   29.90
   6   7 -15   72.28   26.31
  -6  -7 -16   16.80    6.15
  -7  -6 -16   16.05    8.45
  -7  -6  16    9.39    7.07
  -6  -7  16    4.58    5.22
  -7   6  16    5.02    3.48
  -6   7  16   10.42    6.54
   6  -7  16    0.56    4.97
   7  -6  16   14.04   10.25
  -6   7 -16   13.57    5.20
  -7   6 -16    7.42    6.61
   6   7 -16    9.21    7.60
   7   6 -16   14.19    7.30
   7  -6 -16    6.98    6.85
   6  -7 -16    6.41    9.14
  -7  -6 -16   15.06    6.03
  -6  -7 -16    5.39    6.23
   6   7 -16    6.07    5.02
   7   6 -16    7.49    6.52
  -6  -7 -17   48.68   11.50
  -7  -6 -17   42.47   16.53
  -7  -6  17   37.76   14.21
  -6  -7  17   57.97   15.68
  -7   6  17   34.39   17.46
   6  -7  17   41.44   23.16
   7  -6  17   46.29   16.93
  -6   7 -17   49.33   13.78
  -7   6 -17   35.41   16.57
   6   7 -17   52.77   25.97
   7   6 -17   63.43   19.41
   7  -6 -17   40.84   20.75
   6  -7 -17   36.16   17.02
  -7  -6 -17   25.56   11.05
  -6  -7 -17   40.66   18.67
   6   7 -17   47.25   21.31
  -7  -7   0    5.82    3.63
   7  -7   0    1.72    4.20
   7   7   0    5.40    4.35
  -7  -7  -1  207.65   14.60
  -7  -7   1  207.44   22.68
   7  -7  -1  208.06   14.36
   7  -7   1  211.96   20.81
  -7  -7  -1  203.12   15.22
   7   7   1  190.56   17.40
  -7  -7  -2 1413.98   49.23
  -7  -7   2 1379.82   48.28
   7  -7  -2 1510.35   50.67
  -7  -7  -2 1448.79   48.70
   7  -7   2 1492.24   49.47
   7   7   2 1569.43   53.58
  -7   7  -3  657.46   22.22
  -7  -7  -3  668.58   28.26
  -7   7   3  665.75   22.69
  -7  -7   3  746.38   29.47
   7  -7  -3  676.08   25.35
  -7  -7  -3  635.90   24.26
   7   7   3  682.99   26.51
  -7   7  -4  115.42   11.13
  -7  -7  -4  133.38   20.93
  -7  -7   4  114.97   17.55
  -7   7   4  116.59    8.98
   7  -7  -4  114.90   14.05
  -7  -7  -4  112.75   27.30
   7   7   4  129.62   20.60
  -7   7  -5    5.08    2.66
  -7  -7  -5    6.15    3.66
  -7  -7   5   13.87    8.89
  -7   7   5    1.79    2.24
   7  -7  -5   -0.56    4.20
  -7  -7  -5    7.43    4.53
  -7   7  -5    3.93    4.71
   7   7   5    4.81    2.82
  -7   7  -6   -0.26    2.26
  -7  -7  -6    8.92    4.12
  -7  -7   6    5.70    7.95
  -7   7   6    2.06    2.62
   7  -7  -6    3.61    3.02
  -7  -7  -6    4.15    5.01
  -7   7  -6    5.60    4.47
   7   7   6    2.19    2.24
  -7   7  -7   54.49   10.61
  -7  -7  -7   44.25   16.92
  -7  -7   7   49.61   11.77
  -7   7   7   57.82   10.80
   7  -7  -7   53.08   14.24
  -7  -7  -7   54.91   13.99
  -7   7  -7   58.67   20.30
   7   7   7   45.96   12.43
  -7  -7  -8    4.89    5.37
  -7  -7   8   14.44    6.66
  -7   7   8    6.81    3.92
   7  -7   8    1.80    2.89
   7   7  -8    7.38    3.49
   7  -7  -8    3.10    5.84
  -7  -7  -8   10.46    3.67
  -7   7  -8    6.57    5.68
   7   7   8    3.60    3.55
  -7  -7  -9  148.50   40.59
  -7  -7   9  146.56   19.67
  -7   7   9  188.00   21.02
   7  -7   9  152.70   27.49
   7   7  -9  151.65   38.52
   7  -7  -9  180.46   36.64
  -7  -7  -9  139.91   27.31
  -7   7  -9  151.56   11.20
   7   7   9  166.96   14.88
  -7  -7 -10  303.15   47.64
  -7  -7  10  309.22   55.54
  -7   7  10  316.89   19.73
   7   7 -10  302.02   17.83
   7  -7 -10  329.95   27.92
  -7  -7 -10  364.54   42.53
  -7   7 -10  299.42   19.31
  -7  -7 -11   72.68   17.88
  -7  -7  11   70.28   13.40
  -7   7  11   72.88   16.01
   7  -7  11   68.67   14.28
  -7   7 -11   66.19   17.38
   7   7 -11   66.61   22.96
   7  -7 -11   64.78   19.49
  -7  -7 -11   63.28   19.95
  -7   7 -11   54.58   14.77
  -7  -7 -12   16.84    8.04
  -7  -7  12   11.92    6.38
  -7   7  12   -0.30    4.73
   7  -7  12   10.99    6.65
  -7   7 -12   13.04    6.12
   7   7 -12    3.95    4.80
   7  -7 -12   10.50    7.56
  -7  -7 -12    9.56    4.70
  -7   7 -12   10.53    5.70
  -7  -7 -13  273.72   42.20
  -7  -7  13  249.04   41.36
  -7   7  13  309.81   17.84
   7  -7  13  264.06   14.59
  -7   7 -13  286.99   12.14
   7   7 -13  287.28   46.38
   7  -7 -13  272.51   48.25
  -7  -7 -13  261.25   15.65
   7   7 -13  263.53   52.87
  -7  -7 -14  576.45   34.47
  -7  -7  14  560.80   32.39
  -7   7  14  603.97   36.37
   7  -7  14  492.22   42.47
  -7   7 -14  514.52   31.48
   7   7 -14  549.59   31.55
   7  -7 -14  534.51   39.52
  -7  -7 -14  547.03   30.87
   7   7 -14  537.13   59.89
  -7  -7 -15   37.41   12.62
  -7  -7  15   55.45   18.04
  -7   7  15   47.74   18.11
   7  -7  15   39.96   19.29
  -7   7 -15   42.07   17.54
   7   7 -15   40.39   13.45
   7  -7 -15   50.74   21.48
  -7  -7 -15   37.28   18.97
   7   7 -15   36.95   16.03
  -7  -7 -16    8.84    4.93
  -7  -7  16   17.52    8.28
  -7   7  16   10.85    8.55
   7  -7  16    6.34    4.18
  -7   7 -16    9.82    5.18
   7   7 -16   -2.11    6.32
   7  -7 -16    4.38    5.27
  -7  -7 -16    7.81    7.10
   7   7 -16   14.76    9.36
  -7  -7 -17    1.32    8.12
  -7  -7  17    3.62    5.63
  -7   7  17    5.39    5.49
  -7   7 -17    3.39    4.65
   7   7 -17    5.47    3.17
   7  -7 -17    4.68    8.43
  -7  -7 -17    7.47    4.10
   7   7 -17    4.49    3.72
   0  -8   0 1538.01   37.26
  -8   0   0 1546.38   43.01
   0   8   0 1579.15   43.98
   0  -8  -1   74.60    7.80
  -8   0  -1   89.83    7.89
   0  -8   1   68.09    7.99
  -8   0   1  104.96   16.99
  -8   0   1   75.93    5.89
   0  -8  -1   77.29   11.73
   0   8   1   72.69   11.44
   0   8  -1   66.05   19.10
   0  -8  -2  891.58   23.00
  -8   0  -2  865.04   32.37
   0  -8   2  835.41   21.58
  -8   0   2  841.53   25.06
   8   0  -2  850.64   22.98
   0  -8  -2  830.81   25.14
   0   8   2  816.10   27.57
   0   8  -2  825.92   31.33
   0  -8  -3 1324.74   33.17
  -8   0  -3 1214.37   33.41
  -8   0   3 1198.01   34.07
   0  -8   3 1286.77   32.26
   8   0  -3 1286.09   34.20
   0  -8  -3 1305.51   36.28
   0   8   3 1305.21   35.46
   0   8  -3 1274.11   38.05
   0  -8  -4  286.67   13.77
  -8   0  -4  304.64   20.41
  -8   0   4  309.99   21.87
   0  -8   4  311.82   11.04
   8   0  -4  307.82   16.22
   0  -8  -4  318.70   14.02
   0   8   4  320.57   13.80
   0   8  -4  313.02   13.73
   0  -8  -5    6.72    3.86
  -8   0  -5   21.67    7.58
  -8   0   5   16.24    6.37
   0  -8   5   12.78    3.95
   8   0  -5    6.51    3.00
   0  -8  -5   10.54    4.25
   0   8   5    4.79    3.21
   0   8  -5    5.84    4.49
   0  -8  -6  511.91   21.96
  -8   0  -6  499.88   23.17
  -8   0   6  493.52   22.10
   0  -8   6  535.76   25.17
   8   0  -6  490.18   20.81
  -8   0  -6  461.62   23.03
   0   8   6  537.22   22.82
   0   8  -6  552.30   26.81
   0  -8  -7  173.25   21.52
  -8   0  -7  113.39   26.90
  -8   0   7  151.42   31.01
   0  -8   7  152.42   17.12
   8   0  -7  150.80   17.65
  -8   0  -7  123.23   12.87
   0  -8  -7  176.07   32.84
   0   8   7  153.21   24.34
   0   8  -7  147.71   28.08
   0  -8  -8   36.45   12.24
  -8   0  -8   52.39   13.70
  -8   0   8   49.00   14.86
   0  -8   8   61.04   10.96
   0   8  -8   50.16   11.89
   8   0  -8   58.66    9.72
  -8   0  -8   36.59    8.75
   0  -8  -8   60.63   16.36
   0   8   8   42.80   10.82
   0   8  -8   47.65   11.78
   0  -8  -9  158.46   20.23
  -8   0  -9  134.17   30.80
  -8   0   9  153.52   28.25
   0  -8   9  151.27   24.74
   0   8  -9  160.21   30.63
   8   0  -9  156.37   20.75
  -8   0  -9  131.06   16.25
   0  -8  -9  159.69   20.26
   0   8  -9  146.65   24.30
   0  -8 -10   27.83   10.10
  -8   0 -10   22.88    8.34
  -8   0  10   26.09    8.15
   0  -8  10   30.36    8.50
   0   8 -10   18.25    6.50
   8   0 -10   15.24    6.18
  -8   0 -10   31.26    6.71
   0  -8 -10   36.62   10.29
   0   8 -10   25.38    6.82
  -8   0 -11   58.28   16.72
  -8   0  11   48.83   10.94
   0  -8  11   49.81   14.94
   0   8  11   40.12   13.08
   0   8 -11   46.04   12.84
   8   0 -11   61.92   14.82
  -8   0 -11   45.45   14.15
   0  -8 -11   52.52   10.86
   0   8 -11   46.49   13.58
  -8   0 -12  798.87   24.03
  -8   0  12  803.08   24.21
   0  -8  12  814.79   35.41
   0   8  12  730.28   20.03
   0   8 -12  732.89   26.31
   8   0 -12  733.74   26.19
  -8   0 -12  737.97   19.02
   0  -8 -12  808.29   27.20
   0   8 -12  763.19   30.70
  -8   0 -13  285.36   42.28
  -8   0  13  283.08   28.74
   0  -8  13  321.16   46.00
   0   8  13  270.01   38.03
   0   8 -13  317.17   45.22
   8   0 -13  325.11   40.14
  -8   0 -13  308.49   14.04
   0  -8 -13  271.39   50.14
   0   8 -13  315.47   15.43
  -8   0 -14    9.71    6.53
  -8   0  14    4.39    5.26
   0  -8  14   12.66    8.56
   0   8  14    1.83    4.29
   0   8 -14   12.21    6.43
   8   0 -14    4.40    5.57
  -8   0 -14    6.92    3.43
   0  -8 -14    8.16    6.39
   0   8 -14    2.84    4.81
  -8   0 -15  348.77   50.37
  -8   0  15  313.34   35.49
   0  -8  15  340.37   45.49
   0   8  15  263.11   18.47
   0   8 -15  390.60   19.52
   8   0 -15  369.17   28.01
  -8   0 -15  331.36   32.95
   0  -8 -15  323.08   23.73
   0   8 -15  349.95   17.63
  -8   0 -16  132.08   47.10
  -8   0  16  180.79   32.26
   0  -8  16  188.89   39.99
   0   8  16  183.28   29.02
   0   8 -16  201.07   42.45
   8   0 -16  239.43   45.99
  -8   0 -16  175.79   29.81
   0  -8 -16  196.20   41.81
   0   8 -16  174.19   29.11
  -8   0 -17  105.51   31.26
  -8   0  17   94.48   18.73
   0  -8  17   67.97   25.32
   0   8  17   45.10   27.91
   0   8 -17   69.51   18.04
   8   0 -17   87.29   13.37
  -8   0 -17   64.35   16.63
   0  -8 -17   67.62   29.33
  -8   0 -18   44.02   24.24
  -8   0  18   53.78   20.65
   0  -8  18   40.61   22.85
   0   8  18   48.01   19.38
   0   8 -18   38.33   21.07
   8   0 -18   54.03   15.67
  -8   0 -18   51.39   10.93
   1  -8   0  185.05    5.73
  -1  -8   0  203.97    9.51
  -8   1   0  183.25    9.21
  -8  -1   0  199.82   10.32
  -1   8   0  167.24    5.22
  -8  -1   0  193.47    5.85
  -1   8   0  176.19   35.50
   1   8   0  200.59   10.22
   1  -8  -1   51.16    6.41
  -1  -8  -1   74.28    7.60
  -8   1  -1   73.56    6.32
  -8  -1  -1   70.22    8.95
  -1  -8   1   68.22   11.18
  -8   1   1   71.01    7.03
  -8  -1   1   90.19   19.44
  -1   8   1   49.10    6.84
  -1   8  -1   29.44    6.83
   8  -1  -1   65.43    5.49
  -8  -1   1   54.98    7.06
  -8   1   1   55.14    4.27
   1  -8  -1   78.53   19.21
  -1   8   1   68.66   17.76
  -1   8  -1   52.57   15.33
   1   8   1   52.34   15.25
   1   8  -1   83.08   16.25
   1  -8  -2  797.07   20.14
  -1  -8  -2  784.74   21.32
  -8   1  -2  807.80   25.65
  -8  -1  -2  804.07   24.40
   1  -8   2  805.76   20.34
  -1  -8   2  837.06   22.39
  -8   1   2  845.54   27.33
  -8  -1   2  734.62   22.78
   8  -1  -2  803.00   21.30
  -8   1   2  763.36   19.15
   1  -8  -2  822.96   24.54
  -1  -8  -2  759.66   23.76
  -1   8   2  810.00   27.54
  -1   8  -2  820.42   28.92
   1   8   2  847.63   27.37
   1   8  -2  816.28   25.32
   1  -8  -3  188.25   11.43
  -1  -8  -3  183.21    9.07
  -8   1  -3  184.82    9.74
  -8  -1  -3  199.77   10.72
  -8  -1   3  180.48   10.01
  -8   1   3  199.36    9.49
  -1  -8   3  184.09    9.52
   1  -8   3  177.90    6.78
   8   1  -3  194.10   12.34
   8  -1  -3  186.68   11.33
  -8  -1  -3  167.37    6.04
   1  -8  -3  184.89   14.40
  -1  -8  -3  216.85   22.79
  -1   8   3  188.16   17.63
   1   8   3  193.92   10.30
  -1   8  -3  171.75   12.56
   1   8  -3  183.32   12.25
   1  -8  -4  943.62   25.07
  -1  -8  -4  885.57   24.62
  -8   1  -4  859.38   25.40
  -8  -1  -4  896.04   27.32
  -8  -1   4  884.97   26.87
  -8   1   4  894.80   30.93
  -1  -8   4  926.11   27.62
   1  -8   4  924.75   23.99
   8   1  -4  941.39   26.13
   8  -1  -4  875.98   24.15
   1  -8  -4  943.47   27.97
  -1  -8  -4  907.67   28.31
  -1   8   4  883.09   26.24
   1   8   4  926.78   30.67
  -1   8  -4  936.57   28.31
   1   8  -4  882.65   26.94
   1  -8  -5  142.30   15.53
  -1  -8  -5  172.02   18.59
  -8   1  -5  148.92   11.44
  -8  -1  -5  155.08   29.85
  -8  -1   5  166.29   26.44
  -8   1   5  128.71   23.14
  -1  -8   5  134.39   12.66
   1  -8   5  161.10   14.16
   8   1  -5  157.67   22.15
   8  -1  -5  143.68    9.19
  -8  -1  -5  136.60    8.26
   1  -8  -5  167.04   31.21
  -1  -8  -5  156.47   24.68
  -1   8   5  170.92   19.36
   1   8   5  152.64   18.85
  -1   8  -5  129.17   28.16
   1   8  -5  178.81   29.29
   1  -8  -6  354.91   16.37
  -1  -8  -6  337.36   18.36
  -8   1  -6  343.59   16.76
  -8  -1  -6  357.25   22.48
  -8  -1   6  333.09   17.17
  -8   1   6  342.92   16.89
  -1  -8   6  328.62   16.86
   1  -8   6  346.17   18.81
  -8   1  -6  322.11   16.28
   8   1  -6  349.87   16.69
   8  -1  -6  350.36   23.12
  -8  -1  -6  359.19   18.76
   1  -8  -6  303.34   17.87
  -1  -8  -6  301.37   20.34
  -1   8   6  325.87   16.65
   1   8   6  380.46   17.08
  -1   8  -6  344.76   16.78
   1   8  -6  346.18   24.45
  -1  -8  -7  241.94   15.87
  -8   1  -7  243.01   14.15
  -8  -1  -7  267.74   38.37
  -8  -1   7  246.69   14.68
  -8   1   7  257.08   13.99
  -1  -8   7  254.20   35.49
   1  -8   7  241.20   23.95
  -8   1  -7  243.73   10.49
   8   1  -7  277.65   14.62
   8  -1  -7  249.86   14.00
  -8  -1  -7  278.17   11.70
   1  -8  -7  264.80   26.57
  -1  -8  -7  227.81   40.90
  -1   8   7  238.77   20.08
   1   8   7  268.46   16.03
  -1   8  -7  290.29   38.76
   1   8  -7  207.86   13.09
  -1  -8  -8  381.14   16.79
  -8   1  -8  347.20   19.27
  -8  -1  -8  329.41   36.87
  -8  -1   8  339.67   17.26
  -8   1   8  338.93   28.29
  -1  -8   8  370.16   34.84
   1  -8   8  393.17   35.33
  -1   8   8  364.34   16.19
  -1   8  -8  334.27   16.35
   1   8  -8  381.94   19.01
   8   1  -8  363.13   24.27
  -8   1  -8  365.76   22.35
   8  -1  -8  360.43   30.44
  -8  -1  -8  325.67   13.51
   1  -8  -8  347.08   24.42
  -1  -8  -8  380.19   19.00
   1   8   8  345.01   15.17
  -1   8  -8  335.42   16.08
   1   8  -8  390.06   19.32
  -1  -8  -9  373.09   24.66
  -8   1  -9  401.83   21.52
  -8  -1  -9  423.39   26.20
  -8  -1   9  391.34   21.63
  -8   1   9  379.29   21.53
  -1  -8   9  393.90   29.80
   1  -8   9  392.45   33.81
  -1   8   9  353.31   24.86
  -1   8  -9  403.43   22.63
   1   8  -9  380.29   21.37
   8   1  -9  424.30   32.16
  -8   1  -9  381.36   28.58
   8  -1  -9  398.97   23.74
  -8  -1  -9  396.00   21.64
   1  -8  -9  362.93   33.36
  -1  -8  -9  365.11   27.36
   1   8   9  363.41   24.23
  -1   8  -9  382.06   29.68
   1   8  -9  339.01   18.96
  -1  -8 -10  281.87   34.75
  -8   1 -10  229.71   14.31
  -8  -1 -10  240.66   41.86
  -8  -1  10  232.20   28.34
  -8   1  10  243.04   14.64
  -1  -8  10  248.48   39.65
   1  -8  10  262.21   23.72
  -1   8  10  222.37   30.62
  -1   8 -10  256.23   14.61
   1   8 -10  239.80   31.00
   8   1 -10  228.16   13.53
  -8   1 -10  254.61   22.68
   8  -1 -10  247.86   22.13
  -8  -1 -10  242.51   11.68
   1  -8 -10  215.22   32.74
  -1  -8 -10  234.37   42.81
  -1   8 -10  244.70   17.15
   1   8 -10  241.25   35.29
  -1  -8 -11    5.58    5.97
  -8   1 -11    3.17    4.17
  -8  -1 -11   27.62    7.68
  -8  -1  11   17.16    9.16
  -8   1  11   17.54    7.77
  -1  -8  11   13.22    8.58
   1  -8  11    4.04    4.09
  -1   8  11    8.68    4.78
  -1   8 -11   15.55    4.56
   1   8 -11    6.16    3.24
   8   1 -11   21.93    6.44
  -8   1 -11    3.48    2.02
   8  -1 -11    3.63    4.19
  -8  -1 -11    6.96    4.81
   1  -8 -11   14.33    8.21
  -1   8 -11   17.32    5.95
   1   8 -11    9.27    5.36
  -1  -8 -12  150.85   22.34
  -8   1 -12  134.97   21.06
  -8  -1 -12  165.32   26.09
  -8  -1  12  149.27   24.18
  -8   1  12  140.88   33.91
  -1  -8  12  135.31   33.24
   1  -8  12  134.82   35.36
  -1   8  12  133.39   25.29
  -1   8 -12  164.00   30.75
   1   8 -12  143.51   31.98
   8   1 -12  180.29   31.75
  -8   1 -12  140.47   25.78
   8  -1 -12  128.19   33.27
  -8  -1 -12  157.68   21.40
   1  -8 -12  142.78   15.68
  -1  -8 -12  107.17   20.90
  -1   8 -12  151.33   28.51
   1   8 -12  126.82   15.05
  -8   1 -13   10.81    4.65
  -8  -1 -13    7.32    4.08
  -8  -1  13    3.95    6.60
  -8   1  13    3.46    5.01
  -1  -8  13   11.03    8.51
   1  -8  13    5.12    8.15
  -1   8  13    5.52    5.07
   1   8  13    0.61    4.91
  -1   8 -13   25.13   10.10
   1   8 -13    6.09    4.72
   8   1 -13   27.87    7.11
  -8   1 -13    1.80    2.95
   8  -1 -13    5.48    5.11
  -8  -1 -13    5.43    5.89
   1  -8 -13    9.31    7.81
  -1  -8 -13   10.12    9.16
  -1   8 -13   13.06    5.72
   1   8 -13    7.25    6.60
  -8   1 -14  154.71   35.84
  -8  -1 -14  180.49   30.74
  -8  -1  14  136.63   26.96
  -8   1  14  157.52   47.12
  -1  -8  14  149.15   44.70
   1  -8  14  150.71   16.17
  -1   8  14  135.03   41.37
   1   8  14  167.85   28.30
  -1   8 -14  166.69   35.49
   1   8 -14  174.09   42.78
   8   1 -14  200.75   27.92
  -8   1 -14  144.01   30.15
   8  -1 -14  168.68   28.80
  -8  -1 -14  164.71   14.42
   1  -8 -14  155.50   24.22
  -1  -8 -14  142.35   33.36
  -1   8 -14  188.00   30.28
   1   8 -14  136.18   34.86
  -8   1 -15   -1.40    6.14
  -8  -1 -15   23.27    7.97
  -8  -1  15   13.60    4.72
  -8   1  15    9.01    7.49
  -1  -8  15    7.01    6.31
   1  -8  15    8.18    6.64
  -1   8  15    3.46    5.33
   1   8  15   10.09    6.80
  -1   8 -15   12.59    5.88
   1   8 -15    8.23    4.42
   8   1 -15    8.98    6.26
  -8   1 -15   12.43    6.52
   8  -1 -15    4.84    6.40
  -8  -1 -15    7.94    7.14
   1  -8 -15    9.77   10.15
  -1  -8 -15   13.97    8.05
  -1   8 -15    8.32    5.08
   1   8 -15    4.22    5.66
  -8   1 -16  223.77   53.24
  -8  -1 -16  227.22   39.71
  -8  -1  16  232.60   43.62
  -8   1  16  253.79   40.30
  -1  -8  16  244.48   35.30
   1  -8  16  275.52   18.63
  -1   8  16  287.40   19.83
   1   8  16  221.25   42.63
  -1   8 -16  296.00   48.83
   1   8 -16  262.36   28.01
  -8   1 -16  259.09   20.02
   8   1 -16  269.88   45.24
   8  -1 -16  264.44   47.89
  -8  -1 -16  237.04   16.11
   1  -8 -16  259.81   22.15
  -1  -8 -16  251.23   49.45
   1   8 -16  203.35   51.00
  -8   1 -17   10.43    9.68
  -8  -1 -17    3.10    7.05
  -8  -1  17   17.25   10.29
  -8   1  17    9.08    9.69
  -1  -8  17    8.25    5.95
   1  -8  17    9.10    5.85
  -1   8  17   11.39    6.10
  -1   8 -17    7.16    5.24
   1   8 -17   13.36    5.91
   8   1 -17   20.70    7.43
  -8   1 -17    5.22    4.49
   8  -1 -17   11.96    4.96
  -8  -1 -17    3.04    6.38
   1  -8 -17   13.06    6.64
  -1  -8 -17   18.03   11.28
  -8  -1 -18   83.72   35.75
  -8  -1  18   87.22   33.01
  -8   1  18   79.06   28.50
  -1  -8  18   70.98   32.08
   1  -8  18   95.50   20.51
  -1   8  18   71.89   32.91
   1   8  18   44.87   26.31
   8  -1  18   61.39   31.68
  -1   8 -18  108.56   25.25
   1   8 -18  119.50   33.96
  -8   1 -18  105.02   19.76
   8   1 -18  141.31   24.85
   8  -1 -18  138.65   29.27
  -8  -1 -18   77.74   18.17
   1  -8 -18   62.58   35.23
  -1  -8 -18   92.42   32.41
  -2  -8   0   59.79    9.68
  -8   2   0   68.01   16.45
  -8  -2   0   62.43   13.31
  -2   8   0   57.94   15.03
   2   8   0   65.59    9.20
  -2  -8  -1  134.91   17.87
  -8   2  -1  134.83   13.87
  -8  -2  -1  126.29   20.15
  -2  -8   1  106.91    8.40
  -8   2   1  106.78    7.17
  -8  -2   1  123.27   22.39
   8  -2  -1  104.11    4.62
   2  -8  -1  117.57    9.24
  -2   8   1  122.99   22.64
  -2   8  -1  102.21   16.48
   2   8   1  128.57   18.43
   2   8  -1  139.98   21.07
  -2  -8  -2  399.67   14.22
  -8   2  -2  370.84   15.35
  -8  -2  -2  410.82   19.01
  -8   2   2  423.73   16.26
  -8  -2   2  405.86   15.73
  -2   8   2  376.64    9.72
   8  -2  -2  369.60   11.27
   2  -8  -2  408.77   22.76
  -2  -8  -2  407.84   15.45
  -2   8   2  402.53   19.41
  -2   8  -2  421.59   25.08
   2   8   2  448.24   19.58
   2   8  -2  387.51   15.13
  -2  -8  -3 1585.84   40.71
  -8   2  -3 1564.50   42.23
  -8  -2  -3 1533.85   41.73
  -8  -2   3 1638.70   43.97
  -8   2   3 1562.05   41.39
  -2  -8   3 1550.60   44.13
   2  -8   3 1472.26   35.52
   8   2  -3 1588.69   40.05
   8  -2  -3 1577.22   38.64
   2  -8  -3 1536.46   42.36
  -2  -8  -3 1642.93   44.62
  -2   8   3 1616.78   43.14
  -2   8  -3 1501.69   40.49
   2   8   3 1646.11   43.29
   2   8  -3 1539.23   41.93
  -2  -8  -4  360.93   16.09
  -8   2  -4  361.52   16.36
  -8  -2  -4  299.10   15.53
  -8  -2   4  343.69   17.00
  -8   2   4  335.75   17.68
  -2  -8   4  321.08   18.49
   2  -8   4  351.19   14.95
  -2   8   4  346.82   18.08
   8   2  -4  321.57   15.05
   8  -2  -4  364.98   22.07
  -8  -2  -4  320.03   16.26
   8  -2   4  291.39   10.95
   2  -8  -4  308.06   15.56
  -2  -8  -4  357.02   36.23
  -2   8   4  374.65   21.78
  -2   8  -4  307.56   21.51
   2   8   4  308.13   17.70
   2   8  -4  343.46   19.47
  -2  -8  -5  313.13   16.46
  -8   2  -5  301.74   18.76
  -8  -2  -5  297.44   18.37
  -8  -2   5  298.80   15.45
  -8   2   5  274.96   14.69
  -2  -8   5  273.70   16.49
   2  -8   5  315.35   14.48
  -2   8   5  293.29   13.32
   8   2  -5  271.01   13.30
  -8  -2  -5  299.80   12.70
   2  -8  -5  270.39   22.06
  -2  -8  -5  314.31   16.83
  -2   8   5  322.32   31.91
   2   8   5  301.23   16.95
  -2   8  -5  264.71   25.90
   2   8  -5  286.06   16.90
  -2  -8  -6  813.65   31.41
  -8   2  -6  793.13   36.55
  -8  -2  -6  790.02   34.69
  -8   2   6  815.12   35.89
  -2  -8   6  858.01   32.91
   2  -8   6  805.50   31.45
  -2   8   6  820.91   32.92
  -8   2  -6  773.83   28.86
   8   2  -6  827.44   33.70
   8  -2  -6  796.08   36.70
  -8  -2  -6  801.69   29.70
   2  -8  -6  731.39   41.76
  -2  -8  -6  771.37   33.03
  -2   8   6  831.26   33.94
   2   8   6  833.89   34.78
  -2   8  -6  822.53   32.93
   2   8  -6  743.49   31.13
  -2  -8  -7  245.87   21.16
  -8   2  -7  228.43   14.55
  -8  -2  -7  235.37   25.81
  -8  -2   7  274.40   42.53
  -8   2   7  244.74   22.74
  -2  -8   7  276.28   41.30
   2  -8   7  268.79   15.16
  -2   8   7  240.80   23.53
  -8   2  -7  227.80   10.59
   8   2  -7  261.12   15.41
   8  -2  -7  259.39   14.99
  -8  -2  -7  239.60   18.15
   2  -8  -7  259.72   19.36
  -2  -8  -7  253.15   38.48
   2   8   7  252.71   15.68
  -2   8  -7  241.68   22.82
   2   8  -7  238.57   23.66
  -2  -8  -8  368.34   18.96
  -8   2  -8  330.91   22.50
  -8  -2  -8  352.89   32.53
  -8  -2   8  345.32   20.23
  -8   2   8  383.62   20.72
  -2  -8   8  372.94   25.93
   2  -8   8  360.20   19.63
   2   8  -8  365.90   21.05
  -8   2  -8  411.19   19.58
   8   2  -8  385.18   21.23
   8  -2  -8  382.60   30.43
  -8  -2  -8  405.23   19.57
   2  -8  -8  394.09   25.08
  -2  -8  -8  393.05   48.36
   2   8   8  401.36   23.08
  -2   8  -8  378.92   20.46
   2   8  -8  338.88   39.88
  -2  -8  -9  431.96   30.59
  -8   2  -9  437.56   24.08
  -8  -2  -9  426.29   27.62
  -8  -2   9  438.92   23.72
  -8   2   9  458.21   24.46
  -2  -8   9  450.34   23.02
   2  -8   9  471.12   27.56
  -2   8   9  432.91   23.08
  -2   8  -9  424.22   22.05
   2   8  -9  386.12   22.06
  -8   2  -9  436.01   20.92
   8   2  -9  422.98   23.05
   8  -2  -9  456.89   26.81
  -8  -2  -9  452.24   22.48
   2  -8  -9  446.78   25.95
  -2  -8  -9  453.39   25.04
   2   8   9  457.37   27.32
  -2   8  -9  417.68   29.06
   2   8  -9  455.04   26.97
  -2  -8 -10  270.62   14.65
  -8  -2 -10  241.11   32.08
  -8  -2  10  310.57   46.96
  -2  -8  10  235.73   27.93
   2  -8  10  256.83   23.92
  -2   8  10  243.62   16.23
  -2   8 -10  249.80   42.09
   2   8 -10  258.62   33.75
  -8   2 -10  272.75   24.08
   8   2 -10  264.81   24.28
   8  -2 -10  270.60   28.02
  -8  -2 -10  227.85   25.10
   2  -8 -10  251.85   26.65
  -2  -8 -10  269.73   31.02
   2   8  10  221.99   18.15
  -2   8 -10  241.76   19.14
  -2  -8 -11   13.47    5.67
  -8   2 -11   11.14    5.05
  -8  -2 -11   12.37    7.06
  -8  -2  11   10.42    6.85
  -8   2  11   17.44    6.40
  -2  -8  11   13.00    6.04
   2  -8  11    5.32    4.23
  -2   8  11    4.48    6.12
  -2   8 -11   10.06    5.36
   2   8 -11   22.53   10.28
  -8   2 -11   11.41    3.30
   8   2 -11    9.51    4.86
   8  -2 -11   22.40    7.17
  -8  -2 -11    8.76    5.84
   2  -8 -11    8.33    4.87
  -2  -8 -11   11.84    7.32
  -2   8 -11    6.42    5.15
   2   8 -11   11.59    7.47
  -2  -8 -12  102.22   25.63
  -8   2 -12  114.57   20.66
  -8  -2 -12  131.38   26.01
  -8  -2  12  112.98   24.69
  -8   2  12  147.35   30.52
  -2  -8  12  119.01   19.74
   2  -8  12   91.63   28.57
  -2   8  12  103.53   25.85
  -2   8 -12  114.21   30.06
   2   8 -12   96.54   24.41
  -8   2 -12   93.97   16.75
   8   2 -12  158.67   27.16
   8  -2 -12  117.74   12.15
  -8  -2 -12  114.09   16.91
   2  -8 -12  115.91   29.30
  -2  -8 -12   92.83   10.25
  -2   8 -12  117.09   26.76
   2   8 -12   95.24   21.58
  -2  -8 -13  139.23   26.91
  -8   2 -13  149.87   28.90
  -8  -2 -13  138.44   30.91
  -8  -2  13  148.09   40.32
  -8   2  13  157.75   37.96
  -2  -8  13  157.49   22.54
   2  -8  13  117.41   29.36
  -2   8  13  152.93   11.51
  -2   8 -13  176.45   34.04
   2   8 -13  148.98   39.58
  -8   2 -13  132.97   23.99
   8   2 -13  171.90   28.91
   8  -2 -13  108.62   33.31
  -8  -2 -13  155.14   16.57
   2  -8 -13  119.14   37.58
  -2  -8 -13  130.23   22.97
  -2   8 -13  175.88   22.73
   2   8 -13  120.55   31.66
  -2  -8 -14  104.72   36.92
  -8   2 -14  173.15   26.93
  -8  -2 -14  118.94   19.51
  -8  -2  14   96.63   32.97
  -8   2  14  148.82   32.54
  -2  -8  14  117.94   39.09
   2  -8  14  128.06   16.66
  -2   8  14   97.66   27.92
  -2   8 -14  123.13   29.18
   2   8 -14  114.81   28.82
  -8   2 -14  109.71   19.44
   8   2 -14  160.74   29.28
   8  -2 -14  102.99   31.58
  -8  -2 -14  123.09   25.08
   2  -8 -14  153.46   28.47
  -2  -8 -14  101.17   28.42
  -2   8 -14  129.58   23.58
   2   8 -14   96.76   13.21
  -8   2 -15   13.81    7.09
  -8  -2 -15   23.14   11.01
  -8  -2  15   28.08   11.60
  -8   2  15   29.27   11.18
  -2  -8  15   26.61    7.63
   2  -8  15   18.56    7.09
  -2   8  15   30.87    9.80
   2   8  15   26.46    9.23
  -2   8 -15   24.90    8.72
   2   8 -15   24.86    9.13
  -8   2 -15    6.19    3.53
   8   2 -15   24.49    9.47
   8  -2 -15    9.70    8.84
  -8  -2 -15    7.93    7.20
   2  -8 -15   31.60    9.13
  -2  -8 -15   18.21    5.77
  -2   8 -15   15.51    7.01
   2   8 -15    4.88    6.04
  -8   2 -16   85.58   27.10
  -8  -2 -16   80.86   18.82
  -8  -2  16   83.76   24.21
  -8   2  16   95.93   19.43
  -2  -8  16   64.98   24.00
   2  -8  16   55.51   23.39
  -2   8  16   52.31   21.94
   2   8  16   58.41   28.05
  -2   8 -16   96.15   19.76
   2   8 -16   64.58   17.48
  -8   2 -16   72.03   20.21
   8   2 -16  123.76   19.80
   8  -2 -16   72.30   20.19
  -8  -2 -16   61.84   19.45
   2  -8 -16   73.15   32.65
  -2  -8 -16   70.18   26.02
   2   8 -16   62.35   20.37
  -8  -2 -17   19.17   10.58
  -8  -2  17   34.38   12.45
  -8   2  17   24.95    7.98
  -2  -8  17   17.14    8.27
   2  -8  17    3.77    7.68
  -2   8  17    6.40    4.68
   2   8  17   16.03   10.68
   8  -2  17   13.97    7.75
  -2   8 -17    8.27    9.30
   2   8 -17   14.80    5.52
  -8   2 -17   18.47    5.37
   8   2 -17   23.77    6.69
   8  -2 -17    8.05    6.43
  -8  -2 -17   18.18   11.76
   2  -8 -17   10.02    7.46
  -2  -8 -17   19.19    7.86
   2   8 -17   18.59    7.22
  -8  -2  18    7.66    6.02
  -8   2  18    7.14    8.09
  -2  -8  18   10.45   12.46
   2  -8  18    9.44    5.03
  -2   8  18    7.05    7.89
   2   8  18    4.10    8.93
   8  -2  18    6.30    9.22
  -2   8 -18   10.25    9.72
   2   8 -18    7.56    5.57
  -8   2 -18    8.32    3.49
   8   2 -18   13.94    5.35
   8  -2 -18   16.20    7.07
  -8  -2 -18    8.30    7.45
   2  -8 -18    3.96    5.31
  -2  -8 -18    5.97    6.02
  -8   3   0   41.68    9.14
  -3  -8   0   21.55    6.29
  -8  -3   0   38.35    9.22
   8  -3   0   30.81    5.59
   3  -8   0   31.71    5.81
  -3   8   0   29.55    8.20
   3   8   0   20.38    4.68
  -8   3  -1  285.90   18.39
  -3  -8  -1  300.00   11.28
  -8  -3  -1  335.05   16.22
  -3  -8   1  315.62   12.68
  -8   3   1  316.91   12.11
  -8  -3   1  295.21   13.68
   8  -3   1  271.07    7.07
   8  -3  -1  271.84    9.85
   8  -3   1  301.68    7.91
  -8  -3  -1  312.97   10.72
   3  -8  -1  331.80   13.34
  -3   8   1  316.12   20.16
  -3   8  -1  314.95   22.66
   3   8   1  302.05   13.34
   3   8  -1  307.93   15.25
  -8   3  -2  387.72   19.33
  -3  -8  -2  434.40   15.04
  -8   3   2  459.17   20.33
  -3  -8   2  434.80   14.74
  -8  -3   2  388.79   17.69
   8  -3  -2  401.14   11.89
   8  -3   2  372.16    9.75
  -8  -3  -2  415.83   12.27
   3  -8  -2  443.61   16.28
  -3  -8  -2  408.15   18.45
  -3   8   2  448.11   19.02
  -3   8  -2  402.31   19.86
   3   8   2  430.93   17.80
   3   8  -2  433.15   17.11
   3  -8   3  344.36   14.11
  -8   3  -3  398.62   18.19
  -3  -8  -3  423.75   18.33
  -8  -3  -3  493.05   41.12
  -3   8   3  360.28   13.53
  -8  -3   3  407.69   24.34
  -8   3   3  441.94   18.51
  -3  -8   3  490.79   21.02
   3  -8   3  397.97   15.04
  -3   8   3  421.65   16.58
   8  -3  -3  456.42   18.48
  -8  -3  -3  436.16   17.01
   3  -8  -3  408.94   22.37
  -3  -8  -3  423.29   25.85
   8  -3   3  398.79   14.33
  -3   8   3  424.48   25.26
  -3   8  -3  382.43   19.08
   3   8   3  434.96   19.58
   3   8  -3  464.96   37.62
  -8   3  -4  198.15   14.41
  -3  -8  -4  227.11   12.76
  -8  -3  -4  212.25   20.34
  -8  -3   4  225.73   19.39
  -3  -8   4  255.95   31.20
  -8   3   4  207.20   11.81
   3  -8   4  232.52   13.26
   8   3  -4  214.68   10.87
   8  -3  -4  195.79   12.27
  -8  -3  -4  199.52   11.02
   3  -8  -4  200.16   11.93
  -3  -8  -4  239.07   34.61
  -3   8   4  227.68   19.91
  -3   8  -4  238.79   17.84
   3   8   4  219.17   19.96
   3   8  -4  230.53   23.12
  -8   3  -5  613.30   26.30
  -3  -8  -5  655.87   26.63
  -8  -3  -5  575.08   25.90
  -8  -3   5  572.33   25.68
  -3  -8   5  620.67   35.23
  -8   3   5  628.41   32.20
   3  -8   5  622.06   26.44
  -3   8   5  592.19   23.51
   8   3  -5  621.03   24.90
   8  -3  -5  608.99   24.43
  -8  -3  -5  667.95   25.22
   3  -8  -5  631.00   30.19
  -3  -8  -5  600.05   35.67
  -3   8   5  588.04   29.00
  -3   8  -5  624.66   28.00
   3   8   5  630.46   25.31
   3   8  -5  500.48   28.79
  -8   3  -6  521.09   24.28
  -3  -8  -6  535.84   22.61
  -8  -3  -6  547.42   24.26
  -8  -3   6  499.30   29.35
  -3  -8   6  534.34   21.97
  -8   3   6  509.86   22.50
   3  -8   6  533.12   20.84
  -3   8   6  503.16   24.67
  -8   3  -6  522.88   20.01
   8   3  -6  538.08   20.60
   8  -3  -6  544.56   32.29
  -8  -3  -6  531.50   19.65
   3  -8  -6  453.22   23.66
  -3  -8  -6  505.01   22.18
  -3   8  -6  511.57   21.96
   3   8   6  510.58   19.75
   3   8  -6  511.70   23.16
  -8   3  -7  477.21   27.67
  -3  -8  -7  517.70   21.56
  -8  -3  -7  499.74   23.92
  -8  -3   7  503.95   23.27
  -8   3   7  488.77   20.48
  -3  -8   7  506.03   21.65
   3  -8   7  515.51   20.25
  -3   8   7  483.57   22.52
  -8   3  -7  486.15   20.65
   8   3  -7  516.71   21.69
   8  -3  -7  495.51   29.09
  -8  -3  -7  501.56   19.51
   3  -8  -7  482.87   25.24
  -3  -8  -7  497.57   22.94
   3   8   7  519.75   20.84
  -3   8  -7  496.49   32.08
   3   8  -7  487.46   21.80
  -8   3  -8  302.00   22.21
  -3  -8  -8  374.88   19.94
  -8  -3  -8  351.77   23.82
  -8  -3   8  315.66   19.60
  -3  -8   8  376.30   30.51
  -8   3   8  355.83   23.25
   3  -8   8  332.97   18.83
  -3   8   8  326.99   17.26
   3   8  -8  317.57   18.37
  -8   3  -8  309.47   15.83
   8   3  -8  345.57   18.02
   8  -3  -8  319.10   20.62
  -8  -3  -8  368.74   18.32
   3  -8  -8  329.77   25.86
  -3  -8  -8  317.74   19.45
   3   8   8  388.32   23.13
  -3   8  -8  357.40   19.46
   3   8  -8  363.74   33.53
  -8   3  -9   21.91    7.81
  -3  -8  -9   20.36    7.43
  -8  -3  -9   17.58    8.71
  -8  -3   9   23.79   11.17
  -3  -8   9   29.30    8.30
  -8   3   9   12.29    8.59
   3  -8   9   18.66    7.02
  -3   8   9   21.19    6.11
  -3   8  -9   20.52    5.50
   3   8  -9   25.88    7.94
  -8   3  -9   16.00    4.44
   8   3  -9   19.53    5.35
   8  -3  -9   23.27    7.35
  -8  -3  -9   14.13    4.70
   3  -8  -9   30.57    7.74
  -3  -8  -9   27.29   10.38
   3   8   9   18.62    5.41
  -3   8  -9   16.57    7.94
   3   8  -9   33.68    7.83
   8   3   9   15.76    3.73
  -8   3 -10  118.33   22.40
  -3  -8 -10  130.16   27.08
  -8  -3 -10  111.64   25.77
  -8  -3  10  138.02   38.36
  -8   3  10  110.15   19.96
  -3  -8  10  102.35   14.47
   3  -8  10  120.30   15.85
  -3   8  10  116.88   18.07
  -3   8 -10   83.54   17.87
   3   8 -10  139.76   27.07
  -8   3 -10  120.10   17.32
   8   3 -10  129.73   27.37
   8  -3 -10  117.63   28.36
  -8  -3 -10  116.09   23.31
   3  -8 -10  109.25   16.93
  -3  -8 -10  116.36   13.24
   3   8  10  101.28   15.62
  -3   8 -10  100.93   20.41
   3   8 -10  113.21   24.54
  -8   3 -11   37.09    9.34
  -3  -8 -11   33.28   11.18
  -8  -3 -11   22.26   11.16
  -8  -3  11   46.07   13.19
  -3  -8  11   32.16    8.58
  -8   3  11   38.41   12.86
   3  -8  11   44.79   11.38
  -3   8  11   23.20    6.16
  -3   8 -11   39.14    9.09
   3   8 -11   36.47    9.03
  -8   3 -11   30.78    6.64
   8   3 -11   39.33    9.96
   8  -3 -11   42.57    9.73
  -8  -3 -11   20.71    8.52
   3  -8 -11   29.05   12.23
  -3  -8 -11   53.88   14.06
  -3   8 -11   45.20    9.42
   3   8 -11   34.46   11.22
  -8   3 -12   58.41   12.68
  -3  -8 -12   46.36   12.02
  -8  -3 -12   75.12   16.01
  -8  -3  12   56.28   17.40
  -3  -8  12   60.59   15.11
  -8   3  12   59.52   19.02
   3  -8  12   39.47    9.87
  -3   8  12   48.50   13.35
  -3   8 -12   49.10   11.88
   3   8 -12   54.41   16.87
  -8   3 -12   31.91   10.14
   8   3 -12   43.72   11.18
   8  -3 -12   54.56   11.73
  -8  -3 -12   31.90   15.91
   3  -8 -12   51.53   16.47
  -3  -8 -12   44.90    9.30
  -3   8 -12   60.52   15.45
   3   8 -12   41.30   12.40
  -8   3 -13  134.88   32.70
  -3  -8 -13  106.53   38.51
  -8  -3 -13  141.49   22.67
  -8  -3  13   92.54   34.65
  -3  -8  13  121.28   24.44
  -8   3  13  127.29   23.30
   3  -8  13  101.75   30.64
  -3   8  13   95.44   27.76
  -3   8 -13  118.24   22.34
   3   8 -13  126.71   35.42
  -8   3 -13  111.66   25.76
   8   3 -13  142.81   26.85
   8  -3 -13  103.91   18.72
  -8  -3 -13  105.10   32.53
   3  -8 -13  135.19   35.48
  -3  -8 -13   99.81   26.51
  -3   8 -13  138.03   21.82
   3   8 -13  125.56   23.45
  -8   3 -14  114.44   24.97
  -3  -8 -14  115.53   27.64
  -8  -3 -14  141.32   33.12
  -8  -3  14  126.19   35.32
  -8   3  14  116.35   26.51
  -3  -8  14  133.52   26.54
   3  -8  14  130.33   15.57
  -3   8  14  106.91   25.41
  -3   8 -14  135.47   31.13
   3   8 -14  147.11   29.42
  -8   3 -14  136.27   23.72
   8   3 -14  148.73   34.89
   8  -3 -14  129.95   18.65
  -8  -3 -14  105.95   27.35
   3  -8 -14  110.64   34.41
  -3  -8 -14  106.16   23.85
   3   8 -14  107.88   29.54
  -8   3 -15  298.09   28.47
  -3  -8 -15  311.55   22.39
  -8  -3 -15  339.72   51.89
  -8  -3  15  330.38   26.29
  -3  -8  15  295.43   58.48
  -8   3  15  319.20   51.94
   3  -8  15  282.25   29.02
  -3   8  15  296.23   19.95
  -3   8 -15  327.63   50.75
   3   8 -15  353.55   17.65
  -8   3 -15  311.08   38.73
   8   3 -15  355.44   52.91
   8  -3 -15  348.23   19.90
  -8  -3 -15  333.58   15.17
   3  -8 -15  333.79   22.81
  -3  -8 -15  296.38   30.80
   3   8 -15  333.58   36.07
  -8  -3 -16   43.95   16.66
  -8  -3  16   40.32   15.27
  -8   3  16   59.20   15.96
  -3  -8  16   50.99   14.24
   3  -8  16   30.58   17.67
  -3   8  16   32.15   15.18
   3   8  16   22.48   11.02
   8  -3  16   28.67   18.46
  -3   8 -16   38.60   12.91
   3   8 -16   40.66   11.17
  -8   3 -16   36.62   12.78
   8   3 -16   47.04    9.99
   8  -3 -16   29.32   19.98
  -8  -3 -16   25.01   15.70
   3  -8 -16   40.06   14.27
  -3  -8 -16   53.15   22.35
   3   8 -16   44.41   13.41
  -8  -3 -17  154.36   48.55
  -8  -3  17   97.09   50.77
  -3  -8  17  145.33   42.57
  -8   3  17  167.35   37.71
   3  -8  17  106.39   40.90
  -3   8  17  100.60   40.36
   8  -3  17  126.75   46.24
   3   8  17  200.21   14.02
  -3   8 -17  145.23   37.22
   3   8 -17  145.73   39.91
  -8   3 -17  145.86   27.84
   8   3 -17  191.27   33.92
   8  -3 -17  205.01   20.15
  -8  -3 -17  156.60   26.73
   3  -8 -17  165.28   25.16
  -3  -8 -17  155.11   36.92
   3   8 -17   99.67   35.37
  -8  -3 -18   33.75   14.67
  -8  -3  18   43.82   20.92
  -3  -8  18   26.59    9.88
  -8   3  18   35.87   13.79
   3  -8  18   38.21   16.59
  -3   8  18   33.13   11.96
   3   8  18   28.57   20.42
   8  -3  18   18.35   19.55
  -3   8 -18   39.24   12.55
   3   8 -18   37.21   12.89
  -8   3 -18   54.54   26.77
   8   3 -18   42.52   15.80
   8  -3 -18   40.70   14.70
  -8  -3 -18   18.62   13.80
   3  -8 -18   54.50   23.97
  -3  -8 -18   41.30   24.56
  -8   4   0    7.60    4.31
  -4  -8   0    6.92    3.54
  -8  -4   0   15.23    8.32
   8  -4   0    8.75    3.01
   4  -8   0   14.18    6.93
  -4   8   0    8.31    5.23
   4   8   0   16.85    4.45
  -8   4  -1  873.85   33.57
  -4  -8  -1 1033.17   39.34
  -8  -4  -1  841.12   33.64
  -8   4   1  879.19   33.01
  -4  -8   1  854.83   34.49
  -8  -4   1  890.74   35.44
   8  -4  -1  899.22   32.26
   8  -4   1  843.54   29.81
   4  -8  -1  849.58   32.89
  -8  -4  -1  842.84   31.32
  -4   8   1  855.71   34.02
  -4   8  -1  888.18   41.83
   4   8   1  902.94   35.07
   4   8  -1  928.29   36.32
  -8   4  -2  697.67   27.66
  -4  -8  -2  713.65   29.17
  -8   4   2  737.61   29.25
  -4  -8   2  776.87   30.32
  -8  -4   2  809.64   33.68
   8  -4  -2  767.15   28.24
  -8  -4  -2  764.90   28.21
   4  -8  -2  727.28   34.03
   8  -4   2  722.45   25.69
  -4  -8  -2  688.54   27.98
  -4   8   2  699.39   31.78
  -4   8  -2  749.08   32.84
   4   8   2  752.61   29.60
   4   8  -2  673.36   27.84
  -8   4  -3   67.31    7.49
  -4  -8  -3   57.82    6.32
  -8  -4  -3   51.92   10.22
   4  -8   3   46.75    5.17
  -8  -4   3   87.02   19.04
  -4  -8   3   67.65   15.86
  -8   4   3   62.97   13.28
   4  -8   3   53.28    4.66
   8  -4  -3   57.29   11.76
  -8  -4  -3   52.54   11.54
   4  -8  -3   46.28   10.65
  -4  -8  -3   74.14   13.39
  -4   8   3   73.57   17.30
  -4   8  -3   51.81   11.41
   4   8   3   61.91   10.93
   4   8  -3   80.71   17.02
  -8   4  -4  646.54   26.62
  -4  -8  -4  612.46   25.58
  -8  -4  -4  622.76   27.81
  -8  -4   4  632.74   27.20
  -4  -8   4  665.67   26.79
  -8   4   4  647.51   27.21
   4  -8   4  629.32   23.49
   8  -4  -4  635.85   24.79
  -8  -4  -4  624.04   25.84
   4  -8  -4  639.49   33.04
  -4  -8  -4  621.78   26.11
  -4   8   4  612.00   30.50
  -4   8  -4  661.56   28.76
   4   8   4  648.67   26.64
   4   8  -4  562.58   24.89
  -8   4  -5   61.40   14.90
  -4  -8  -5   44.29   14.67
  -8  -4  -5   70.68   15.62
  -8  -4   5   61.24   11.62
  -4  -8   5   59.16   11.74
  -8   4   5   53.10   13.52
  -4   8   5   44.81    7.89
   4  -8   5   39.62    7.31
   8   4  -5   54.02   15.05
   8  -4  -5   58.96    8.70
  -8  -4  -5   49.05   11.28
   4  -8  -5   57.19   14.71
  -4  -8  -5   45.49    9.77
  -4   8  -5   56.07   17.80
   4   8   5   47.88   14.22
   4   8  -5   68.75   20.47
  -8   4  -6   46.10    9.01
  -4  -8  -6   35.83   13.21
  -8  -4  -6   55.34   16.18
  -8  -4   6   39.59   13.36
  -4  -8   6   63.11   10.93
  -8   4   6   64.49   13.35
  -4   8   6   34.89    5.94
   4  -8   6   40.86    6.94
   8   4  -6   73.37   15.65
   8  -4  -6   51.16    9.13
  -8  -4  -6   54.86   14.35
   4  -8  -6   54.02   14.73
  -4  -8  -6   46.56   10.23
  -4   8  -6   64.84   15.08
   4   8   6   57.63   14.79
   4   8  -6   38.09    9.19
  -8   4  -7   64.34   13.38
  -4  -8  -7   61.06   22.50
  -8  -4  -7   64.18   14.91
  -8  -4   7  100.69   23.33
  -4  -8   7   76.09   20.38
  -8   4   7   80.87   17.57
  -4   8   7   52.58   13.21
   4  -8   7   71.98   15.36
  -8   4  -7   57.03   11.36
   8   4  -7   81.79   17.18
   8  -4  -7   79.02   14.92
  -8  -4  -7   73.89   17.08
   4  -8  -7   61.95   20.35
  -4  -8  -7   57.46   19.42
  -4   8  -7   72.48   14.24
   4   8   7   58.46   12.43
   4   8  -7   67.58   10.11
  -8   4  -8  408.22   26.95
  -4  -8  -8  462.64   25.55
  -8  -4  -8  406.85   24.93
  -8  -4   8  445.02   24.82
  -4  -8   8  468.48   42.31
  -8   4   8  427.18   21.85
  -4   8   8  445.43   23.67
   4  -8   8  459.60   27.36
   4   8  -8  431.59   30.07
  -8   4  -8  433.32   20.50
   8   4  -8  446.87   22.50
   8  -4  -8  455.47   31.28
  -8  -4  -8  422.55   20.99
   4  -8  -8  392.98   26.64
  -4  -8  -8  467.51   25.08
  -4   8  -8  405.41   23.17
   4   8   8  445.49   22.22
   4   8  -8  426.98   26.82
   8   4   8  432.22   23.37
  -8   4  -9   78.42   16.10
  -4  -8  -9   56.69   19.12
  -8  -4  -9   46.81   12.07
  -8  -4   9   65.65   17.56
  -4  -8   9   42.15   10.92
  -8   4   9   62.79   15.89
  -4   8   9   55.66   15.56
   4  -8   9   58.66   11.60
   4   8  -9   57.03   15.97
  -8   4  -9   69.57   13.72
   8   4  -9   57.98   10.35
   8  -4  -9   63.65   14.44
  -8  -4  -9   48.07   13.32
   4  -8  -9   46.25   17.73
  -4  -8  -9   49.16   17.42
   4   8   9   32.78    9.35
  -4   8  -9   47.25   10.92
   8   4   9   40.89   10.63
   4   8  -9   66.78   12.21
  -8   4 -10  386.13   20.66
  -4  -8 -10  376.20   41.26
  -8  -4 -10  403.46   21.44
  -8  -4  10  436.15   64.19
  -4  -8  10  410.72   54.12
  -8   4  10  410.78   23.14
  -4   8  10  402.35   19.56
   4  -8  10  383.49   17.83
  -4   8 -10  390.37   43.51
   4   8 -10  392.61   23.71
  -8   4 -10  369.66   16.21
   8   4 -10  370.56   18.29
   8  -4 -10  360.90   22.06
  -8  -4 -10  407.98   18.62
   4  -8 -10  438.42   41.58
  -4  -8 -10  412.97   21.82
   4   8  10  381.51   16.08
  -4   8 -10  404.83   26.37
   4   8 -10  383.13   32.56
  -8   4 -11   37.05   11.41
  -4  -8 -11   43.09   12.25
  -8  -4 -11   39.35   11.21
  -8  -4  11   36.01   13.03
  -4  -8  11   52.71   18.96
  -8   4  11   46.40   11.45
  -4   8  11   30.15    9.27
   4  -8  11   33.36    9.92
  -4   8 -11   75.28   16.74
   4   8 -11   28.76    7.68
  -8   4 -11   36.82   10.28
   8   4 -11   51.10   12.47
   8  -4 -11   31.34   12.57
  -8  -4 -11   44.69   12.56
   4  -8 -11   56.80   20.04
  -4  -8 -11   33.83    9.03
  -4   8 -11   55.88   11.32
   4   8 -11   44.06   11.64
  -8   4 -12   13.20    7.10
  -4  -8 -12   20.27    8.31
  -8  -4 -12   31.18   11.81
  -8  -4  12   13.70    7.09
  -4  -8  12   33.62   11.26
  -8   4  12   35.38    9.60
  -4   8  12   31.83   10.43
   4  -8  12   24.34    6.23
  -4   8 -12   38.97    8.57
   4   8 -12   23.60    6.84
  -8   4 -12   26.73    6.55
   8   4 -12   46.37   10.68
   8  -4 -12   35.24   11.91
  -8  -4 -12   22.87    7.36
   4  -8 -12   48.75   13.32
  -4  -8 -12   11.55    4.99
   4   8 -12   31.47   20.50
  -8   4 -13  111.51   28.15
  -4  -8 -13  137.13   35.00
  -8  -4 -13  149.76   22.39
  -8  -4  13  114.22   29.32
  -4  -8  13   98.52   30.36
  -8   4  13  117.08   26.59
  -4   8  13  107.40   28.00
   4  -8  13  112.58   16.57
  -4   8 -13  124.79   31.31
   4   8 -13  118.16   25.73
  -8   4 -13  107.72   22.08
   8   4 -13  139.09   29.01
   8  -4 -13  123.99   19.57
  -8  -4 -13   81.39   26.30
   4  -8 -13  136.64   34.06
  -4  -8 -13  134.73   27.73
  -4   8 -13  131.50   28.21
   4   8 -13  116.97   30.00
  -8   4 -14  252.26   32.78
  -4  -8 -14  272.48   19.27
  -8  -4 -14  282.75   33.78
  -8  -4  14  252.84   24.07
  -4  -8  14  232.26   63.38
  -8   4  14  287.04   25.49
  -4   8  14  238.56   35.44
   4  -8  14  272.79   13.15
  -4   8 -14  239.66   39.12
   4   8 -14  237.21   29.56
  -8   4 -14  298.16   30.69
   8   4 -14  280.87   18.64
   8  -4 -14  232.84   32.34
  -8  -4 -14  292.95   14.33
   4  -8 -14  275.02   22.69
  -4  -8 -14  303.98   20.07
  -4   8 -14  266.84   21.95
   4   8 -14  238.11   27.57
  -4  -8 -15   72.09   17.37
  -8  -4 -15   44.21   15.28
  -8  -4  15   44.97   22.35
  -4  -8  15   44.97   18.04
  -8   4  15   34.29   15.85
  -4   8  15   46.98    9.20
   4  -8  15   44.55   26.06
   8  -4  15   37.55    8.50
  -4   8 -15   45.84   11.04
   4   8 -15   66.07   17.74
  -8   4 -15   56.47   13.97
   8   4 -15   54.24   15.88
   8  -4 -15   46.33   22.39
  -8  -4 -15   38.75   15.37
   4  -8 -15   50.70   13.50
  -4  -8 -15   45.87   17.02
   4   8 -15   41.39   13.14
  -4  -8 -16   52.00   19.56
  -8  -4 -16   55.62   24.83
  -8  -4  16   57.63   13.60
  -4  -8  16   48.20   23.20
  -8   4  16   75.82   26.24
  -4   8  16   47.13   19.16
   4  -8  16   46.72   23.79
   8  -4  16   43.59   20.12
  -4   8 -16   75.60   16.33
   4   8 -16   85.05   18.70
  -8   4 -16   62.26   15.46
   8   4 -16   73.70   19.63
   8  -4 -16   45.13   22.01
  -8  -4 -16   43.53   21.58
   4  -8 -16   60.29   18.87
  -4  -8 -16   60.60   22.99
   4   8 -16   58.70   17.92
  -8  -4 -17   41.92   14.78
  -8  -4  17   16.83    8.85
  -4  -8  17   31.41   15.69
  -8   4  17   31.68   12.71
  -4   8  17   18.93   10.52
   4  -8  17   27.33    9.25
   8  -4  17   31.09   15.01
  -4   8 -17   23.74   12.22
   4   8 -17   26.72    8.28
  -8   4 -17   23.32   10.76
   8   4 -17   35.96   10.39
   8  -4 -17   14.59   13.07
  -8  -4 -17   28.21    9.10
   4  -8 -17   26.30   16.17
  -4  -8 -17   37.55    9.58
   4   8 -17   28.60    8.84
  -8  -4 -18   71.23   29.71
  -8  -4  18   74.26   15.97
  -4  -8  18   68.23   27.20
  -8   4  18   67.82   21.32
  -4   8  18   42.15   19.96
   4  -8  18   63.74   27.87
   8  -4  18   61.99   29.01
   4   8  18   23.63   23.20
  -4   8 -18   58.72   25.87
   4   8 -18   92.38   26.32
  -8   4 -18   60.96   17.83
   8   4 -18   66.34   17.30
   8  -4 -18   52.67   31.48
  -8  -4 -18   48.19   24.02
   4  -8 -18   54.57   30.24
  -4  -8 -18   56.32   26.05
   4   8 -18   52.18   25.74
  -8   5   0  254.65   19.22
  -5  -8   0  302.89   16.61
  -8  -5   0  294.48   38.13
   8  -5   0  256.53   11.09
   5  -8   0  270.03   21.01
  -5   8   0  261.60   22.68
   5   8   0  248.81   25.39
  -8   5  -1  304.81   15.68
  -5  -8  -1  334.02   21.09
  -8  -5  -1  321.64   17.56
  -8   5   1  332.48   18.98
  -5  -8   1  337.16   16.37
  -8  -5   1  298.08   15.99
   8  -5  -1  314.26   15.19
   8  -5   1  350.32   15.37
   5  -8  -1  318.15   28.75
  -8  -5  -1  324.07   16.99
  -5   8   1  252.44   16.82
  -5   8  -1  316.90   32.02
   5   8   1  344.66   26.24
   5   8  -1  336.06   27.02
  -8   5  -2   47.76   11.49
  -5  -8  -2   37.12    9.55
  -8  -5  -2   51.24   14.48
  -8   5   2   53.59   13.74
  -5  -8   2   48.60   12.25
  -8  -5   2   35.72    7.02
   8  -5  -2   51.47    9.46
   5  -8  -2   42.32   10.35
  -8  -5  -2   42.55    9.77
   8  -5   2   44.57    8.74
  -5  -8  -2   34.68   12.34
  -5   8   2   47.85   11.63
  -5   8  -2   39.53   11.48
   5   8   2   45.42    9.85
   5   8  -2   46.59    7.95
  -8   5  -3   35.78    9.39
  -5   8   3   20.55    4.10
  -5  -8  -3   43.95    7.24
  -8  -5  -3   45.52   14.03
   5  -8   3   24.49    4.10
  -8  -5   3   42.36   14.32
  -8   5   3   52.10   12.51
  -5  -8   3   48.38   13.72
   5  -8   3   28.17    5.43
   8  -5  -3   35.35    9.52
   5  -8  -3   55.66   11.19
  -8  -5  -3   37.76    9.49
  -5  -8  -3   47.47   10.28
  -5   8  -3   34.92    9.77
   5   8   3   40.92   10.23
   5   8  -3   40.16    7.63
  -8   5  -4   39.98   10.87
  -5  -8  -4   45.26    9.63
  -8  -5  -4   42.11    8.93
  -8  -5   4   54.45   12.33
  -5  -8   4   29.06    6.20
  -8   5   4   32.03    7.23
   5  -8   4   38.00    6.82
   8  -5  -4   39.67    9.28
  -8  -5  -4   26.76    8.02
   5  -8  -4   33.36    8.80
  -5  -8  -4   45.14   12.02
  -5   8  -4   24.81    9.48
   5   8   4   27.34    6.52
   5   8  -4   50.08   12.06
  -8   5  -5  910.69   32.68
  -5  -8  -5  922.59   33.76
  -8  -5  -5  939.30   36.59
  -8  -5   5  905.74   35.29
  -5  -8   5  977.62   35.55
  -8   5   5  929.94   32.33
  -5   8   5  886.92   29.49
   5  -8   5  921.62   30.47
   8  -5  -5  965.98   34.11
  -8  -5  -5  937.65   32.72
   5  -8  -5  951.85   34.78
  -5  -8  -5  896.06   33.64
  -5   8  -5  897.57   36.57
   5   8   5 1002.11   36.88
   5   8  -5  906.66   39.99
  -8   5  -6   44.99    9.31
  -5  -8  -6   37.18   11.65
  -8  -5  -6   62.33   12.76
  -8  -5   6   54.39   14.11
  -5  -8   6   48.92   10.93
  -8   5   6   52.72    5.82
  -5   8   6   32.47    5.56
   5  -8   6   26.08    7.77
   8   5  -6   47.46   14.10
   8  -5  -6   55.25   11.52
   5  -8  -6   49.70   14.26
  -5  -8  -6   33.60   10.40
  -5   8  -6   56.64   12.85
   5   8   6   44.39   10.12
   5   8  -6   42.64    9.14
   8   5   6   35.31    8.08
  -8   5  -7  249.06   28.33
  -5  -8  -7  268.03   41.75
  -8  -5  -7  250.29   37.37
  -8  -5   7  303.76   39.39
  -5  -8   7  252.47   38.82
  -8   5   7  239.79   14.89
  -5   8   7  275.55   19.21
   5  -8   7  305.82   16.14
   8   5  -7  240.44   15.87
   8  -5  -7  267.02   24.88
  -8  -5  -7  245.57   13.95
   5  -8  -7  242.76   20.36
  -5  -8  -7  260.24   17.17
  -5   8  -7  262.92   43.11
   5   8   7  239.61   17.03
   5   8  -7  274.80   33.90
   8   5   7  287.40   22.99
  -8   5  -8   31.55    8.85
  -5  -8  -8   31.12    8.98
  -8  -5  -8   28.56    9.51
  -8  -5   8   32.14    8.55
  -5  -8   8   29.12    9.58
  -8   5   8   33.69   11.09
  -5   8   8   25.97    6.29
   5  -8   8   35.47    9.29
   8   5  -8   25.57    6.07
   8  -5  -8   28.32    8.21
  -8  -5  -8   27.33   10.59
   5  -8  -8   29.27    9.18
  -5  -8  -8   35.18   11.86
  -5   8  -8   30.10    6.65
   5   8   8   24.11    7.97
   8   5   8   23.97    7.03
   5   8  -8   31.38    9.68
  -8   5  -9  274.32   18.12
  -5  -8  -9  296.54   20.09
  -8  -5  -9  297.89   36.53
  -8  -5   9  290.53   31.85
  -5  -8   9  312.99   38.25
  -8   5   9  286.35   17.05
  -5   8   9  297.05   15.46
   5  -8   9  295.61   14.69
   5   8  -9  300.78   18.87
  -8   5  -9  279.12   18.68
   8   5  -9  307.49   17.04
   8  -5  -9  287.56   21.97
  -8  -5  -9  276.89   25.22
   5  -8  -9  307.73   39.69
  -5  -8  -9  306.14   17.25
  -5   8  -9  299.31   20.32
   5   8   9  287.50   13.85
   5   8  -9  310.84   26.52
  -8   5 -10  182.31   21.09
  -5  -8 -10  166.06   26.80
  -8  -5 -10  141.27   46.02
  -8  -5  10  162.77   21.33
  -5  -8  10  147.59   29.37
  -8   5  10  135.85   25.69
  -5   8  10  151.11   27.14
   5  -8  10  156.80   26.11
   5   8 -10  142.05   10.68
  -8   5 -10  156.97   16.37
   8   5 -10  150.70   32.49
   8  -5 -10  169.92   18.63
  -8  -5 -10  119.47   20.57
   5  -8 -10  155.97   19.11
  -5  -8 -10  138.29   41.06
  -5   8 -10  157.33   33.23
   5   8 -10  157.87   31.24
  -8   5 -11  356.91   23.88
  -5  -8 -11  373.99   20.45
  -8  -5 -11  394.51   40.27
  -8  -5  11  386.39   21.04
  -5  -8  11  429.33   30.84
  -8   5  11  399.55   19.04
  -5   8  11  390.80   20.70
  -5   8 -11  385.59   33.20
   5   8 -11  409.42   23.81
  -8   5 -11  391.59   18.79
   8   5 -11  429.08   24.57
   8  -5 -11  361.73   22.41
  -8  -5 -11  427.39   20.12
   5  -8 -11  399.11   21.68
  -5  -8 -11  392.61   20.35
  -5   8 -11  391.03   23.91
   5   8 -11  448.65   30.91
  -8   5 -12  198.83   24.49
  -5  -8 -12  173.60   36.60
  -8  -5 -12  166.88   37.00
  -8  -5  12  163.39   37.63
  -5  -8  12  162.78   41.62
  -8   5  12  159.18   26.75
  -5   8  12  210.29   12.89
  -5   8 -12  170.90   34.26
   5   8 -12  203.71   50.53
  -8   5 -12  161.30   30.97
   8   5 -12  199.64   40.67
   8  -5 -12  181.71   42.91
  -8  -5 -12  175.05   19.07
   5  -8 -12  141.77   39.16
  -5  -8 -12  147.32   31.49
  -5   8 -12  169.80   30.23
   5   8 -12  196.34   28.80
  -5  -8 -13    5.75    5.36
  -8  -5 -13   14.69    9.38
  -8  -5  13   17.93    9.81
  -5  -8  13    5.88    8.62
  -8   5  13    8.16    4.83
  -5   8  13    5.64    4.74
   5  -8  13    4.73    6.56
  -5   8 -13    4.10    3.05
   5   8 -13    7.59    4.74
  -8   5 -13    5.43    2.71
   8   5 -13   16.04    9.50
   8  -5 -13    6.16    4.67
  -8  -5 -13    1.92    4.16
   5  -8 -13    7.11    4.75
  -5  -8 -13   10.32    9.50
  -5   8 -13    3.24    3.21
   5   8 -13    0.79    3.41
  -5  -8 -14   13.72    5.76
  -8  -5 -14    6.23   12.39
  -8  -5  14    8.99    4.74
  -5  -8  14   12.95    9.64
  -8   5  14    5.24    6.29
  -5   8  14    7.75    4.03
   5  -8  14    4.13    4.05
   8  -5  14   11.71    5.85
  -5   8 -14    4.63    4.12
   5   8 -14   18.47    5.87
  -8   5 -14    9.67    4.28
   8   5 -14    9.62    6.04
   8  -5 -14   24.29    7.71
  -8  -5 -14    7.27    7.77
   5  -8 -14    1.21    6.59
  -5  -8 -14    5.59    6.75
   5   8 -14    0.40    3.80
  -5  -8 -15   86.70   27.09
  -8  -5 -15  114.09   24.27
  -8  -5  15   74.33   18.33
  -5  -8  15   84.77   25.93
  -8   5  15   81.45   32.28
  -5   8  15   69.30   25.78
   5  -8  15   61.80   27.12
   8  -5  15   79.59   20.43
  -5   8 -15   99.12   20.65
   5   8 -15  109.58   28.60
  -8   5 -15   70.69   13.80
   8   5 -15   72.28   18.34
   8  -5 -15   75.17   31.03
  -8  -5 -15   58.93   33.08
   5  -8 -15   95.64   33.46
  -5  -8 -15   98.86   15.24
   5   8 -15   76.55   26.83
  -5  -8 -16    6.20    6.16
  -8  -5 -16   15.21    5.09
  -8  -5  16    4.75    7.82
  -5  -8  16    5.99    7.33
  -8   5  16    4.72    7.65
  -5   8  16   13.88    9.28
   5  -8  16    6.77    5.42
   8  -5  16   11.24    6.13
  -5   8 -16   11.07    4.83
   5   8 -16    5.06    7.57
  -8   5 -16   10.47    7.31
   8   5 -16    8.54    3.96
   8  -5 -16    6.77    4.12
  -8  -5 -16    4.63    7.47
   5  -8 -16    4.75    7.97
  -5  -8 -16    6.31    6.15
   5   8 -16   10.92    8.09
  -5  -8 -17  207.54   15.30
  -8  -5 -17  171.26   48.02
  -8  -5  17  135.12   53.56
  -5  -8  17  136.30   56.05
  -8   5  17  176.81   32.99
  -5   8  17  166.84   27.21
   5  -8  17  191.47   25.95
   8  -5  17  232.93   15.22
  -5   8 -17  172.33   40.61
   5   8 -17  197.84   33.63
  -8   5 -17  154.09   28.53
   8   5 -17  174.06   49.13
   8  -5 -17  135.50   49.09
  -8  -5 -17   87.71   44.24
   5  -8 -17  231.81   25.16
  -5  -8 -17  201.48   31.78
   5   8 -17  128.46   41.32
  -8   6   0  281.78   11.62
  -6  -8   0  300.61   16.12
  -8  -6   0  304.95   31.70
   8  -6   0  253.98   12.42
   6  -8   0  282.70   25.09
  -6   8   0  256.47   19.83
   6   8   0  306.49   22.33
  -8   6  -1  189.23   16.08
  -8   6   1  189.12    8.71
  -6  -8  -1  184.73   16.82
  -8  -6  -1  188.23   12.06
  -6  -8   1  201.42   20.52
  -8  -6   1  232.60   35.84
   8  -6  -1  176.28   16.63
   8  -6   1  189.65    9.78
   6  -8  -1  175.75   17.28
   6  -8   1  171.75   16.38
  -8  -6  -1  201.38   25.45
  -6  -8  -1  185.37   24.46
  -6   8  -1  170.54   20.44
   6   8   1  183.28   13.14
   6   8  -1  216.69   24.90
  -8   6  -2  120.54   11.22
  -6  -8  -2  128.51   30.77
  -8  -6  -2   97.59    9.47
  -8   6   2  109.02    8.97
  -6  -8   2  134.50   22.18
  -8  -6   2  104.44   27.66
   8  -6  -2  119.25   11.60
   6  -8  -2  119.57   22.67
  -8  -6  -2   89.03   18.68
   8  -6   2  102.77   10.24
  -6  -8  -2  157.98   21.97
  -6   8  -2  119.17   19.02
   6   8   2  130.64   26.11
   6   8  -2  171.09   28.27
  -8   6  -3  663.17   23.31
  -6  -8  -3  697.74   31.96
  -8  -6  -3  663.83   26.99
  -6   8   3  637.03   20.69
  -8   6   3  717.30   25.98
  -6  -8   3  709.58   27.80
  -8  -6   3  684.53   31.73
   6  -8   3  641.62   20.80
   8  -6  -3  674.94   24.77
   6  -8  -3  695.58   27.12
  -8  -6  -3  658.31   24.42
  -6  -8  -3  688.33   28.94
  -6   8  -3  712.63   28.68
   6   8   3  698.90   26.73
   6   8  -3  710.93   40.44
  -8   6  -4  233.79   11.94
  -6  -8  -4  252.65   30.80
  -8  -6  -4  276.90   24.04
  -8  -6   4  275.21   32.83
  -6  -8   4  270.85   17.64
  -8   6   4  276.35   16.91
   6  -8   4  212.30   11.27
   8  -6  -4  229.84   29.28
   6  -8  -4  269.27   28.81
  -8  -6  -4  307.60   27.66
  -6  -8  -4  238.39   41.59
  -6   8  -4  256.13   25.55
   6   8   4  251.65   17.74
   6   8  -4  248.62   19.04
  -8   6  -5   44.09    9.60
  -6  -8  -5   59.12   12.77
  -8  -6  -5   54.76   13.85
  -8  -6   5   39.47   11.80
  -6  -8   5   61.09   10.43
  -8   6   5   55.48   11.72
   6  -8   5   33.95    8.21
   8  -6  -5   43.77   10.72
   6  -8  -5   60.24   14.34
  -8  -6  -5   44.04   13.78
  -6  -8  -5   46.81   10.82
  -6   8  -5   57.11   11.96
   6   8   5   55.38   11.47
   6   8  -5   37.85   12.78
   8   6   5   48.62    7.87
  -8   6  -6   18.81    4.29
  -6  -8  -6   16.52    7.22
  -8  -6  -6   17.34   10.15
  -8  -6   6   28.52    8.16
  -6  -8   6   24.01    6.70
  -8   6   6   21.94    6.52
  -6   8   6   13.57    3.62
   6  -8   6   17.82    3.58
   8  -6  -6   12.45    5.06
   6  -8  -6   25.33    9.27
  -8  -6  -6   22.03    7.06
  -6  -8  -6   16.43    6.45
  -6   8  -6   10.19    4.63
   6   8   6   20.86    5.42
   8   6   6    8.44    4.16
   6   8  -6   12.19    7.52
  -8   6  -7   67.66   13.43
  -6  -8  -7   91.98   20.79
  -8  -6  -7   73.26   18.39
  -8  -6   7   87.54   15.62
  -6  -8   7   70.08   19.78
  -8   6   7   73.54   14.70
  -6   8   7   60.44   11.06
   6  -8   7   55.54   11.49
   8   6  -7   58.74   17.02
   8  -6  -7   80.64   17.47
   6  -8  -7   68.50    9.37
  -8  -6  -7   59.59   18.12
  -6  -8  -7   73.50   12.78
  -6   8  -7   75.58   21.03
   6   8   7   53.89   17.16
   8   6   7   57.53   12.92
   6   8  -7   66.47   16.76
  -8   6  -8  538.56   27.35
  -6  -8  -8  530.84   27.86
  -8  -6  -8  601.07   69.39
  -8  -6   8  544.46   25.59
  -6  -8   8  549.41   25.52
  -8   6   8  497.96   26.70
  -6   8   8  521.55   30.82
   6  -8   8  553.40   30.47
   8   6  -8  470.58   25.03
   8  -6  -8  552.39   28.88
   6  -8  -8  519.58   39.17
  -8  -6  -8  545.07   23.81
  -6  -8  -8  562.74   25.69
  -6   8  -8  476.28   26.00
   6   8   8  518.90   22.29
   8   6   8  546.92   21.01
   6   8  -8  589.51   28.11
  -8   6  -9  585.86   29.51
  -6  -8  -9  590.21   25.72
  -6  -8   9  584.49   38.17
  -8   6   9  612.69   24.01
  -6   8   9  570.58   21.24
   6  -8   9  559.73   16.27
   6   8  -9  574.95   19.78
   8   6  -9  572.79   21.95
   8  -6  -9  608.02   19.28
   6  -8  -9  592.96   24.45
  -8  -6  -9  587.15   17.29
  -6  -8  -9  563.70   18.56
  -6   8  -9  575.03   24.48
   6   8   9  541.79   12.91
   6   8  -9  628.92   21.24
  -8   6 -10    7.30    4.68
  -6  -8 -10   -0.77    6.25
  -8  -6 -10    1.26    6.64
  -8  -6  10    3.52    5.95
  -6  -8  10    0.44    7.32
  -8   6  10    5.84    3.86
  -6   8  10    3.67    3.56
   6  -8  10    3.70    2.42
  -8   6 -10   -0.27    3.02
   6   8 -10    5.70    4.84
   8   6 -10    6.58    6.34
   8  -6 -10    9.63    4.28
  -8  -6 -10    0.31    3.98
   6  -8 -10    7.76    6.08
  -6  -8 -10    4.77    7.91
  -6   8 -10    3.29    4.71
   6   8 -10    7.79    8.06
  -8   6 -11   24.20    5.71
  -6  -8 -11   28.59    8.93
  -8  -6 -11   28.40    7.73
  -8  -6  11   20.61    7.38
  -6  -8  11   23.40    9.18
  -8   6  11   24.40    6.25
  -6   8  11   18.00    6.23
   6  -8  11   22.34    9.66
  -8   6 -11   24.41    6.61
   6   8 -11   24.26    9.87
   8   6 -11   29.98   12.20
   8  -6 -11   17.69    8.53
  -8  -6 -11   14.82    9.42
   6  -8 -11   31.00    9.53
  -6  -8 -11   25.23   12.89
  -6   8 -11   17.48    7.32
   6   8 -11   18.02    7.39
  -6  -8 -12  262.41   38.34
  -8  -6 -12  281.73   52.50
  -8  -6  12  240.31   41.77
  -6  -8  12  221.84   50.82
  -8   6  12  233.75   21.69
  -6   8  12  285.63   14.22
   6  -8  12  262.87   19.74
   8  -6  12  199.46   24.82
  -6   8 -12  247.32   13.84
  -8   6 -12  291.16   12.81
   6   8 -12  265.95   45.83
   8   6 -12  236.48   50.91
  -8  -6 -12  252.45   27.35
   6  -8 -12  251.99   32.76
  -6  -8 -12  254.40   22.57
  -6   8 -12  245.74   15.17
   6   8 -12  297.41   38.28
  -6  -8 -13  277.34   49.82
  -8  -6 -13  263.03   46.00
  -8  -6  13  210.99   50.58
  -6  -8  13  253.38   60.19
  -8   6  13  284.59   41.88
  -6   8  13  252.24   21.09
   6  -8  13  254.65   13.70
   8  -6  13  252.84   35.57
   6   8 -13  272.14   28.68
  -8   6 -13  263.39   39.28
   8   6 -13  279.65   32.26
   8  -6 -13  283.05   23.63
  -8  -6 -13  293.71   14.67
   6  -8 -13  267.74   29.46
  -6  -8 -13  260.67   15.56
  -6   8 -13  244.55   17.64
   6   8 -13  273.21   38.23
  -6  -8 -14   29.57   11.64
  -8  -6 -14   27.00   12.60
  -8  -6  14   41.63   10.31
  -6  -8  14   59.45   16.72
  -8   6  14   56.82   18.05
  -6   8  14   37.82   15.88
   6  -8  14   36.01   10.56
   8  -6  14   34.91   12.93
  -6   8 -14   47.08   13.79
   6   8 -14   62.86   15.33
  -8   6 -14   39.66   13.40
   8   6 -14   55.54   13.80
   8  -6 -14   40.87   19.54
  -8  -6 -14   35.26   16.78
   6  -8 -14   42.17   16.37
  -6  -8 -14   54.06   17.97
   6   8 -14   68.69   20.71
  -6  -8 -15   33.26   14.52
  -8  -6 -15   45.61   12.87
  -8  -6  15   72.78   24.88
  -6  -8  15   35.09   17.13
  -8   6  15   32.50    8.33
  -6   8  15   40.11   13.18
   6  -8  15   28.94   15.75
   8  -6  15   30.85   13.70
  -6   8 -15   43.07   16.74
   6   8 -15   47.24   18.94
  -8   6 -15   45.87   12.75
   8   6 -15   44.87   12.66
   8  -6 -15   49.43   21.00
  -8  -6 -15   22.16   11.96
   6  -8 -15   32.49    8.20
  -6  -8 -15   28.71   12.28
   6   8 -15   38.18   13.69
  -6  -8 -16   20.60    7.63
  -8  -6 -16   29.10   11.91
  -8  -6  16   16.70    6.91
  -6  -8  16   28.67   13.55
  -8   6  16   25.63    9.61
  -6   8  16   23.89    7.89
   6  -8  16   19.57    9.88
   8  -6  16   26.57    9.18
  -6   8 -16   15.99    6.37
   6   8 -16   27.71    7.63
  -8   6 -16   27.38    7.69
   8   6 -16   16.82    8.48
   8  -6 -16   14.42   11.64
  -8  -6 -16   12.18    6.47
   6  -8 -16   19.27    8.08
  -6  -8 -16   22.26   12.69
   6   8 -16   16.68   13.55
  -6  -8 -17   11.85    7.48
  -8  -6 -17    7.48    5.65
  -8  -6  17    8.31    6.30
  -6  -8  17   15.68    8.94
  -8   6  17    3.53    6.43
  -6   8  17    8.02    7.52
   6  -8  17    3.47    5.38
   8  -6  17   12.32    8.39
  -6   8 -17   13.83    6.00
   6   8 -17   18.50    8.78
  -8   6 -17    2.69    3.39
   8   6 -17    5.30    5.67
   8  -6 -17    6.45    6.85
  -8  -6 -17    7.84    4.90
   6  -8 -17   12.06    9.47
  -6  -8 -17    5.16    6.22
   6   8 -17    7.11    4.73
   8   6 -17    3.88    8.77
  -8   7   0  521.36   22.48
  -7  -8   0  543.62   30.25
  -8  -7   0  543.89   27.56
   8  -7   0  533.51   24.47
   7  -8   0  525.11   24.63
   7   8   0  508.49   30.85
  -7  -8  -1  242.12   18.12
  -8  -7  -1  265.14   44.55
  -7  -8   1  243.84   15.03
  -8  -7   1  241.08   42.89
   8  -7  -1  222.56   18.04
   7  -8  -1  268.59   28.22
   8  -7   1  215.59   12.06
   7  -8   1  212.28   15.64
  -8  -7  -1  212.15   30.32
  -7  -8  -1  233.04   34.30
   7   8   1  257.87   30.07
   7   8  -1  241.32   27.18
  -7   8   2    5.80    1.29
  -7  -8  -2   11.88    7.91
  -8  -7  -2    8.88    7.20
  -7  -8   2   -0.38    5.96
  -8  -7   2   18.82    7.46
   8  -7  -2   15.25    4.49
   7  -8  -2   10.22    4.95
  -8  -7  -2    8.69    3.33
  -7  -8  -2   18.23    5.78
   8  -7   2    8.20    4.51
   7  -8   2   15.89    5.95
   7   8   2   15.81    6.52
   7   8  -2   16.20    6.65
   8   7   2   16.92    8.51
  -8   7  -3  198.70   12.52
  -7  -8  -3  224.43   16.43
  -8  -7  -3  201.87   43.09
  -8   7   3  204.89   11.15
  -8  -7   3  222.46   33.87
  -7  -8   3  237.83   32.34
   8  -7  -3  239.83   23.39
   7  -8  -3  229.71   21.03
  -8  -7  -3  211.02   13.04
  -7  -8  -3  181.38   38.25
  -7   8  -3  206.27   26.11
   7   8   3  250.34   30.49
   8   7   3  208.90   27.32
   7   8  -3  242.97   28.49
  -8   7  -4  278.33   20.15
  -7  -8  -4  296.99   17.78
  -8  -7  -4  322.11   21.67
  -7  -8   4  322.85   34.99
  -8  -7   4  341.97   34.11
  -8   7   4  306.95   14.99
   7  -8   4  283.16   13.53
   8  -7  -4  313.65   18.93
   7  -8  -4  286.68   23.55
  -8  -7  -4  319.86   17.69
  -7  -8  -4  304.02   18.21
  -7   8  -4  299.24   22.54
   7   8   4  296.68   28.05
   8   7   4  320.31   38.06
   7   8  -4  329.47   32.76
  -8   7  -5  501.28   19.78
  -7  -8  -5  558.79   24.10
  -8  -7  -5  519.76   23.47
  -8  -7   5  522.69   49.08
  -7  -8   5  541.74   36.03
  -8   7   5  477.99   22.02
  -7   8   5  544.58   18.94
   7  -8   5  526.59   18.49
   8  -7  -5  526.71   25.81
   7  -8  -5  502.11   31.49
  -8  -7  -5  491.47   20.22
  -7  -8  -5  538.29   22.55
  -7   8  -5  526.91   25.68
   7   8   5  510.68   22.24
   8   7   5  548.21   21.21
   7   8  -5  562.04   31.97
  -8   7  -6   29.55    6.00
  -7  -8  -6   28.32   11.47
  -8  -7  -6   34.82   11.57
  -7  -8   6   30.97    9.10
  -8  -7   6   33.28   11.94
  -8   7   6   35.11    6.03
  -7   8   6   39.38    6.55
   7  -8   6   27.05    7.13
   8  -7  -6   25.11    7.64
   7  -8  -6   42.84    9.98
  -8  -7  -6   34.91   11.69
  -7  -8  -6   29.24    8.68
  -7   8  -6   47.16   11.61
   7   8   6   42.14   10.27
   8   7   6   33.24    7.70
   7   8  -6   36.51    7.80
  -8   7  -7  310.66   24.51
  -7  -8  -7  384.43   51.52
  -8  -7  -7  342.96   19.61
  -8  -7   7  285.88   32.24
  -7  -8   7  354.86   19.27
  -8   7   7  290.23   20.73
  -7   8   7  293.65   21.55
   7  -8   7  338.95   14.66
   8  -7  -7  336.26   31.31
   7  -8  -7  341.96   42.67
  -8  -7  -7  332.06   16.95
  -7  -8  -7  301.61   15.24
  -7   8  -7  309.49   19.19
   7   8   7  355.78   16.07
   8   7   7  318.45   23.50
   7   8  -7  336.11   39.52
  -8   7  -8   53.45   15.75
  -7  -8  -8   53.66   18.91
  -8  -7  -8   91.54   22.82
  -8  -7   8   75.58   14.79
  -7  -8   8   71.53   17.92
  -8   7   8   73.50   15.78
  -7   8   8   65.65   12.05
   7  -8   8   49.11    9.62
   8  -7  -8   64.10   15.08
   7  -8  -8   56.76   11.36
  -8  -7  -8   56.65   18.73
  -7  -8  -8   32.30   18.60
  -7   8  -8   67.70   14.12
   7   8   8   42.80   15.09
   8   7   8   48.90   14.16
   7   8  -8   47.73   13.61
  -8   7  -9   31.94   10.12
  -7  -8  -9   45.35   16.83
  -8  -7  -9   35.30   10.56
  -8  -7   9   36.93   12.26
  -7  -8   9   56.67   15.50
  -8   7   9   36.88   17.41
  -7   8   9   41.69    7.33
   7  -8   9   35.07    9.92
   8   7  -9   49.87   17.90
   8  -7  -9   57.01   13.94
   7  -8  -9   58.60   19.79
  -8  -7  -9   36.80   13.97
  -7  -8  -9   22.14   10.07
  -7   8  -9   55.82   14.82
   7   8   9   39.29    8.17
   7   8  -9   35.92   13.95
  -7  -8 -10   38.33   14.44
  -8  -7 -10   33.24   12.99
  -8  -7  10   39.50    8.35
  -7  -8  10   37.50   12.43
  -8   7  10   26.40    5.82
  -7   8  10   31.54    8.14
   7  -8  10   31.42   10.36
   8  -7  10   29.33   10.59
   7   8 -10   32.05   13.58
   8   7 -10   42.55   10.66
   8  -7 -10   39.86   13.88
   7  -8 -10   36.55   10.30
  -8  -7 -10   25.74   10.85
  -7  -8 -10   25.10    9.09
  -7   8 -10   33.69    9.89
   7   8 -10   32.52   13.72
  -7  -8 -11  311.03   32.44
  -8  -7 -11  318.09   53.13
  -8  -7  11  259.16   55.34
  -7  -8  11  321.79   47.49
  -8   7  11  323.77   16.85
  -7   8  11  288.93   16.51
   7  -8  11  285.27   17.73
   8  -7  11  300.10   19.24
   7   8 -11  312.99   15.50
   8   7 -11  356.16   18.21
   8  -7 -11  298.94   18.85
   7  -8 -11  350.88   35.53
  -8  -7 -11  343.89   14.77
  -7  -8 -11  236.73   47.55
  -7   8 -11  301.78   24.71
   7   8 -11  315.32   49.34
  -7  -8 -12  178.48   39.73
  -8  -7 -12  200.75   33.34
  -8  -7  12  169.52   35.17
  -7  -8  12  153.10   41.47
  -8   7  12  179.23   38.70
  -7   8  12  186.48   20.18
   7  -8  12  169.79   25.78
   8  -7  12  198.22   18.37
  -8   7 -12  174.89   25.71
   7   8 -12  199.17   36.12
   8   7 -12  223.12   33.62
   8  -7 -12  179.01   34.39
   7  -8 -12  191.84   20.60
  -8  -7 -12  160.62   29.50
  -7  -8 -12  141.74   38.93
   7   8 -12  179.66   33.15
  -7  -8 -13   21.64    9.47
  -8  -7 -13   21.56    9.51
  -8  -7  13   16.26    7.85
  -7  -8  13   10.71    7.88
  -8   7  13   25.25    7.25
  -7   8  13   17.05    5.36
   7  -8  13   20.43    5.42
   8  -7  13   15.88    7.50
  -7   8 -13   18.14    8.31
  -8   7 -13   29.29    6.83
   7   8 -13   40.08   10.19
   8   7 -13   11.56    7.61
   8  -7 -13   24.38   14.54
   7  -8 -13   25.62    7.38
  -8  -7 -13   13.06   10.15
  -7  -8 -13   20.81   13.19
   7   8 -13   30.98   11.04
  -7  -8 -14   27.89   11.97
  -8  -7 -14   21.48   11.48
  -8  -7  14   30.08   14.12
  -7  -8  14   21.71   10.20
  -8   7  14   33.09    9.04
  -7   8  14   30.08   10.42
   7  -8  14   26.32    9.83
   8  -7  14   14.76   11.01
  -7   8 -14   29.90    9.72
  -8   7 -14   27.85    8.65
   7   8 -14   38.69   11.46
   8   7 -14   42.19   12.78
   8  -7 -14   27.81   11.50
   7  -8 -14   24.80   11.39
  -8  -7 -14   14.03    8.32
   7   8 -14   32.68   11.98
  -7  -8 -15   92.46   25.07
  -8  -7 -15  103.36   25.12
  -8  -7  15   83.92   25.46
  -7  -8  15   97.32   26.66
  -8   7  15   88.67   22.89
  -7   8  15   70.52   25.45
   7  -8  15   58.21   25.75
   8  -7  15   72.71   21.10
  -7   8 -15   89.79   25.88
  -8   7 -15   88.10   22.41
   7   8 -15   85.63   25.53
   8   7 -15   99.05   28.28
   8  -7 -15   68.67   38.08
   7  -8 -15   80.30   27.61
  -8  -7 -15   66.10   37.61
  -7  -8 -15   66.71   27.89
   8   7 -15   65.82   40.83
  -7  -8 -16   70.98   15.42
  -8  -7 -16   91.82   27.44
  -8  -7  16   76.76   34.51
  -7  -8  16  105.55   35.95
  -8   7  16  101.52   30.70
  -7   8  16   74.92   24.74
   7  -8  16   65.19   24.71
   8  -7  16  107.04   14.79
  -7   8 -16   87.60   27.85
  -8   7 -16   64.52   23.51
   7   8 -16   77.67   27.01
   8   7 -16  105.78   39.14
   8  -7 -16   63.75   37.70
   7  -8 -16   80.89   33.33
  -8  -7 -16   63.50   27.19
  -7  -8 -16   38.05   31.54
   7   8 -16  102.43   28.28
   8   7 -16   91.34   38.41
  -8  -8   0  135.34   23.08
   8  -8   0  146.19   14.80
   8   8   0  158.22   31.70
  -8  -8  -1  557.63   24.50
  -8  -8   1  586.84   25.24
   8  -8  -1  548.42   24.28
   8  -8   1  553.04   20.69
  -8  -8  -1  534.55   22.04
   8   8   1  584.08   29.48
   8   8  -1  557.77   49.74
  -8  -8  -2  455.31   22.87
  -8  -8   2  472.34   22.55
   8  -8  -2  422.57   25.34
  -8  -8  -2  404.50   17.10
   8  -8   2  431.40   16.93
   8   8   2  435.34   36.39
   8   8  -2  481.02   41.03
  -8  -8  -3  160.45   26.13
  -8  -8   3  204.17   21.00
   8  -8  -3  158.62   17.54
  -8  -8  -3  139.52   31.02
   8  -8   3  166.98   14.97
   8   8   3  178.26   23.90
  -8   8  -4    8.06    2.45
  -8  -8  -4   12.44    7.58
  -8   8   4    9.49    2.34
  -8  -8   4    7.86    6.86
   8  -8  -4    8.17    5.38
  -8  -8  -4    6.94    4.89
   8   8   4    4.14    3.84
  -8   8  -5   39.97    8.57
  -8  -8  -5   51.98   13.45
  -8  -8   5   52.14    8.54
  -8   8   5   49.33    8.26
   8  -8  -5   48.69   10.26
  -8  -8  -5   54.10   12.01
   8   8   5   58.98   15.46
  -8  -8  -6   44.58    8.12
  -8  -8   6   65.58   12.14
  -8   8   6   56.92    9.32
   8  -8  -6   44.03   12.88
  -8  -8  -6   31.89   10.97
   8   8   6   46.48   11.20
  -8  -8  -7  131.88   38.55
  -8  -8   7  102.07   26.57
  -8   8   7  123.73   19.41
   8  -8   7  108.31   18.50
   8  -8  -7  142.30   17.60
  -8  -8  -7  140.19   10.38
   8   8   7  115.56   16.05
  -8  -8  -8   46.74   16.03
  -8  -8   8   47.48   13.46
  -8   8   8   41.53    7.19
   8  -8   8   36.00   13.21
   8  -8  -8   46.11   12.74
  -8  -8  -8   33.27   13.24
   8   8   8   29.85   10.76
  -8  -8  -9  358.63   58.26
  -8  -8   9  341.17   50.80
  -8   8   9  360.20   16.32
   8  -8   9  332.80   23.08
   8  -8  -9  347.30   16.46
  -8  -8  -9  416.41   19.19
  -8  -8 -10    1.50    6.00
  -8  -8  10    8.50    9.21
  -8   8  10    5.20    4.63
   8  -8  10    5.17    3.97
   8   8 -10    7.02    6.85
   8  -8 -10    7.94    4.19
  -8  -8 -10   14.64    7.28
   8   8 -10   -0.69    3.49
  -8  -8 -11   12.82    8.29
  -8  -8  11   20.41    7.89
  -8   8  11   20.00    7.39
   8  -8  11   13.24    5.45
   8   8 -11   21.33    6.51
   8  -8 -11   18.83    6.70
  -8  -8 -11   25.22    9.53
   8   8 -11   16.22   12.97
  -8  -8 -12  139.01   27.58
  -8  -8  12  168.24   27.82
  -8   8  12  148.84   21.45
   8  -8  12  129.92   19.89
   8   8 -12  154.16   28.81
   8  -8 -12  174.36   18.81
  -8  -8 -12  117.30   31.84
   8   8 -12  153.06   40.88
  -8  -8 -13  351.94   43.19
  -8  -8  13  281.12   48.87
   8  -8  13  297.71   21.11
   8   8 -13  352.26   19.34
   8  -8 -13  357.84   31.13
  -8  -8 -13  336.85   19.11
   8   8 -13  358.17   56.25
  -8  -8 -14   22.43   11.51
  -8  -8  14   40.35   16.11
  -8   8  14   38.78   12.99
   8  -8  14   23.19   13.44
   8   8 -14   33.09   12.20
   8  -8 -14   52.41   13.50
  -8  -8 -14   33.78   14.33
   8   8 -14   30.85    9.11
  -8  -8 -15   25.36   11.02
  -8  -8  15   29.46   11.99
  -8   8  15   27.04   11.03
   8  -8  15   17.91   20.42
  -8   8 -15   60.62    9.80
   8   8 -15   15.78   11.34
   8  -8 -15   31.79   10.49
   8   8 -15   31.72   19.15
  -8  -8 -16    6.01    6.33
  -8  -8  16   12.88   12.51
  -8   8  16   11.94    6.55
   8  -8  16   10.75    4.49
  -8   8 -16    7.50    7.26
   8   8 -16   19.86    9.76
   8  -8 -16   14.40   11.75
  -8  -8 -16   12.35    7.35
   8   8 -16    5.14    5.17
   0  -9   0    4.53    3.89
  -9   0   0    2.85    4.99
   0   9   0    8.56    5.67
   0  -9  -1  311.85   12.60
   0  -9   1  322.42   13.39
  -9   0  -1  327.38   16.88
  -9   0   1  336.10   16.33
   0  -9  -1  338.50   17.24
   0   9   1  301.74   23.19
   0   9  -1  306.46   24.34
   0  -9  -2   86.46   11.92
  -9   0  -2   94.74   22.82
   0  -9   2   75.63   11.55
  -9   0   2  106.53   20.46
   9   0  -2   72.07    9.79
   0  -9  -2   96.57   17.64
   0   9   2   70.16   16.06
   0   9  -2   75.44   23.53
   0  -9  -3  478.66   19.39
  -9   0  -3  476.60   21.29
  -9   0   3  435.36   25.59
   0  -9   3  486.52   18.77
   9   0  -3  464.24   20.51
   0  -9  -3  549.89   53.35
   0   9   3  469.52   27.39
   0   9  -3  428.93   21.18
   0  -9  -4    1.35    1.90
  -9   0  -4   14.24    6.51
  -9   0   4   10.17    7.12
   0  -9   4    3.42    3.28
   9   0  -4    1.68    1.69
   0  -9  -4    1.27    5.76
   0   9   4    1.86    2.72
   0   9  -4    5.48    6.13
   0  -9  -5  654.41   25.67
  -9   0  -5  660.98   27.64
  -9   0   5  629.08   27.73
   0  -9   5  637.65   23.88
   9   0  -5  654.96   24.83
   0  -9  -5  598.02   28.59
   0   9   5  668.93   27.01
   0   9  -5  648.40   26.89
   0  -9  -6  301.86   26.14
  -9   0  -6  311.25   17.55
  -9   0   6  328.30   16.37
   0  -9   6  318.89   18.64
   9   0  -6  308.34   17.58
   0  -9  -6  313.30   36.83
   0   9   6  291.15   19.56
   0   9  -6  293.78   17.61
   0  -9  -7  971.86   43.42
  -9   0  -7 1014.44   58.33
  -9   0   7 1018.45   46.71
   0  -9   7 1053.50   48.88
   9   0  -7  992.80   47.06
   0  -9  -7  869.34   41.14
   0   9   7 1085.04   48.86
   0   9  -7 1018.86   46.80
   0  -9  -8   10.19    5.24
  -9   0  -8    4.85    5.12
  -9   0   8    8.32    7.91
   0  -9   8    4.11    3.47
   9   0  -8    5.47    4.51
  -9   0  -8    7.03    4.39
   0  -9  -8   20.41   10.17
   0   9   8    9.80    3.68
   0   9  -8   -3.09    4.90
   0  -9  -9  529.90   23.16
  -9   0  -9  501.39   27.69
  -9   0   9  516.54   22.40
   0  -9   9  539.99   23.99
   9   0  -9  557.06   27.07
  -9   0  -9  507.91   27.30
   0  -9  -9  479.87   35.35
   0   9   9  538.81   20.91
   0  -9 -10  135.93   20.54
  -9   0 -10  149.77   22.91
  -9   0  10  159.58   26.95
   0  -9  10  117.02   25.90
   0   9 -10  115.01   24.38
  -9   0 -10  117.77   20.02
   0  -9 -10  142.49   23.09
   0   9 -10  125.80   32.04
  -9   0 -11   83.51   17.72
  -9   0  11  100.44   25.23
   0  -9  11   87.91   19.24
   0   9  11   73.00   17.15
   0   9 -11   77.67   21.63
   9   0 -11   92.44   17.88
  -9   0 -11   74.65   17.57
   0  -9 -11   83.11   24.55
   0   9 -11   81.33   22.15
  -9   0 -12   32.82   10.53
  -9   0  12   23.11    8.68
   0  -9  12   19.23    6.73
   0   9  12   21.52    7.34
   0   9 -12   18.04    7.55
   9   0 -12   22.31    7.39
  -9   0 -12   18.76    5.69
   0  -9 -12   26.94    7.61
   0   9 -12   17.18    7.53
  -9   0 -13   22.30    6.20
  -9   0  13   17.70    9.17
   0  -9  13   37.66   10.52
   0   9  13   25.45    7.52
   0   9 -13   14.15    7.17
   9   0 -13   12.42    8.65
  -9   0 -13   20.37    5.55
   0  -9 -13   16.11    7.22
   0   9 -13    9.77    7.39
  -9   0 -14   39.06   10.58
  -9   0  14   30.10    8.13
   0  -9  14   23.74    7.85
   0   9 -14   30.33   11.83
   9   0 -14   37.56   10.15
   0  -9 -14   18.45   14.09
   0   9 -14   29.18   12.89
  -9   0 -15    3.46    4.89
  -9   0  15    8.64    4.78
   0  -9  15   -4.52    5.79
   0   9  15    8.44    6.72
   0   9 -15    7.58    5.05
   9   0 -15    8.87    3.33
  -9   0 -15    0.22    2.86
   0  -9 -15   13.67    9.59
   0   9 -15    2.86    3.55
  -9   0 -16    7.13    9.62
  -9   0  16   13.11   10.75
   0  -9  16    6.04    5.85
   0   9  16    3.33    4.21
   0   9 -16    8.43    5.37
   9   0 -16    5.91    3.94
  -9   0 -16   10.90    8.22
   0  -9 -16   11.41    6.84
   0   9 -16    7.57    5.36
  -9   0 -17   14.35    7.07
  -9   0  17    9.19    6.39
   0  -9  17    6.54    7.28
   0   9  17    1.82    5.93
   0   9 -17   17.29    9.26
   9   0 -17   10.87    8.69
   0  -9 -17    8.34    7.27
  -9   0 -18   15.00    9.15
  -9   0  18    9.83    7.91
   0  -9  18    4.49    6.06
   0   9  18    8.66    3.67
   0   9 -18   20.92    7.45
   9   0 -18   15.73    8.92
   0  -9 -18   12.46    6.97
   1  -9   0  144.52    8.60
  -9   1   0  162.86   19.16
  -9  -1   0  142.62   16.98
  -1   9   0  136.54    5.77
  -1   9   0  158.35   26.39
   1   9   0  168.06   24.65
   1  -9  -1  579.65   20.84
  -1  -9  -1  543.21   23.07
   1  -9   1  529.89   19.05
  -9   1  -1  565.39   23.56
  -9  -1  -1  590.49   24.80
  -1  -9   1  577.66   23.12
  -9   1   1  592.78   27.55
  -9  -1   1  573.57   24.40
   1  -9  -1  558.23   34.61
  -1  -9  -1  605.62   58.27
  -1   9   1  537.08   24.15
  -1   9  -1  619.46   30.64
   1   9   1  607.06   25.41
   1   9  -1  507.95   24.22
   1  -9  -2  109.85    8.71
  -1  -9  -2   97.63   10.86
  -9   1  -2   77.85    7.43
  -9  -1  -2  104.90   12.91
   1  -9   2   84.50    5.17
  -9   1   2  138.80   26.42
  -9  -1   2  103.44   18.80
   9  -1  -2   82.20    9.49
  -9   1   2  104.65    7.53
   1  -9  -2  157.02   25.91
  -1  -9  -2  118.25   12.91
  -1   9   2   84.41   21.28
  -1   9  -2  120.67   23.16
   1   9   2  129.05   20.01
   1   9  -2  116.16   25.87
   1  -9  -3   56.81    9.08
  -1  -9  -3   53.82   11.65
  -9   1  -3   49.82   12.11
  -9  -1  -3   60.82   16.33
  -9   1   3   71.91   13.48
  -9  -1   3   62.17   13.19
  -1  -9   3   84.57   10.97
   1  -9   3   59.62   10.64
   9   1  -3   56.91   10.82
   9  -1  -3   47.34    5.56
   1  -9  -3   70.00   18.75
  -1  -9  -3   56.82   12.36
  -1   9   3   44.44   13.42
   1   9   3   77.53   10.64
  -1   9  -3   72.62   17.45
   1   9  -3   45.11    9.84
   1  -9  -4  800.14   30.14
  -9   1  -4  831.39   33.26
  -9  -1  -4  753.95   36.35
  -9  -1   4  819.22   43.97
  -9   1   4  817.10   39.85
  -1  -9   4  774.22   32.74
   1  -9   4  813.76   29.99
   9   1  -4  783.41   30.33
   9  -1  -4  868.31   35.84
   1  -9  -4  791.24   32.17
  -1  -9  -4  784.65   32.56
  -1   9   4  809.92   35.98
   1   9   4  798.75   32.76
  -1   9  -4  741.38   30.97
   1   9  -4  821.30   44.35
   1  -9  -5  408.42   17.34
  -1  -9  -5  424.90   17.01
  -9   1  -5  398.55   22.17
  -9  -1  -5  394.25   19.35
  -9  -1   5  433.97   20.26
  -9   1   5  402.80   18.42
  -1  -9   5  454.31   26.62
   1  -9   5  427.59   17.33
   9   1  -5  429.37   21.20
   9  -1  -5  426.59   22.56
   1  -9  -5  416.73   28.26
  -1  -9  -5  422.44   33.91
  -1   9   5  444.09   26.43
   1   9   5  417.35   18.00
  -1   9  -5  424.87   25.57
   1   9  -5  432.41   21.48
   1  -9  -6    9.48    4.45
  -1  -9  -6   10.53    4.78
  -9   1  -6    6.62    5.82
  -9  -1  -6   18.83    6.97
  -9  -1   6   12.42    7.04
  -9   1   6   13.65    7.07
  -1  -9   6   12.41    6.61
   1  -9   6   12.24    4.84
   9   1  -6    8.01    4.78
   9  -1  -6    1.37    3.36
  -9  -1  -6    4.04    1.33
   1  -9  -6    8.89    5.64
  -1  -9  -6    1.70    4.80
  -1   9   6    5.27    4.04
   1   9   6   14.27    5.23
  -1   9  -6   15.44    9.55
   1   9  -6    6.39    4.34
  -1  -9  -7   14.32    5.96
  -9   1  -7    8.42    5.59
  -9  -1  -7   24.41    8.88
  -9  -1   7   10.49    5.37
  -9   1   7   25.53    7.94
  -1  -9   7   27.67    6.29
   1  -9   7   15.14    3.95
   9   1  -7   28.20    7.23
   9  -1  -7   18.40    5.17
  -9  -1  -7   15.89    4.25
   1  -9  -7   18.32    9.98
  -1  -9  -7   20.10    8.35
  -1   9   7   14.81    4.48
   1   9   7   19.69    5.42
  -1   9  -7   30.09    7.58
   1   9  -7   10.53    8.60
  -1  -9  -8  275.13   24.26
  -9   1  -8  296.13   19.95
  -9  -1  -8  295.01   19.04
  -9  -1   8  306.68   16.40
  -9   1   8  299.20   26.40
  -1  -9   8  351.35   18.11
   1  -9   8  328.75   28.84
  -1   9   8  278.24   15.95
  -9   1  -8  292.18   16.13
   9   1  -8  354.44   23.08
   9  -1  -8  307.87   29.22
  -9  -1  -8  318.68   19.19
   1  -9  -8  308.84   20.71
  -1  -9  -8  315.95   48.69
  -1   9   8  314.27   18.35
   1   9   8  380.66   34.46
  -1   9  -8  317.54   16.32
   1   9  -8  306.24   16.38
  -1  -9  -9   64.44   16.39
  -9   1  -9   68.48   16.49
  -9  -1  -9   68.27   12.75
  -9  -1   9   51.74   17.16
  -9   1   9   57.30   10.62
  -1  -9   9   51.65   13.39
   1  -9   9   47.22   14.32
  -1   9   9   52.81   18.43
  -9   1  -9   49.58    9.77
   9   1  -9   57.55   11.40
   9  -1  -9   60.95   15.91
  -9  -1  -9   44.11   12.45
   1  -9  -9   80.22   13.79
  -1  -9  -9   68.01   15.03
   1   9   9   63.05   13.58
  -1   9  -9   78.82   14.22
   1   9  -9   57.96   12.44
  -1  -9 -10   93.65   18.07
  -9   1 -10  112.73   31.55
  -9  -1 -10  125.40   26.58
  -9  -1  10  104.12   19.71
  -9   1  10  116.01   28.06
  -1  -9  10   82.29   20.70
   1  -9  10   83.53   21.46
  -1   9  10   74.75   15.88
  -1   9 -10   96.51   29.38
   1   9 -10   79.17   30.15
  -9   1 -10   89.68   17.63
   9   1 -10  150.18   24.52
  -9  -1 -10   91.07   19.48
   1  -9 -10  128.46   12.59
  -1  -9 -10   83.44   28.12
   1   9  10   75.19   21.74
  -1   9 -10  113.20   24.83
   1   9 -10  102.17   15.96
  -1  -9 -11  455.61   20.29
  -9   1 -11  434.50   27.44
  -9  -1 -11  379.51   34.01
  -9  -1  11  463.69   18.14
  -9   1  11  477.74   18.51
  -1  -9  11  424.99   17.68
   1  -9  11  507.81   16.42
  -1   9  11  465.62   19.04
  -1   9 -11  448.27   17.49
   1   9 -11  446.94   35.19
  -9   1 -11  505.55   29.82
   9   1 -11  532.22   41.65
   9  -1 -11  476.00   34.77
  -9  -1 -11  424.52   16.14
   1  -9 -11  408.95   47.37
  -1  -9 -11  479.37   23.24
  -1   9 -11  471.31   17.81
   1   9 -11  471.19   21.73
  -1  -9 -12  111.19   30.76
  -9   1 -12  105.70   21.03
  -9  -1 -12  107.92   20.80
  -9  -1  12  120.73   41.80
  -9   1  12   95.99   27.82
  -1  -9  12   99.72   26.43
   1  -9  12  116.78   28.85
  -1   9  12  104.36   24.22
  -1   9 -12  121.40   30.49
   1   9 -12  108.74   30.35
   9   1 -12  137.97   24.85
  -9   1 -12   93.68   16.51
   9  -1 -12  134.64   24.22
  -9  -1 -12   67.31   21.19
   1  -9 -12  113.46   33.34
  -1  -9 -12   91.30   30.99
  -1   9 -12  128.30   27.65
   1   9 -12  129.22   29.30
  -9   1 -13  154.62   21.18
  -9  -1 -13  168.77   32.08
  -9  -1  13  163.12   33.50
  -9   1  13  145.24   36.63
  -1  -9  13  170.89   17.87
   1  -9  13  157.49   19.24
  -1   9  13  136.42   32.35
   1   9  13  112.16   42.27
  -1   9 -13  163.11   28.97
   1   9 -13  148.68   41.52
   9   1 -13  218.84   33.03
  -9   1 -13  151.75   21.00
   9  -1 -13  176.52   28.37
  -9  -1 -13  144.08   19.75
   1  -9 -13  144.09   40.06
  -1  -9 -13  157.11   13.91
  -1   9 -13  198.28   38.34
   1   9 -13  161.07   39.49
  -9   1 -14  101.32   21.06
  -9  -1 -14  128.94   18.47
  -9  -1  14   84.54   24.69
  -9   1  14  108.33   24.32
  -1  -9  14   89.53   23.01
   1  -9  14   87.62   18.43
  -1   9  14   64.35   25.32
   1   9  14   68.60   28.86
  -1   9 -14   88.56   22.03
   1   9 -14   81.02   23.73
   9   1 -14  140.41   27.11
  -9   1 -14   98.71   22.42
   9  -1 -14  103.45   18.91
  -9  -1 -14   68.44   23.84
   1  -9 -14   91.79   37.25
  -1  -9 -14   95.93   14.44
  -1   9 -14  132.72   26.41
   1   9 -14   75.77   19.70
  -9   1 -15  137.83   38.45
  -9  -1 -15  171.51   37.34
  -9  -1  15  111.79   42.01
  -9   1  15  144.33   42.44
  -1  -9  15  137.29   26.13
   1  -9  15  135.16   41.06
  -1   9  15  157.34   33.88
   1   9  15  101.25   33.37
  -1   9 -15  123.96   34.98
   1   9 -15  128.46   35.30
   9   1 -15  213.95   40.93
  -9   1 -15  150.99   33.35
   9  -1 -15  174.54   24.97
  -9  -1 -15  119.70   27.83
   1  -9 -15  110.45   36.17
  -1  -9 -15  165.50   17.64
  -1   9 -15  126.68   24.51
   1   9 -15  141.45   35.91
  -9   1 -16   22.63    7.01
  -9  -1 -16   19.47    8.74
  -9  -1  16   10.84    9.65
  -9   1  16   16.42   10.48
  -1  -9  16    5.47    6.39
   1  -9  16   18.04   11.39
  -1   9  16    8.68    7.91
   1   9  16   10.67    7.62
  -1   9 -16    5.24    5.89
   1   9 -16   14.39    8.29
  -9   1 -16   10.70    5.13
   9   1 -16   17.92    7.92
   9  -1 -16   28.63    7.04
  -9  -1 -16   14.57    4.02
   1  -9 -16   14.72   10.50
  -1  -9 -16   13.05    7.29
  -1   9 -16   15.42    7.75
   1   9 -16   14.93    7.58
  -9   1 -17   94.25   27.93
  -9  -1 -17  103.28   30.22
  -9  -1  17   98.07   46.91
  -9   1  17   99.77   25.61
  -1  -9  17  140.23   18.57
   1  -9  17  121.01   29.25
  -1   9  17   77.47   36.33
   1   9  17   61.92   39.50
  -1   9 -17  117.19   28.20
   1   9 -17  121.58   32.97
   9   1 -17  151.39   34.48
   9  -1 -17  154.81   25.79
   1  -9 -17  102.99   35.54
  -1  -9 -17  115.92   38.31
  -9   1 -18    1.37    6.67
  -9  -1 -18   15.03    8.31
  -9  -1  18   15.18   13.73
  -9   1  18   14.36    7.13
  -1  -9  18    2.66    6.15
   1  -9  18    4.60    5.51
  -1   9  18   11.45   12.45
   1   9  18    6.80    5.50
  -1   9 -18    6.77    6.82
   1   9 -18    6.80    4.15
   9   1 -18    8.80    5.66
   9  -1 -18   11.52    7.48
   1  -9 -18   -1.57    4.96
  -1  -9 -18    8.77    6.24
  -9   2   0  536.92   23.35
  -9  -2   0  533.41   23.81
  -2   9   0  495.25   31.04
   2   9   0  527.67   23.35
  -9  -2  -1  796.44   42.62
  -9   2   1  843.62   33.05
  -9  -2   1  812.65   34.22
   9  -2  -1  696.77   23.97
   2  -9  -1  871.97   35.80
  -2  -9  -1  863.32   34.57
  -2   9   1  879.81   39.21
  -2   9  -1  663.66   28.96
   2   9   1  888.18   35.11
   2   9  -1  804.86   37.08
   2  -9   2   19.78    3.50
  -2  -9  -2   55.49   10.36
  -9   2  -2   32.13    8.71
  -9  -2  -2   42.13    9.93
   2  -9   2   31.78    4.87
  -2  -9   2   53.27   10.82
  -9   2   2   48.67   13.10
  -9  -2   2   40.78    8.49
  -2   9   2   23.82    4.51
  -9  -2  -2   11.41    4.19
   9  -2  -2   27.50    3.94
  -9  -2  -2   31.04    4.14
   2  -9  -2   70.92   14.32
  -2  -9  -2   26.16    6.47
  -2   9   2   42.88    8.31
  -2   9  -2   40.32   10.12
   2   9   2   44.09   13.54
   2   9  -2   56.60   11.76
  -2  -9  -3  877.52   33.99
  -9   2  -3  840.92   36.37
  -9  -2  -3  855.00   34.33
  -9   2   3  936.49   43.40
  -9  -2   3  842.78   34.10
  -2  -9   3  920.98   34.25
   2  -9   3  869.88   31.48
   9  -2  -3  818.12   29.49
   2  -9  -3  889.42   34.97
  -2  -9  -3  808.22   37.36
  -2   9   3  888.28   36.02
  -2   9  -3  836.27   35.00
   2   9   3  940.65   36.38
   2   9  -3  845.04   34.27
  -2  -9  -4  582.42   22.97
  -9   2  -4  532.99   22.53
  -9  -2  -4  509.37   22.94
  -9  -2   4  544.47   23.17
  -9   2   4  541.18   22.04
  -2  -9   4  490.00   24.14
   2  -9   4  518.15   19.97
  -2   9   4  539.24   22.34
   9   2  -4  533.47   19.65
   9  -2  -4  544.61   20.93
   2  -9  -4  522.42   21.89
  -2  -9  -4  514.84   23.51
  -2   9   4  551.27   29.05
  -2   9  -4  525.03   32.69
   2   9   4  474.73   21.60
   2   9  -4  522.13   22.90
  -2  -9  -5   35.24    9.29
  -9   2  -5   50.03   10.99
  -9  -2  -5   31.97    7.46
  -9  -2   5   51.00   14.99
  -9   2   5   36.41    9.93
  -2  -9   5   41.73    8.63
   2  -9   5   34.47    6.72
  -2   9   5   35.79    9.31
   9   2  -5   50.43    8.25
   9  -2  -5   36.37    7.40
  -9  -2  -5   33.79    7.04
   9  -2   5   25.49    3.37
   2  -9  -5   42.88   11.23
  -2  -9  -5   34.70   12.67
  -2   9   5   38.37    9.17
   2   9   5   41.46    9.46
  -2   9  -5   42.43   10.96
   2   9  -5   43.73   12.49
  -2  -9  -6   14.42    4.85
  -9   2  -6    4.21    4.81
  -9  -2  -6   16.50    6.59
  -9  -2   6   24.82    9.20
  -9   2   6   10.06    8.29
  -2  -9   6   12.55    6.04
   2  -9   6    8.81    4.50
  -2   9   6   11.64    3.73
   9   2  -6    9.63    3.87
   9  -2  -6    9.12    6.60
  -9  -2  -6    7.66    2.37
   2  -9  -6    9.20    5.86
  -2  -9  -6   15.79    6.08
  -2   9   6   13.97    6.94
   2   9   6   12.80    5.53
  -2   9  -6   13.05    7.94
   2   9  -6    9.64    6.16
  -2  -9  -7   96.22   21.52
  -9   2  -7   89.74   24.35
  -9  -2  -7  124.61   25.71
  -9  -2   7   87.80   20.49
  -9   2   7  100.21   24.08
  -2  -9   7  119.44   13.96
  -2   9   7   70.52   21.97
   9   2  -7  104.40   16.18
   9  -2  -7   86.65   16.05
  -9  -2  -7  103.58   12.24
   2  -9  -7  123.92   14.76
  -2  -9  -7   98.88   16.63
  -2   9   7   91.32   21.61
   2   9   7  125.15   20.69
  -2   9  -7  112.18   20.85
   2   9  -7  105.82   20.71
  -2  -9  -8  108.39   16.06
  -9   2  -8  106.52   28.79
  -9  -2  -8  103.09   29.21
  -9  -2   8   98.86   17.67
  -9   2   8  128.98   26.51
  -2  -9   8   91.01   23.41
   2  -9   8   76.48   13.89
  -2   9   8   67.84   21.89
  -9   2  -8   90.98   15.39
   9   2  -8  130.32   19.17
   9  -2  -8   94.44   20.87
  -9  -2  -8   74.29   14.70
   2  -9  -8   88.85   21.47
  -2  -9  -8   86.10   13.68
   2   9   8  121.35   18.21
  -2   9  -8   95.65   20.27
   2   9  -8   81.26   16.07
  -2  -9  -9   61.79   16.49
  -9   2  -9   69.85   14.08
  -9  -2  -9   82.66   17.97
  -9  -2   9   75.09   13.91
  -9   2   9   72.67   15.64
  -2  -9   9   62.50   16.97
   2  -9   9   59.89   11.39
  -2   9   9   48.72   14.78
  -9   2  -9   53.54    8.86
   9   2  -9   68.85   14.45
   9  -2  -9   61.38   13.28
  -9  -2  -9   49.32   13.40
   2  -9  -9   74.44   22.53
  -2  -9  -9   82.82   14.31
   2   9   9   59.99   12.67
  -2   9  -9   62.76   19.11
   2   9  -9   64.29   13.05
  -2  -9 -10  215.77   27.97
  -9   2 -10  177.05   26.81
  -9  -2 -10  154.84   20.95
  -9  -2  10  155.38   27.53
  -9   2  10  181.71   31.75
  -2  -9  10  152.18   29.60
   2  -9  10  188.39   22.80
  -2   9  10  163.70   26.49
   2   9 -10  164.31   32.54
  -9   2 -10  156.43   20.84
   9   2 -10  192.27   32.23
  -9  -2 -10  130.99   18.23
   2  -9 -10  158.29   43.01
  -2  -9 -10  153.93   30.48
   2   9  10  157.26   19.71
  -2   9 -10  150.94   31.89
   2   9 -10  161.14   24.74
  -2  -9 -11  103.73   24.17
  -9   2 -11   91.06   15.93
  -9  -2 -11  116.41   28.62
  -9  -2  11   90.30   13.24
  -9   2  11  118.72   27.80
  -2  -9  11  137.24   24.70
   2  -9  11   84.43   25.98
  -2   9  11   90.64   23.67
  -2   9 -11  118.85   26.79
   2   9 -11   82.25   17.67
  -9   2 -11   78.80   15.29
   9   2 -11  158.73   28.35
   9  -2 -11   72.09   23.07
  -9  -2 -11  104.21   12.72
   2  -9 -11  134.45   14.40
  -2  -9 -11   88.38   26.79
  -2   9 -11  111.55   27.98
   2   9 -11   86.38   23.88
  -2  -9 -12   43.78   12.22
  -9   2 -12   25.65    7.72
  -9  -2 -12   65.84   14.29
  -9  -2  12   44.71   15.71
  -9   2  12   56.30   17.37
  -2  -9  12   48.66   11.89
   2  -9  12   41.03   12.81
  -2   9  12   26.42   13.02
  -2   9 -12   41.58   14.45
   2   9 -12   29.11   14.55
  -9   2 -12   22.93    8.45
   9   2 -12   42.72   12.93
   9  -2 -12   34.71   11.50
  -9  -2 -12   33.14   10.71
   2  -9 -12   33.46   11.50
  -2  -9 -12   30.97   17.58
  -2   9 -12   52.49    9.65
   2   9 -12   31.40   10.35
  -2  -9 -13  157.40   18.52
  -9   2 -13  146.72   33.39
  -9  -2 -13  161.33   24.71
  -9  -2  13  148.63   42.04
  -9   2  13  144.05   32.95
  -2  -9  13  127.51   37.85
   2  -9  13   91.83   29.64
  -2   9  13   96.40   27.88
  -2   9 -13  135.89   37.08
   2   9 -13  121.79   38.73
  -9   2 -13  111.90   20.90
   9  -2 -13  121.75   22.19
  -9  -2 -13  115.78   24.54
   2  -9 -13  144.81   30.17
  -2  -9 -13  126.86   36.95
  -2   9 -13  137.42   24.50
   2   9 -13  129.75   26.88
  -2  -9 -14   29.23    8.50
  -9   2 -14   21.24   11.49
  -9  -2 -14   42.94   11.17
  -9  -2  14   24.71    7.70
  -9   2  14   26.69   11.78
  -2  -9  14   29.27    8.52
   2  -9  14   27.03   11.07
  -2   9  14   33.92   20.54
  -2   9 -14   32.69    9.22
   2   9 -14   15.16   12.11
  -9   2 -14   19.77    5.76
   9   2 -14   32.43    9.44
   9  -2 -14   27.03   10.83
  -9  -2 -14   19.55   13.72
   2  -9 -14   56.36   18.54
  -2  -9 -14   29.08   11.47
  -2   9 -14   49.28   10.31
   2   9 -14   36.23    9.09
  -9   2 -15  505.41   37.93
  -9  -2 -15  453.54   64.79
  -9  -2  15  565.97   32.21
  -9   2  15  570.85   32.55
  -2  -9  15  560.78   35.33
   2  -9  15  543.50   31.10
  -2   9  15  521.53   32.48
   2   9  15  532.73   30.25
  -2   9 -15  516.43   31.01
   2   9 -15  486.08   30.97
  -9   2 -15  483.75   34.52
   9   2 -15  597.60   35.06
   9  -2 -15  510.45   33.13
  -9  -2 -15  482.64   26.24
   2  -9 -15  447.06   60.10
  -2  -9 -15  490.04   31.10
  -2   9 -15  513.30   27.41
   2   9 -15  508.52   46.04
  -9   2 -16  178.54   44.39
  -9  -2 -16  198.48   39.85
  -9  -2  16  165.03   42.65
  -9   2  16  163.46   26.66
  -2  -9  16  194.12   19.53
   2  -9  16  183.26   18.59
  -2   9  16  159.38   29.85
   2   9  16  197.60   13.77
  -2   9 -16  199.10   31.27
   2   9 -16  176.48   41.42
   9   2 -16  230.10   29.28
   9  -2 -16  174.35   53.88
  -9  -2 -16  126.99   39.87
   2  -9 -16  173.23   31.44
  -2  -9 -16  165.20   56.76
   2   9 -16  180.13   33.00
  -9   2 -17  113.30   46.26
  -9  -2 -17  114.24   52.47
  -9  -2  17   95.84   37.63
  -9   2  17  139.11   29.04
  -2  -9  17  102.78   37.06
   2  -9  17  127.83   33.74
  -2   9  17   99.99   38.24
   2   9  17  141.99   30.04
  -2   9 -17  139.87   34.21
   2   9 -17  128.57   33.81
   9   2 -17  167.63   31.59
   9  -2 -17  146.14   26.64
  -9  -2 -17  117.85   29.96
   2  -9 -17  110.89   36.25
  -2  -9 -17  114.86   40.90
   2   9 -17  113.49   37.53
  -3  -9   0  188.88   10.42
  -9   3   0  208.72   13.92
  -9  -3   0  209.15   23.71
   9  -3   0  185.53    6.75
   3  -9   0  219.20   23.82
  -9  -3   0  218.71    9.44
  -3   9   0  196.98   14.77
   3   9   0  222.64   23.52
  -3  -9  -1   98.87    8.92
  -9   3  -1   84.71   20.92
  -9  -3  -1   54.48    6.69
  -3  -9   1   85.16   11.30
  -9   3   1   72.11   22.76
  -9  -3   1   77.54   13.98
   9  -3  -1   45.10    9.61
  -9  -3  -1   65.41    9.72
   3  -9  -1   80.01   21.56
  -3  -9  -1  104.83   16.15
  -3   9   1   76.25   18.70
  -3   9  -1   87.20   21.72
   3   9   1   87.10   18.39
   3   9  -1  100.89   17.09
  -3  -9  -2  445.31   18.95
  -9   3  -2  419.99   18.29
  -9  -3  -2  429.24   35.11
  -3  -9   2  390.14   16.88
  -9   3   2  380.72   20.19
  -9  -3   2  426.98   27.48
   9  -3  -2  422.00   16.01
  -9  -3  -2  412.31   15.79
   3  -9  -2  390.11   19.92
  -3  -9  -2  422.67   21.85
  -3   9   2  394.69   19.85
  -3   9  -2  403.21   24.60
   3   9   2  415.65   26.03
   3   9  -2  402.38   19.15
   3  -9   3  354.33   12.16
  -3  -9  -3  437.43   18.32
  -9   3  -3  394.55   24.98
  -9  -3  -3  405.74   38.50
  -9   3   3  390.23   18.36
   3  -9   3  361.21   11.75
  -9  -3   3  429.11   55.24
  -3  -9   3  393.76   17.44
  -3   9   3  340.14   11.01
   9  -3  -3  390.62   16.45
  -9  -3  -3  367.14   13.55
   3  -9  -3  378.66   30.09
  -3  -9  -3  394.46   40.32
  -3   9   3  412.78   22.07
  -3   9  -3  409.95   24.35
   3   9   3  387.69   17.11
   3   9  -3  392.42   18.61
  -3  -9  -4   14.32    6.98
  -9   3  -4   16.26    5.19
  -9  -3  -4   27.48    7.35
  -9  -3   4   13.89    7.40
  -9   3   4   15.47    5.34
  -3  -9   4   16.67    4.42
   3  -9   4   15.92    3.13
   9   3  -4   18.68    5.52
   9  -3  -4   12.93    3.80
   9  -3   4    7.53    1.59
   3  -9  -4   10.85    5.05
  -3  -9  -4   12.53    9.96
  -3   9   4   18.57    5.42
  -3   9  -4    7.35    3.85
   3   9   4   14.91    6.10
   3   9  -4    8.93    5.91
  -3  -9  -5  463.04   22.32
  -9   3  -5  450.28   19.15
  -9  -3  -5  461.48   33.74
  -9  -3   5  422.05   20.25
  -9   3   5  418.83   17.81
  -3  -9   5  465.68   40.28
   3  -9   5  435.82   16.61
  -3   9   5  425.30   20.25
   9   3  -5  425.15   17.62
   9  -3  -5  453.47   20.68
  -9  -3  -5  424.78   16.01
   3  -9  -5  421.08   26.35
  -3  -9  -5  493.62   57.79
  -3   9   5  434.97   25.52
  -3   9  -5  447.74   20.84
   3   9   5  433.63   18.47
   3   9  -5  441.79   21.68
  -3  -9  -6    6.17    3.88
  -9   3  -6   14.26    6.83
  -9  -3  -6   12.77    7.36
  -9  -3   6    6.74    4.59
  -9   3   6    7.48    4.42
  -3  -9   6   13.07    4.16
   3  -9   6    6.17    3.91
  -3   9   6    6.21    3.78
   9   3  -6   13.02    5.90
   9  -3  -6    2.86    2.97
  -9  -3  -6    4.33    3.54
   3  -9  -6   13.66    5.91
  -3  -9  -6   18.87    8.07
  -3   9   6    8.24    3.91
  -3   9  -6   10.42    6.19
   3   9   6   10.60    7.22
   3   9  -6    6.36    4.28
  -3  -9  -7  297.19   16.47
  -9   3  -7  319.42   20.29
  -9  -3  -7  299.40   29.40
  -9  -3   7  272.97   37.16
  -9   3   7  299.52   16.94
  -3  -9   7  310.89   28.94
   3  -9   7  313.00   19.95
  -3   9   7  290.73   21.54
  -9   3  -7  268.08   20.26
   9   3  -7  283.58   18.10
   9  -3  -7  297.55   20.17
  -9  -3  -7  277.27   22.51
   3  -9  -7  288.04   18.15
  -3  -9  -7  315.88   38.14
   3   9   7  320.06   18.15
  -3   9  -7  292.95   19.73
   3   9  -7  293.69   18.50
  -3  -9  -8   14.01    4.58
  -9   3  -8   17.11    5.92
  -9  -3  -8    9.26    6.83
  -9  -3   8    4.39    6.01
  -9   3   8   15.58    5.93
  -3  -9   8   10.57    5.26
   3  -9   8    7.84    6.12
  -3   9   8    5.40    4.71
  -9   3  -8    6.59    2.56
   9   3  -8   10.86    6.57
   9  -3  -8    4.41    2.68
  -9  -3  -8    5.27    2.84
   3  -9  -8   10.13    9.66
  -3  -9  -8   12.04    7.30
   3   9   8   14.92    5.71
  -3   9  -8   12.38    5.62
   3   9  -8   15.77    6.18
  -3  -9  -9  621.86   27.09
  -9   3  -9  627.95   29.80
  -9  -3  -9  615.47   30.33
  -9  -3   9  615.47   27.51
  -9   3   9  581.13   30.59
  -3  -9   9  657.19   52.31
   3  -9   9  651.90   31.33
  -3   9   9  602.80   26.02
  -9   3  -9  554.05   26.81
   9   3  -9  626.91   30.43
   9  -3  -9  630.41   38.18
  -9  -3  -9  604.19   23.53
   3  -9  -9  548.38   45.49
  -3  -9  -9  586.77   27.80
   3   9   9  612.09   25.23
  -3   9  -9  594.60   33.15
   3   9  -9  588.36   25.69
  -3  -9 -10  174.44   27.40
  -9   3 -10  174.18   29.88
  -9  -3 -10  173.35   33.41
  -9  -3  10  138.64   39.75
  -9   3  10  192.07   41.57
  -3  -9  10  198.72   33.93
   3  -9  10  170.00   20.27
  -3   9  10  162.26   23.67
   3   9 -10  140.68   20.41
  -9   3 -10  137.30   21.34
   9   3 -10  221.09   36.92
  -9  -3 -10  161.00   23.27
   3  -9 -10  176.31   38.98
  -3  -9 -10  140.22   32.33
   3   9  10  171.27   23.70
  -3   9 -10  230.31   32.88
   3   9 -10  185.16   36.65
  -3  -9 -11   67.96   18.52
  -9   3 -11   78.76   16.26
  -9  -3 -11   73.01   13.52
  -9  -3  11   75.42   15.74
  -9   3  11   67.03   24.16
  -3  -9  11   70.14   18.95
   3  -9  11   53.43   17.22
  -3   9  11   55.56   14.39
  -3   9 -11   61.00   15.61
   3   9 -11   57.37   15.98
  -9   3 -11   50.78   14.80
   9   3 -11   82.22   15.26
   9  -3 -11   58.97   15.21
  -9  -3 -11   45.98   19.73
   3  -9 -11   75.77   18.96
  -3  -9 -11   42.63   13.69
  -3   9 -11   69.57   17.73
   3   9 -11   59.93   15.62
  -3  -9 -12   20.51    7.26
  -9   3 -12   35.02   12.65
  -9  -3 -12   41.59   13.15
  -9  -3  12   30.64    9.08
  -9   3  12   25.26    7.11
  -3  -9  12   27.07    9.17
   3  -9  12   33.00   12.78
  -3   9  12   25.54    9.95
  -3   9 -12   17.50    5.64
   3   9 -12   38.04   10.66
  -9   3 -12   35.11    7.23
   9   3 -12   23.70    7.45
   9  -3 -12   28.38   13.84
  -9  -3 -12   21.10    6.73
   3  -9 -12   29.78    9.70
  -3  -9 -12   31.97    9.15
  -3   9 -12   11.84    3.13
   3   9 -12   22.64    9.79
  -3  -9 -13   46.99   12.27
  -9   3 -13   55.48   11.16
  -9  -3 -13   60.48   16.38
  -9  -3  13   45.28   11.72
  -9   3  13   50.31   22.92
  -3  -9  13   33.91   12.97
   3  -9  13   38.27   13.46
  -3   9  13   33.80   12.76
  -3   9 -13   49.28   15.55
   3   9 -13   58.04   17.28
  -9   3 -13   40.48    7.21
   9   3 -13   66.36   11.70
   9  -3 -13   43.74    8.52
  -9  -3 -13   22.28   15.15
   3  -9 -13   43.31   11.24
  -3  -9 -13   39.27   12.17
  -3   9 -13   47.79   10.42
   3   9 -13   40.56   14.08
  -3  -9 -14  241.70   38.69
  -9   3 -14  287.71   16.82
  -9  -3 -14  210.17   37.98
  -9  -3  14  216.19   52.79
  -9   3  14  203.86   24.40
  -3  -9  14  188.18   45.45
   3  -9  14  221.72   22.98
  -3   9  14  258.95   17.03
  -3   9 -14  197.33   42.49
   3   9 -14  241.15   46.60
  -9   3 -14  223.41   27.70
   9   3 -14  238.29   35.88
   9  -3 -14  220.80   32.76
  -9  -3 -14  181.57   29.33
  -3  -9 -14  269.69   45.30
  -3   9 -14  187.41   30.83
   3   9 -14  246.38   50.58
  -3  -9 -15    5.68    3.33
  -9   3 -15    9.29    6.94
  -9  -3 -15   18.72   10.70
  -9  -3  15    7.74    3.93
  -9   3  15    6.85    7.64
  -3  -9  15    6.81    3.84
   3  -9  15    2.04    4.41
  -3   9  15    4.33    5.16
  -3   9 -15    4.84    6.67
   3   9 -15   11.75    8.29
  -9   3 -15    6.93    4.50
   9   3 -15    7.01    6.98
   9  -3 -15    2.49    4.27
  -9  -3 -15   18.86    8.09
   3  -9 -15    1.71    4.86
  -3  -9 -15    9.31    7.62
   3   9 -15    7.10    6.25
  -9   3 -16   45.39   17.64
  -9  -3 -16   36.25   11.91
  -9  -3  16   26.39    9.54
  -9   3  16   21.86    7.59
  -3  -9  16   16.00    9.22
   3  -9  16   25.81    9.49
  -3   9  16   23.01    7.71
  -3   9 -16   35.79    6.44
   3   9 -16   22.42   11.26
   9   3 -16   35.94    8.62
   9  -3 -16   34.58   14.24
  -9  -3 -16   16.04    9.23
   3  -9 -16   27.43   15.38
  -3  -9 -16   28.55   14.62
   3   9 -16   18.30    7.82
  -9  -3 -17   11.75   11.76
  -9  -3  17   18.99   12.47
  -9   3  17   21.68   13.13
  -3  -9  17    8.97    5.88
   3  -9  17    2.62    6.32
  -3   9  17    4.58    3.15
   3   9  17   18.73   12.07
   9  -3  17   12.81   11.18
  -3   9 -17   12.22    9.57
   3   9 -17   18.34   10.08
   9   3 -17   15.04    8.44
   9  -3 -17   10.99   11.07
   3  -9 -17   17.13    8.11
  -3  -9 -17   15.93    7.53
   3   9 -17   11.67    6.54
  -9   4   0   81.37   15.51
  -4  -9   0   90.34   12.27
  -9  -4   0   89.81   10.20
   9  -4   0   60.77   10.27
   4  -9   0   81.27    9.01
  -4   9   0   78.39   16.70
   4   9   0   98.04   17.27
  -9   4  -1  101.68   12.92
  -4  -9  -1  100.26   18.49
  -9  -4  -1   85.48    9.78
  -9   4   1  120.51   18.93
  -9  -4   1  127.60   19.28
   9  -4  -1   84.36   10.81
  -9  -4  -1   82.99    8.50
   4  -9  -1   79.12    7.80
  -4  -9  -1  102.38   17.88
  -4   9   1   86.86   24.11
  -4   9  -1   99.81   17.89
   4   9   1   85.40   15.36
  -9   4  -2   73.54   18.27
  -4  -9  -2   60.25   18.90
  -9  -4  -2  106.64   25.15
  -9   4   2   89.32   18.94
  -4  -9   2   99.15   21.32
  -9  -4   2   70.04   16.08
   9  -4  -2   68.21   10.85
   9  -4   2   70.05    5.83
  -9  -4  -2  100.02    8.87
   4  -9  -2   85.28    9.58
  -4  -9  -2   72.32   14.37
  -4   9   2   74.96   18.48
  -4   9  -2   93.58   27.04
   4   9   2  104.34   21.42
   4   9  -2   76.25   14.48
  -9   4  -3  372.90   16.05
  -4  -9  -3  397.43   22.33
  -9  -4  -3  377.64   26.03
  -9   4   3  415.31   19.41
  -4  -9   3  420.57   17.94
  -9  -4   3  401.83   26.48
   9  -4  -3  389.49   15.91
  -9  -4  -3  365.19   14.09
   4  -9  -3  379.15   20.96
   9  -4   3  349.47   11.93
  -4  -9  -3  400.29   53.94
  -4   9   3  399.08   24.41
  -4   9  -3  368.04   29.31
   4   9   3  414.24   21.31
   4   9  -3  412.69   25.10
  -9   4  -4  121.62   23.83
  -4  -9  -4  128.97   20.79
  -9  -4  -4  123.02   30.71
  -9  -4   4  151.89   29.09
  -4  -9   4  131.42   17.11
  -9   4   4  127.15   17.76
   4  -9   4  116.45    7.40
  -4   9   4  103.70    9.71
   9  -4  -4  130.31   21.99
  -9  -4  -4  119.97   10.37
   4  -9  -4  148.69   20.61
  -4  -9  -4  118.94   27.92
  -4   9   4  146.07   28.55
  -4   9  -4  117.42   18.77
   4   9   4  124.19   18.29
   4   9  -4  139.42   24.71
  -9   4  -5   84.17   16.64
  -4  -9  -5   96.28   22.26
  -9  -4  -5   90.44   24.57
  -9  -4   5   84.48   23.60
  -4  -9   5   95.27   19.76
  -9   4   5   85.54   16.52
   4  -9   5   85.87    9.29
   9   4  -5   64.87   16.06
   9  -4  -5   85.80   15.04
  -9  -4  -5   68.05    6.88
   4  -9  -5   88.90   24.54
  -4  -9  -5  114.10   23.00
  -4   9   5  111.32   26.62
  -4   9  -5   92.00   22.22
   4   9   5   80.59   15.43
   4   9  -5  102.95   17.95
  -9   4  -6 1273.13   56.65
  -4  -9  -6 1278.23   56.89
  -9  -4  -6 1409.47   63.70
  -9  -4   6 1264.00   56.17
  -4  -9   6 1336.34   58.32
  -9   4   6 1343.46   62.75
   4  -9   6 1280.60   54.49
  -4   9   6 1260.04   54.09
   9   4  -6 1367.85   60.76
   9  -4  -6 1388.73   59.29
  -9  -4  -6 1324.38   57.08
   4  -9  -6 1409.11   61.75
  -4  -9  -6 1341.63   60.84
  -4   9  -6 1454.56   67.89
   4   9   6 1419.79   60.75
   4   9  -6 1271.73   56.54
  -9   4  -7  165.69   26.05
  -4  -9  -7  144.56   24.02
  -9  -4  -7  139.02   41.72
  -9  -4   7  143.62   39.12
  -4  -9   7  178.11   28.81
  -9   4   7  170.86   33.01
   4  -9   7  132.32   13.60
  -4   9   7  129.84   13.99
   9   4  -7  163.88   29.04
   9  -4  -7  124.09   26.38
  -9  -4  -7  142.11   11.84
   4  -9  -7  121.24   12.51
  -4  -9  -7  164.24   19.91
  -4   9  -7  163.82   24.79
   4   9   7  157.66   11.00
   4   9  -7  138.86   34.35
  -9   4  -8    7.13    4.46
  -4  -9  -8   15.02    7.09
  -9  -4  -8    4.07    5.73
  -9  -4   8   13.49    7.99
  -4  -9   8    4.72    5.77
  -9   4   8   12.48    5.40
   4  -9   8    2.36    2.96
  -4   9   8    5.54    3.71
   9   4  -8    6.52    3.51
   9  -4  -8    3.42    3.46
  -9  -4  -8    3.28    1.98
   4  -9  -8    5.36    6.18
  -4  -9  -8   11.47    7.52
  -4   9  -8   10.38    6.79
   4   9   8   13.44    6.42
   4   9  -8    4.95    4.91
  -9   4  -9  203.09   35.24
  -4  -9  -9  191.73   26.57
  -9  -4  -9  195.21   40.86
  -9  -4   9  214.42   29.92
  -4  -9   9  207.59   19.59
  -9   4   9  224.00   25.40
   4  -9   9  196.28   12.62
  -4   9   9  202.82   17.43
  -9   4  -9  179.03   12.66
   9   4  -9  203.37   30.91
   9  -4  -9  190.16   22.52
  -9  -4  -9  205.63   19.60
   4  -9  -9  209.41   23.53
  -4  -9  -9  191.01   28.25
   4   9   9  205.71   18.03
  -4   9  -9  193.80   28.49
   4   9  -9  234.01   29.53
  -9   4 -10  806.82   35.28
  -4  -9 -10  752.86   39.38
  -9  -4 -10  753.21   38.57
  -9  -4  10  802.45   34.28
  -4  -9  10  759.85   30.87
  -9   4  10  823.49   36.72
   4  -9  10  855.62   31.57
  -4   9  10  834.88   34.32
   4   9 -10  775.17   39.99
  -9   4 -10  746.00   29.53
   9   4 -10  784.91   37.52
   9  -4 -10  802.46   40.11
  -9  -4 -10  738.34   27.63
   4  -9 -10  788.14   40.04
  -4  -9 -10  733.67   32.80
   4   9  10  774.24   28.52
  -4   9 -10  763.33   41.31
   4   9 -10  822.25   37.20
  -9   4 -11   76.75   19.03
  -4  -9 -11   68.31   19.63
  -9  -4 -11   86.52   21.32
  -9  -4  11   72.09   22.89
  -4  -9  11   56.75   18.78
  -9   4  11   64.25   23.06
   4  -9  11   51.71   13.74
  -4   9  11   57.45   17.12
   4   9 -11   59.36   16.61
  -9   4 -11   53.80   13.55
   9   4 -11   67.56   15.19
   9  -4 -11   54.95   17.20
  -9  -4 -11   54.46   21.09
   4  -9 -11   53.32   11.09
  -4  -9 -11   58.63   15.39
  -4   9 -11   67.69   20.74
   4   9 -11   65.20   13.90
  -9   4 -12   10.35    6.35
  -4  -9 -12    7.51    8.92
  -9  -4 -12   16.28    7.53
  -9  -4  12   10.15   13.39
  -4  -9  12    4.07    6.30
  -9   4  12   12.79    6.16
   4  -9  12    4.69    5.76
  -4   9  12   13.56    6.67
  -4   9 -12    4.76    6.02
   4   9 -12    6.04    6.93
  -9   4 -12    2.85    1.63
   9  -4 -12    8.79    3.87
  -9  -4 -12    1.49    2.78
   4  -9 -12   17.11    9.26
  -4  -9 -12    7.55    9.53
  -4   9 -12    9.52    4.49
   4   9 -12    5.49    6.45
  -9   4 -13   58.55   14.13
  -4  -9 -13   58.43   15.89
  -9  -4 -13   55.06   17.99
  -9  -4  13   51.35   13.06
  -4  -9  13   55.66   21.52
  -9   4  13   56.51   11.10
   4  -9  13   39.43   11.59
  -4   9  13   41.89   14.18
  -4   9 -13   49.42   13.28
  -9   4 -13   37.85   11.31
   9   4 -13   62.88   16.09
   9  -4 -13   54.28   12.04
  -9  -4 -13   32.68   16.68
   4  -9 -13   81.23   12.83
  -4  -9 -13   53.98   10.84
  -4   9 -13   66.13   17.37
   4   9 -13   59.17   12.35
  -9   4 -14   48.90   11.39
  -4  -9 -14   60.52   17.54
  -9  -4 -14   83.34   22.89
  -9  -4  14   53.66   16.13
  -4  -9  14   46.93   17.34
  -9   4  14   74.28   22.52
   4  -9  14   54.73   15.35
  -4   9  14   46.26   15.81
  -4   9 -14   50.81   18.75
   4   9 -14   47.93   12.00
  -9   4 -14   48.96   10.84
   9   4 -14   66.68   16.01
   9  -4 -14   54.48   15.08
  -9  -4 -14  111.34   16.56
   4  -9 -14   55.18   19.07
  -4  -9 -14   66.89   16.57
  -4   9 -14   71.02   17.78
   4   9 -14   51.37   12.65
  -9   4 -15   32.08   11.61
  -4  -9 -15   12.14    7.41
  -9  -4 -15   27.97    9.70
  -9  -4  15    7.86    7.45
  -4  -9  15   22.81   12.14
  -9   4  15   20.31    7.31
   4  -9  15   16.55    5.94
  -4   9  15   18.62    7.95
  -4   9 -15   12.68    7.31
   4   9 -15   29.06    9.26
   9   4 -15   28.29    9.22
   9  -4 -15   19.11    9.26
  -9  -4 -15   10.89    7.50
   4  -9 -15   13.91    8.27
  -4  -9 -15   22.84    9.73
   4   9 -15   34.17   18.11
  -4  -9 -16    2.85    5.88
  -9  -4 -16   16.91    7.80
  -9  -4  16   13.08    8.39
  -4  -9  16   -4.24    7.06
  -9   4  16    2.13    4.45
   4  -9  16    2.05    3.84
  -4   9  16    0.33    6.01
   9  -4  16   19.08    9.67
  -4   9 -16    3.96    6.22
   4   9 -16    6.73    5.87
   9   4 -16    9.97    6.00
   9  -4 -16   13.67    9.03
  -9  -4 -16    2.97    3.25
   4  -9 -16    2.56    6.12
  -4  -9 -16    7.81    7.45
   4   9 -16   -1.98    4.46
  -9  -4 -17   10.71    8.35
  -9  -4  17   13.08    8.77
  -4  -9  17    7.24    5.62
  -9   4  17    3.32    6.33
   4  -9  17   10.63    8.29
  -4   9  17    4.80    4.09
   9  -4  17    0.16    4.56
  -4   9 -17    3.70    5.02
   4   9 -17   11.59    7.83
   9   4 -17    4.53    3.45
   9  -4 -17   10.94    8.89
  -9  -4 -17    7.56    8.45
   4  -9 -17    8.85    6.00
  -4  -9 -17    1.60    6.83
   4   9 -17    6.42    8.35
  -9   5   0   33.84    7.82
  -5  -9   0   30.57    5.29
  -9  -5   0   30.42    9.24
   9  -5   0   23.27    5.51
   5  -9   0   36.26    8.43
  -5   9   0   47.39   11.84
   5   9   0   39.16   12.03
  -9   5  -1  354.49   15.21
  -5  -9  -1  386.56   17.47
  -9  -5  -1  321.67   17.51
  -9   5   1  332.27   14.79
  -5  -9   1  317.96   15.33
  -9  -5   1  368.25   20.76
   9  -5  -1  349.56   13.30
   9  -5   1  311.86   12.56
   5  -9  -1  368.50   33.47
  -9  -5  -1  320.61   14.36
   5  -9   1  395.33   26.81
  -5  -9  -1  382.15   45.21
  -5   9   1  375.73   42.70
  -5   9  -1  340.45   21.68
   5   9   1  330.50   16.32
   5   9  -1  377.07   30.55
  -9   5  -2  588.55   22.09
  -5  -9  -2  552.96   23.37
  -9  -5  -2  681.81   30.11
  -9   5   2  649.37   28.99
  -5  -9   2  655.93   25.44
  -9  -5   2  566.62   28.82
   9  -5  -2  617.12   21.86
   9  -5   2  636.57   21.40
   5  -9  -2  656.87   25.63
  -9  -5  -2  668.98   24.12
  -5  -9  -2  593.42   34.34
  -5   9   2  594.77   33.60
  -5   9  -2  709.92   36.87
   5   9   2  698.04   29.96
   5   9  -2  610.37   25.85
  -9   5  -3  624.90   28.19
  -5  -9  -3  615.78   29.07
  -9  -5  -3  648.38   57.95
  -9   5   3  639.03   30.73
  -5  -9   3  717.27   33.67
  -9  -5   3  666.85   33.25
   9  -5  -3  649.96   28.86
  -9  -5  -3  642.17   28.46
   5  -9  -3  634.25   30.29
  -5  -9  -3  652.22   31.66
   9  -5   3  596.81   25.34
  -5   9   3  600.57   48.67
  -5   9  -3  698.76   41.81
   5   9   3  660.96   30.88
   5   9  -3  656.54   32.53
  -9   5  -4   48.75   12.31
  -5  -9  -4   45.20   11.59
  -9  -5  -4   31.88   11.78
  -9  -5   4   54.52   11.56
  -5  -9   4   35.73    5.38
  -9   5   4   29.28    7.42
  -5   9   4   31.83    5.69
   5  -9   4   31.82    6.15
   9  -5  -4   49.13   11.20
  -9  -5  -4   22.55    5.24
   5  -9  -4   29.93    8.80
  -5  -9  -4   53.34   10.18
  -5   9  -4   32.63    9.07
   5   9   4   35.45    8.26
   5   9  -4   58.85   13.62
  -9   5  -5   11.40    4.05
  -5  -9  -5   11.57    5.10
  -9  -5  -5   47.07    9.22
  -9  -5   5    6.13    8.26
  -5  -9   5   23.34    6.40
  -9   5   5    8.24    4.41
   5  -9   5   10.37    2.67
   9  -5  -5   14.32    4.18
  -9  -5  -5   14.66    5.56
   5  -9  -5   18.89    7.88
  -5  -9  -5   18.61    8.42
  -5   9  -5   16.35    4.47
   5   9   5   18.44    5.84
   5   9  -5   13.54    8.20
  -9   5  -6  122.80   25.14
  -5  -9  -6  130.28   30.09
  -9  -5  -6  114.64   12.64
  -9  -5   6  136.21   25.68
  -5  -9   6  102.22   25.15
  -9   5   6  134.82   25.60
  -5   9   6  111.88   13.24
   5  -9   6  111.09    6.38
   9  -5  -6  124.76   21.92
  -9  -5  -6  102.43   14.88
   5  -9  -6  113.81   10.45
  -5  -9  -6  132.59   34.13
  -5   9  -6  101.36   21.72
   5   9   6  107.10   22.33
   5   9  -6  133.55   24.32
  -9   5  -7   79.39   17.48
  -5  -9  -7   78.82   23.14
  -9  -5  -7   57.61   13.85
  -9  -5   7   75.12   20.93
  -5  -9   7   49.33   16.76
  -9   5   7   60.62   12.40
  -5   9   7   62.76   11.19
   5  -9   7   54.58   13.55
   9   5  -7   44.86   15.72
   9  -5  -7   80.97   19.81
  -9  -5  -7   35.69    6.37
   5  -9  -7   48.63   10.65
  -5  -9  -7   63.96   16.40
  -5   9  -7   56.34   19.32
   5   9   7   46.91   12.60
   5   9  -7   74.55   14.26
   9   5   7   71.68   16.31
  -9   5  -8  112.97   18.53
  -5  -9  -8  107.54   29.58
  -9  -5  -8  144.67   39.51
  -9  -5   8  119.00   31.04
  -5  -9   8  157.77   34.31
  -9   5   8  135.69   17.33
  -5   9   8   87.13   21.44
   5  -9   8   86.56   18.31
   9   5  -8  142.90   22.77
   9  -5  -8  105.74   22.09
  -9  -5  -8  112.20   17.89
   5  -9  -8  129.65   18.15
  -5  -9  -8   83.39   21.83
  -5   9  -8  135.80   24.41
   5   9   8  156.44   25.94
   5   9  -8  102.13   19.20
   9   5   8  101.97   16.47
  -9   5  -9  174.16   20.30
  -5  -9  -9  203.37   39.78
  -9  -5  -9  103.19   34.49
  -9  -5   9  200.52   63.08
  -5  -9   9  156.86   28.14
  -9   5   9  126.86   25.74
  -5   9   9  153.49   23.78
   5  -9   9  179.54   17.58
   9   5  -9  126.70   29.47
   9  -5  -9  150.35   26.70
  -9  -5  -9  130.93   13.14
   5  -9  -9  152.83   22.21
  -5  -9  -9  161.05   34.12
  -5   9  -9  148.69   28.11
   5   9   9  151.36   25.49
   5   9  -9  182.15   36.69
  -9   5 -10  268.79   29.26
  -5  -9 -10  315.98   39.09
  -9  -5 -10  268.20   36.70
  -9  -5  10  263.81   22.46
  -5  -9  10  261.46   36.99
  -9   5  10  240.71   16.60
  -5   9  10  249.35   12.67
   5  -9  10  252.93   21.36
  -9   5 -10  234.75   16.06
   9   5 -10  287.28   50.80
   9  -5 -10  272.34   20.13
  -9  -5 -10  228.25   27.39
   5  -9 -10  262.88   28.41
  -5  -9 -10  222.15   23.87
  -5   9 -10  285.32   36.02
   5   9 -10  259.48   49.65
  -9   5 -11  106.48   25.20
  -5  -9 -11  105.39   27.41
  -9  -5 -11  117.99   21.74
  -9  -5  11   90.34   29.95
  -5  -9  11  117.54   12.15
  -9   5  11  101.31   25.49
  -5   9  11   69.00   19.06
   5  -9  11   68.91   21.78
   5   9 -11   93.87   37.35
  -9   5 -11   69.87   17.70
   9   5 -11  109.01   30.94
   9  -5 -11   88.89   21.04
  -9  -5 -11   89.45   17.48
   5  -9 -11  104.98   12.94
  -5  -9 -11   74.82   32.48
  -5   9 -11  129.83   28.04
   5   9 -11   75.81   20.97
  -9   5 -12  130.73   30.96
  -5  -9 -12  108.07   30.60
  -9  -5 -12  125.99   25.12
  -9  -5  12   92.98   33.93
  -5  -9  12  125.41   29.97
  -9   5  12  118.22   28.98
  -5   9  12  102.75   25.69
   5  -9  12  113.91   17.64
   5   9 -12  111.27   29.88
  -9   5 -12  106.48   24.86
   9   5 -12  148.60   30.90
   9  -5 -12  140.73   17.43
  -9  -5 -12   73.32   33.10
   5  -9 -12  132.50   16.62
  -5   9 -12  107.14   26.62
  -9   5 -13  127.37   28.41
  -5  -9 -13  124.05   39.13
  -9  -5 -13  176.02   42.17
  -9  -5  13  136.30   21.61
  -5  -9  13  131.08   41.34
  -9   5  13  142.85   26.14
  -5   9  13  110.51   32.81
   5  -9  13  126.40   20.14
  -5   9 -13  105.56   23.98
   5   9 -13  136.23   41.52
  -9   5 -13  110.74   25.04
   9   5 -13  157.88   35.70
   9  -5 -13  131.09   16.72
  -9  -5 -13  106.25   29.56
   5  -9 -13  169.92   16.24
  -5  -9 -13  129.54   25.95
  -5   9 -13  142.06   34.09
   5   9 -13  130.89   32.44
  -5  -9 -14   55.08   23.04
  -9  -5 -14   88.03   25.68
  -9  -5  14   52.66   12.87
  -5  -9  14   55.48   20.68
  -9   5  14   73.45   32.27
  -5   9  14   69.91   16.29
   5  -9  14   60.51   23.25
  -5   9 -14   78.16   25.23
   5   9 -14   55.28   14.69
   9   5 -14   76.19   18.26
   9  -5 -14   45.59   13.39
  -9  -5 -14   45.36   17.68
   5  -9 -14   63.76   22.89
  -5  -9 -14   42.14   18.40
  -5   9 -14   61.78   14.26
   5   9 -14   52.19   15.69
  -5  -9 -15  150.69   47.51
  -9  -5 -15  177.77   46.04
  -9  -5  15  166.72   37.86
  -5  -9  15  161.92   53.87
  -9   5  15  157.61   46.69
  -5   9  15  153.62   28.57
   5  -9  15  170.22   27.83
   9  -5  15  202.92   15.22
  -5   9 -15  177.86   45.15
   5   9 -15  158.55   45.83
   9   5 -15  171.17   39.33
   9  -5 -15  170.71   22.53
  -9  -5 -15  128.44   41.05
   5  -9 -15  174.60   45.85
  -5  -9 -15  119.25   51.68
   5   9 -15  138.77   47.63
  -5  -9 -16    5.00    3.34
  -9  -5 -16   27.44   11.35
  -9  -5  16   15.49    9.34
  -5  -9  16   15.50    7.55
  -9   5  16   16.66    4.41
  -5   9  16    9.02    7.87
   5  -9  16    7.50    7.69
   9  -5  16    7.71    7.01
  -5   9 -16   19.55   10.25
   5   9 -16   24.87   13.63
   9   5 -16   30.45    9.95
   9  -5 -16    8.35    9.67
  -9  -5 -16   16.88    6.61
   5  -9 -16   17.30    9.70
  -5  -9 -16   14.31   11.60
   5   9 -16   11.11    9.31
  -5  -9 -17   39.47   17.69
  -9  -5 -17   44.03   18.37
  -9  -5  17   50.88   16.24
  -5  -9  17   52.70   23.61
  -9   5  17   66.75   14.33
  -5   9  17   28.35   13.80
   5  -9  17   26.03    7.58
   9  -5  17   39.74   19.11
  -5   9 -17   51.54   20.14
   5   9 -17   47.04   15.98
   9   5 -17   58.88   23.07
   9  -5 -17   34.64    9.13
  -9  -5 -17   24.93   18.97
   5  -9 -17   38.57   25.33
  -5  -9 -17   30.33   11.27
   5   9 -17   38.06   14.10
  -9   6   0 1473.41   61.13
  -6  -9   0 1454.59   62.54
  -9  -6   0 1471.77   68.49
   9  -6   0 1473.85   61.01
   6  -9   0 1480.64   51.25
  -6   9   0 1514.87   52.31
   6   9   0 1588.07   53.44
  -9   6  -1  220.31   21.11
  -6  -9  -1  194.23   14.73
  -9   6   1  269.57   14.02
  -9  -6  -1  234.98   17.89
  -6  -9   1  251.82   39.72
  -9  -6   1  235.29   36.94
   9  -6  -1  217.12   20.95
   9  -6   1  214.36   18.49
   6  -9  -1  202.32   18.46
  -9  -6  -1  243.21   14.81
   6  -9   1  204.32   26.31
  -6  -9  -1  191.11   22.42
  -6   9   1  207.69   39.79
  -6   9  -1  213.69   38.50
   6   9   1  211.70   31.95
   6   9  -1  228.56   24.64
  -9   6  -2  194.45   20.07
  -6  -9  -2  205.56   14.67
  -9  -6  -2  212.72   19.72
  -9   6   2  200.04   23.98
  -6  -9   2  212.73   38.38
  -9  -6   2  210.67   35.73
   9  -6  -2  203.53   15.84
   6  -9  -2  219.81   18.80
   9  -6   2  191.80   10.00
  -9  -6  -2  182.43   19.66
  -6  -9  -2  194.06   37.16
  -6   9  -2  199.94   24.32
   6   9   2  192.29   27.88
   6   9  -2  219.05   28.60
  -9   6  -3   98.33   14.13
  -6  -9  -3  103.79   19.73
  -9  -6  -3   90.24   28.84
  -9   6   3  119.49   16.05
  -6  -9   3  112.06   10.49
  -9  -6   3  102.25   12.87
   9  -6  -3  108.07   19.79
   6  -9  -3  103.49   13.41
  -9  -6  -3   77.76   17.09
  -6  -9  -3  140.22   28.62
   9  -6   3   84.41   11.01
  -6   9  -3  131.49   24.58
   6   9   3  120.04   25.74
   6   9  -3  113.83   19.57
  -9   6  -4  847.93   30.68
  -6  -9  -4  880.01   33.95
  -9  -6  -4  892.34   34.71
  -9  -6   4  839.58   43.41
  -6  -9   4  914.51   33.22
  -9   6   4  919.61   32.45
   9  -6  -4  922.40   31.37
   6  -9  -4  923.51   32.86
  -9  -6  -4  947.59   33.08
  -6  -9  -4  837.25   31.75
  -6   9  -4  928.70   35.36
   6   9   4  953.31   33.81
   6   9  -4  901.19   43.61
  -9   6  -5   15.22    5.34
  -6  -9  -5   17.34    6.26
  -9  -6  -5   35.62    9.60
  -9  -6   5   35.98    8.52
  -6  -9   5   30.18   10.56
  -9   6   5   36.06    8.17
   6  -9   5    8.86    2.67
   9  -6  -5   19.55    5.04
   6  -9  -5   27.07    6.32
  -9  -6  -5   22.62    6.40
  -6  -9  -5   19.95    6.73
  -6   9  -5   33.74    8.09
   6   9   5   29.01    7.59
   6   9  -5   23.84   11.11
  -9   6  -6   10.11    3.29
  -6  -9  -6    4.51    3.94
  -9  -6  -6   22.14   10.43
  -9  -6   6   12.08    6.31
  -6  -9   6   13.54    8.01
  -9   6   6   13.67    6.15
  -6   9   6    3.43    2.06
   6  -9   6    2.27    2.32
   9  -6  -6   14.61    5.83
  -9  -6  -6   13.22    5.50
   6  -9  -6   14.28    7.03
  -6  -9  -6   13.21    6.50
   6   9   6    4.01    2.47
   6   9  -6    8.44    7.67
   9   6   6    9.33    2.93
  -9   6  -7  115.76   21.91
  -6  -9  -7  103.77   25.82
  -9  -6  -7   81.35   25.23
  -9  -6   7  113.64   21.77
  -6  -9   7   71.55   24.87
  -9   6   7  135.33   22.88
   6  -9   7   80.75   12.47
   9  -6  -7  117.71   13.92
  -9  -6  -7   72.40    8.79
   6  -9  -7   76.60   13.01
  -6  -9  -7   87.70   27.14
  -6   9  -7  101.06   22.11
   6   9   7   56.46   17.11
   9   6   7   94.99   19.81
   6   9  -7  107.10   21.03
  -9   6  -8  140.70   15.72
  -6  -9  -8  150.13   29.87
  -9  -6  -8  146.08   24.79
  -9  -6   8  150.12   28.39
  -6  -9   8  146.33   37.14
  -9   6   8  125.51   16.76
  -6   9   8  145.38   23.29
   6  -9   8  114.50   24.05
   9   6  -8  132.16   25.04
  -9  -6  -8  146.84   16.54
   6  -9  -8  144.09   38.10
  -6  -9  -8  165.02   19.05
  -6   9  -8  163.91   30.01
   6   9   8  153.25   26.69
   9   6   8  137.07   14.26
   6   9  -8  186.99   33.53
  -9   6  -9  189.33   24.24
  -6  -9  -9  207.80   32.37
  -9  -6  -9  168.48   33.43
  -9  -6   9  158.34   40.28
  -6  -9   9  202.64   48.17
  -9   6   9  168.75   11.53
  -6   9   9  199.03   12.02
   6  -9   9  208.13   10.83
   9   6  -9  166.40   39.34
   9  -6  -9  239.06   34.96
  -9  -6  -9  157.44   20.17
   6  -9  -9  171.95   19.18
  -6  -9  -9  210.42   41.14
  -6   9  -9  188.56   24.76
   6   9   9  184.22   26.35
   6   9  -9  252.40   44.92
  -9   6 -10   73.61   21.35
  -6  -9 -10   73.62   18.28
  -9  -6 -10   93.40   20.95
  -9  -6  10  101.45   30.31
  -6  -9  10   86.33   16.99
  -9   6  10  102.42   19.65
  -6   9  10   62.32   15.67
   6  -9  10   67.86   18.32
   9   6 -10   96.89   26.42
   9  -6 -10   71.73   23.42
  -9  -6 -10   76.49   12.91
   6  -9 -10   83.26   16.42
  -6  -9 -10   76.02   24.21
  -6   9 -10   97.06   15.51
   6   9 -10  100.37   18.78
  -9   6 -11   33.35    7.45
  -6  -9 -11   18.35   10.39
  -9  -6 -11   23.46    8.42
  -9  -6  11   30.57    9.63
  -6  -9  11   13.37   10.85
  -9   6  11   26.95    9.10
  -6   9  11   16.40    6.55
   6  -9  11   13.95   10.70
   6   9 -11   23.38    7.43
   9   6 -11   23.80    5.99
   9  -6 -11   27.12    7.48
  -9  -6 -11   21.51    8.89
   6  -9 -11   17.12    8.86
  -6  -9 -11   25.35    8.53
  -6   9 -11   16.47    6.76
   6   9 -11   15.65    8.24
  -9   6 -12  541.70   27.07
  -6  -9 -12  530.44   19.68
  -6  -9  12  589.75   20.92
  -9   6  12  595.34   26.20
  -6   9  12  537.37   25.42
   6  -9  12  494.28   28.83
   6   9 -12  609.53   22.47
  -9   6 -12  533.14   20.20
   9   6 -12  535.17   18.66
   9  -6 -12  533.50   18.90
  -9  -6 -12  533.78   21.22
   6  -9 -12  517.31   34.28
  -6  -9 -12  579.24   20.14
  -6   9 -12  580.16   22.23
   6   9 -12  545.47   20.49
  -6  -9 -13   23.53    9.35
  -9  -6 -13    7.05    5.45
  -9  -6  13   11.55    5.63
  -6  -9  13   13.82   11.04
  -9   6  13    9.22    7.97
  -6   9  13   12.80    5.41
   6  -9  13   17.42    5.80
   9  -6  13    6.76    6.08
   6   9 -13   12.15    6.61
  -9   6 -13    9.15    5.50
   9   6 -13    6.66    5.38
   9  -6 -13   21.20    7.90
  -9  -6 -13   23.00    7.22
   6  -9 -13    9.65    9.79
  -6  -9 -13    9.92    7.74
  -6   9 -13    6.10    4.69
   6   9 -13   12.55   10.32
  -6  -9 -14    8.89    6.01
  -9  -6 -14   12.99    7.97
  -9  -6  14   10.18   10.44
  -6  -9  14    8.19    3.97
  -9   6  14    2.95    6.64
  -6   9  14    2.93    4.55
   6  -9  14    9.41    6.91
   9  -6  14    9.18    5.48
   6   9 -14   11.60    6.38
   9   6 -14    9.56    5.20
   9  -6 -14   10.63    7.77
  -9  -6 -14    6.90    4.50
   6  -9 -14   18.91   11.25
  -6  -9 -14   21.37    6.78
   6   9 -14    9.79    4.33
  -6  -9 -15   46.29   16.64
  -9  -6 -15   65.62   19.18
  -9  -6  15   47.20   10.80
  -6  -9  15   56.81   17.14
  -9   6  15   54.20   18.72
  -6   9  15   38.81   14.06
   6  -9  15   37.23   15.09
   9  -6  15   35.10   14.96
  -6   9 -15   31.70   14.99
   6   9 -15   59.97   21.33
   9   6 -15   41.60   18.80
   9  -6 -15   38.11   25.69
  -9  -6 -15   39.57   18.39
   6  -9 -15   56.53   24.03
  -6  -9 -15   51.05   23.88
   6   9 -15   42.67   20.17
  -6  -9 -16  114.40   49.97
  -9  -6 -16  123.07   35.81
  -9  -6  16  132.80   36.53
  -6  -9  16  102.50   42.01
  -9   6  16  102.43   35.31
   6  -9  16  107.37   21.20
   9  -6  16  125.89   28.51
  -6   9 -16   88.85   37.36
   6   9 -16   98.44   35.62
   9   6 -16  127.51   31.90
   9  -6 -16   82.05   41.33
  -9  -6 -16   97.02   28.59
   6  -9 -16  103.78   40.57
  -6  -9 -16   88.46   38.48
   6   9 -16  101.84   41.68
  -9   7   0   19.18    3.86
  -7  -9   0   27.92    6.63
  -9  -7   0   22.96   11.18
   9  -7   0   20.18    6.32
   7  -9   0   17.77    5.63
   7   9   0   14.79    7.31
  -9   7  -1  214.18   19.50
  -9   7   1  207.32   17.04
  -7  -9  -1  297.35   18.05
  -9  -7  -1  228.17   18.76
  -7  -9   1  201.34   14.12
  -9  -7   1  259.92   16.80
   9  -7  -1  241.82   11.17
   9  -7   1  227.96   11.45
   7  -9  -1  206.36   16.39
   7  -9   1  215.65   17.70
  -9  -7  -1  231.00   11.47
  -7  -9  -1  221.14   38.80
   7   9   1  227.16   33.56
   7   9  -1  238.97   37.27
  -9   7  -2  222.22   16.24
  -7  -9  -2  256.94   19.41
  -9  -7  -2  275.67   20.62
  -9   7   2  253.16   19.35
  -7  -9   2  265.97   34.02
  -9  -7   2  276.95   45.32
   9  -7  -2  223.16   25.39
   7  -9  -2  270.01   27.14
   9  -7   2  213.62    9.37
  -9  -7  -2  235.32   13.27
  -7  -9  -2  227.68   42.58
   7  -9   2  247.70   24.67
  -7   9  -2  219.15   25.72
   7   9   2  240.64   27.29
   7   9  -2  295.97   45.31
  -9   7  -3   29.64    6.91
  -7  -9  -3   30.91   18.56
  -9  -7  -3   59.27   15.12
  -9   7   3   54.70   13.07
  -7  -9   3   48.90   16.00
  -9  -7   3   44.90   14.44
   9  -7  -3   36.68    8.93
   7  -9  -3   61.18   14.21
  -9  -7  -3   47.32    9.04
  -7  -9  -3   25.33    6.61
   9  -7   3   54.79   14.13
  -7   9  -3   52.88   12.64
   7   9   3   52.83   14.14
   7   9  -3   34.09   11.11
   9   7   3   26.33    6.94
  -9   7  -4  167.16   14.27
  -7  -9  -4  198.41   32.08
  -9  -7  -4  177.06   25.55
  -9   7   4  165.00   16.26
  -7  -9   4  162.27   28.12
  -9  -7   4  164.47   47.02
   9  -7  -4  160.35   15.66
   7  -9  -4  157.97   17.16
  -9  -7  -4  149.57   10.03
  -7  -9  -4  143.53   27.50
  -7   9  -4  179.74   28.89
   7   9   4  165.68   22.73
   7   9  -4  188.25   37.73
   9   7   4  178.16   17.92
  -9   7  -5   31.93    7.82
  -7  -9  -5   29.38    7.18
  -9  -7  -5   27.01   11.18
  -9  -7   5   38.70   14.50
  -7  -9   5   54.59   13.19
  -9   7   5   35.27    7.24
   9  -7  -5   29.07    6.74
   7  -9  -5   43.12   10.70
  -9  -7  -5   30.26   11.30
  -7  -9  -5   22.79    8.18
  -7   9  -5   37.11   11.20
   7   9   5   38.51   10.13
   9   7   5   39.79   11.17
   7   9  -5   46.27   14.18
  -9   7  -6   54.62   12.40
  -7  -9  -6   55.53   22.94
  -9  -7  -6   81.62   14.57
  -9  -7   6   76.88   16.36
  -7  -9   6   66.20   12.67
  -9   7   6   67.81   12.44
   9  -7  -6   59.96   14.31
   7  -9  -6   65.45   16.49
  -9  -7  -6   54.63    9.85
  -7  -9  -6   64.80   13.57
  -7   9  -6   89.51   17.58
   7   9   6   66.79   18.02
   9   7   6   68.64   13.77
   7   9  -6   77.64   17.15
  -9   7  -7  116.74   23.54
  -7  -9  -7  132.92   31.37
  -9  -7  -7  106.39   38.79
  -9  -7   7   90.67   25.15
  -7  -9   7  112.17   26.48
  -9   7   7  112.68   19.87
   7  -9  -7  126.65   19.24
  -9  -7  -7   84.35   17.23
  -7  -9  -7   98.33   33.08
  -7   9  -7  140.26   28.77
   7   9   7  102.51   19.64
   9   7   7   97.96   17.27
   7   9  -7  115.25   26.05
  -9   7  -8  883.55   31.69
  -7  -9  -8  909.45   35.73
  -9  -7  -8  805.38   36.16
  -9  -7   8  950.46   45.74
  -7  -9   8  828.33   46.80
  -9   7   8  857.04   31.26
   9  -7  -8  942.85   35.73
   7  -9  -8  856.92   45.26
  -7  -9  -8  928.99   36.02
  -7   9  -8  821.81   37.57
   7   9   8  791.10   28.62
   9   7   8  887.74   31.61
   7   9  -8  895.42   45.67
  -9   7  -9   62.83   18.02
  -7  -9  -9   77.95   24.72
  -9  -7  -9   84.67   26.33
  -9  -7   9   57.70   22.08
  -7  -9   9   92.14   18.46
  -9   7   9   79.03   13.66
   9   7  -9   52.08   28.01
   9  -7  -9   69.93   21.50
   7  -9  -9  101.64   11.87
  -9  -7  -9   60.04   16.38
  -7  -9  -9   75.05   22.79
  -7   9  -9   93.29   29.61
   7   9  -9   84.93   21.72
  -9   7 -10   39.19    9.12
  -7  -9 -10   41.64   11.70
  -9  -7 -10   18.89   12.68
  -9  -7  10   23.84   13.17
  -7  -9  10   24.27   13.26
  -9   7  10   32.82    6.97
   7  -9  10   19.69    8.60
   9   7 -10   19.92    6.26
   9  -7 -10   27.28    9.25
   7  -9 -10   38.65   13.74
  -9  -7 -10   20.73   10.26
  -7  -9 -10   28.74    7.30
  -7   9 -10   37.98    9.70
   7   9 -10   41.63   11.24
  -7  -9 -11   83.29   28.96
  -9  -7 -11   87.88   28.65
  -9  -7  11  112.19   43.96
  -7  -9  11   78.16   17.07
  -9   7  11   88.92   20.63
   9   7 -11   92.59   20.71
   9  -7 -11   98.05   14.45
   7  -9 -11   88.63   26.16
  -9  -7 -11   65.36   28.56
  -7  -9 -11   63.22   22.36
  -7   9 -11   87.91   23.20
   7   9 -11   81.58   23.73
  -7  -9 -12  183.67   56.57
  -9  -7 -12  229.15   32.44
  -9  -7  12  204.39   44.30
  -7  -9  12  192.66   14.53
  -9   7  12  248.27   12.52
   9  -7  12  224.78   14.94
   7   9 -12  232.81   19.72
   9   7 -12  215.63   18.47
   9  -7 -12  200.16   26.65
  -9  -7 -12  242.55   13.58
   7  -9 -12  210.36   22.40
  -7  -9 -12  202.16   13.23
  -7   9 -12  185.42   42.06
   7   9 -12  254.24   35.83
  -7  -9 -13   52.18   15.05
  -9  -7 -13   59.35   13.89
  -9  -7  13   46.33   22.08
  -7  -9  13   36.98   15.18
  -9   7  13   48.71   18.34
   9  -7  13   34.36   11.66
   7   9 -13   53.04   21.81
   9   7 -13   43.45   11.25
   9  -7 -13   60.19   14.88
  -9  -7 -13   36.34   15.29
   7  -9 -13   45.30   18.48
  -7  -9 -13   52.51   18.22
  -7   9 -13   42.32   14.48
   7   9 -13   14.28    8.07
  -7  -9 -14   12.87    8.16
  -9  -7 -14   19.54    9.66
  -9  -7  14   18.80    7.66
  -7  -9  14   16.24    7.33
  -9   7  14   12.87    7.26
   9  -7  14   16.86    7.09
   7   9 -14   17.43    7.52
   9   7 -14   25.19    6.79
   9  -7 -14   15.21    6.94
  -9  -7 -14   15.69    9.68
   7  -9 -14    8.74    6.63
  -7  -9 -14   16.34    8.56
   7   9 -14   13.57    9.23
  -7  -9 -15   12.37    9.17
  -9  -7 -15   12.45    9.17
  -9  -7  15   -0.83    6.90
  -7  -9  15    8.62    6.86
  -9   7  15   12.44    6.50
   9  -7  15    7.39    4.60
   7   9 -15    6.54    6.10
   9   7 -15   10.17    6.11
   9  -7 -15   11.45    9.23
  -9  -7 -15    7.25    6.35
   7  -9 -15   12.74    8.09
  -7  -9 -15   15.88    9.14
   7   9 -15   22.92    9.00
  -7  -9 -16   10.47    7.90
  -9  -7  16    4.42    7.39
  -7  -9  16   10.09    6.72
  -9   7  16   -0.16    4.89
   7   9 -16   -1.12    6.95
   9   7 -16    7.08    5.75
   9  -7 -16    1.23    5.42
  -9  -7 -16    0.76    3.95
   7  -9 -16    7.08    4.62
  -7  -9 -16   14.07    8.95
  -8  -9   0  134.15   13.53
  -9  -8   0  137.73   14.47
   9  -8   0  108.45   14.68
   8  -9   0  100.44   11.80
   8   9   0  125.31   26.12
   9   8   0  117.23   26.72
  -8  -9  -1  142.44   19.75
  -9  -8  -1  165.28   26.01
  -8  -9   1  149.03   35.30
  -9  -8   1  141.63   13.78
   9  -8  -1  130.91   18.21
   8  -9  -1  158.95   17.73
   9  -8   1  139.15   17.51
   8  -9   1  132.20   17.43
  -9  -8  -1  116.94   27.41
  -8  -9  -1  120.82   25.67
   8   9   1  151.10   27.77
   8   9  -1  156.55   26.80
   9   8   1  128.90   28.65
  -8  -9  -2   69.91   12.76
  -9  -8  -2   69.89   24.70
  -8  -9   2   90.14   19.44
  -9  -8   2   86.69   20.28
   9  -8  -2   59.08   12.74
   8  -9  -2   70.67   18.25
   9  -8   2   59.05   14.91
  -9  -8  -2   63.67   13.48
  -8  -9  -2   57.48   13.53
   8  -9   2   68.73   16.63
   8   9   2   73.29   15.74
   8   9  -2   51.80   13.05
   9   8   2   66.18   16.39
  -8  -9  -3   16.62    8.82
  -9  -8  -3   27.51    8.27
  -8  -9   3   19.30    8.54
  -9  -8   3   23.56    7.49
   9  -8  -3   23.85    7.66
   8  -9  -3   12.51    5.75
  -9  -8  -3   21.54    6.37
  -8  -9  -3   19.67    5.61
   9  -8   3   22.43    6.04
   8  -9   3   24.02    6.39
   8   9   3   13.93    7.65
   9   8   3   31.85    9.10
   8   9  -3    8.12    6.29
  -8  -9  -4   39.19    9.49
  -9  -8  -4   31.88    6.64
  -9  -8   4   39.14    9.86
  -8  -9   4   17.04    7.93
   9  -8  -4   37.71    9.10
   8  -9  -4   32.49    9.67
  -9  -8  -4   29.07    5.64
  -8  -9  -4   40.08   11.22
   9   8   4   44.93   13.66
   8   9  -4   36.26   14.43
  -8  -9  -5  193.76   31.06
  -9  -8  -5  256.55   26.60
  -9  -8   5  226.41   28.27
  -8  -9   5  244.04   25.40
   9  -8  -5  202.60   16.93
   8  -9  -5  230.21   37.27
  -9  -8  -5  227.95   23.43
  -8  -9  -5  208.32   11.98
   9   8   5  210.30   32.66
   8   9  -5  208.37   27.24
  -8  -9  -6  533.09   26.62
  -9  -8  -6  535.35   27.77
  -9  -8   6  516.26   38.10
  -8  -9   6  519.56   28.20
   9  -8  -6  520.53   28.67
   8  -9  -6  507.99   29.99
  -9  -8  -6  487.99   21.56
  -8  -9  -6  544.93   24.01
  -8   9  -6  488.83   33.03
   8   9   6  506.15   21.10
   9   8   6  566.71   23.10
   8   9  -6  560.03   27.33
  -8  -9  -7  115.11   36.36
  -9  -8  -7  112.83   38.94
  -8  -9   7  103.23   36.63
  -9  -8   7  116.96   20.01
   9  -8  -7  103.47   25.33
   8  -9  -7  126.41   17.32
  -8  -9  -7   75.95   33.43
  -8   9  -7  121.79   25.17
   8   9   7  107.36   23.53
   9   8   7   95.96   24.17
   8   9  -7  126.16   29.63
  -8  -9  -8   86.89   24.86
  -9  -8  -8   62.46   16.11
  -8  -9   8   68.49   22.53
  -9  -8   8   63.61   21.38
   9  -8  -8   69.53   19.53
   8  -9  -8   74.00   25.65
  -9  -8  -8   52.09   15.03
  -8  -9  -8   74.15   18.30
  -8   9  -8   78.05   22.63
   8   9   8   56.18   16.39
   9   8   8   56.17   17.79
   8   9  -8   75.98   16.87
  -8  -9  -9   63.77   16.34
  -9  -8  -9   47.74   17.72
  -9  -8   9   36.25   12.70
  -8  -9   9   37.64   11.44
   9  -8   9   39.27   11.97
   9  -8  -9   52.50   12.32
   8  -9  -9   47.36   17.44
  -9  -8  -9   31.55   13.37
  -8  -9  -9   32.70   17.90
  -8   9  -9   52.56   15.78
   8   9  -9   42.52   15.75
  -8  -9 -10  208.02   59.79
  -9  -8 -10  222.08   55.77
  -9  -8  10  208.78   32.63
  -8  -9  10  208.89   35.87
   9  -8  10  196.11   15.58
   9  -8 -10  257.41   21.61
   8  -9 -10  220.01   38.04
  -9  -8 -10  199.75   11.71
  -8  -9 -10  160.98   31.54
  -8   9 -10  213.97   14.14
   8   9 -10  236.18   36.31
  -8  -9 -11   86.81   29.75
  -9  -8 -11  132.59   26.99
  -9  -8  11   74.67   25.33
  -8  -9  11   79.16   27.38
   9  -8  11   96.13   19.12
   9   8 -11   79.82   41.02
   9  -8 -11  124.74   16.12
   8  -9 -11  102.35   25.61
  -9  -8 -11   92.76   27.15
  -8  -9 -11   67.77   36.72
  -8   9 -11  103.44   19.68
   8   9 -11  101.70   33.87
  -8  -9 -12   31.32    9.65
  -9  -8 -12   36.41   14.49
  -9  -8  12   27.99   10.50
  -8  -9  12   27.01   12.81
   9  -8  12    9.54    6.29
   9   8 -12   33.38   13.53
   9  -8 -12   48.63   17.49
   8  -9 -12   51.90   13.71
  -9  -8 -12   17.84    8.75
  -8  -9 -12   30.76   12.50
   8   9 -12   30.71   16.08
  -8  -9 -13   15.01    8.39
  -9  -8 -13   39.84   10.86
  -9  -8  13   32.69   11.66
  -8  -9  13   16.40    6.62
   8   9 -13   30.63   10.83
   9   8 -13   24.36    6.60
   9  -8 -13   21.48    7.63
   8  -9 -13   49.26    9.31
  -9  -8 -13   21.54   11.39
  -8  -9 -13   30.34   12.47
   8   9 -13   22.73   15.03
   9   8 -13   20.54    9.76
  -8  -9 -14   54.93   19.69
  -9  -8 -14   63.81   18.54
  -9  -8  14   44.74   23.05
  -8  -9  14   46.57   22.14
   8   9 -14   41.77   17.97
   9   8 -14   54.68   23.51
   9  -8 -14   31.22   19.69
   8  -9 -14   57.65   31.72
  -9  -8 -14   51.52   23.86
  -8  -9 -14   34.13   19.34
   8   9 -14   42.25   19.55
   9   8 -14   53.88   21.96
  -8  -9 -15   22.84   18.31
  -9  -8 -15   27.05   17.48
  -9  -8  15   20.27    7.38
  -8  -9  15   50.59   17.15
   8   9 -15   15.15   11.05
   9   8 -15   37.39   11.14
   9  -8 -15   22.33   12.31
   8  -9 -15   26.72    9.51
  -9  -8 -15   19.46    9.90
  -8  -9 -15    4.17    7.09
   8   9 -15   16.86   10.99
   9   8 -15   35.33   13.00
  -9  -9   0  100.08   10.79
   9  -9   0   89.60   11.37
  -9  -9   0   70.58   28.45
   9   9   0   80.67   21.08
  -9  -9  -1  168.31   50.02
  -9  -9   1  164.39   42.96
   9  -9  -1  159.63   17.82
   9  -9   1  158.17   17.90
  -9  -9  -1  123.91   33.91
   9   9   1  152.96   39.00
   9   9  -1  168.42   25.28
  -9  -9  -2  595.91   20.89
  -9  -9   2  616.19   21.16
   9  -9  -2  544.31   25.45
   9  -9   2  583.46   15.74
  -9  -9  -2  604.49   18.27
   9   9   2  604.47   37.98
   9   9  -2  627.88   51.46
  -9  -9  -3   18.46   10.30
  -9  -9   3   12.05    9.85
  -9  -9  -3    2.32    6.14
   9  -9   3    5.34    3.73
   9   9   3    8.44    6.54
   9   9  -3    6.40    3.33
  -9  -9  -4    7.08    6.78
  -9  -9   4   23.13   10.31
   9  -9  -4    2.33    3.47
  -9  -9  -4   11.47    7.67
   9  -9   4    8.59    3.88
   9   9   4    5.08    4.70
   9   9  -4    5.83    4.22
  -9  -9  -5   15.86   10.93
  -9  -9   5   -3.05    9.24
   9  -9  -5    1.18    4.64
  -9  -9  -5   12.37    6.43
   9   9   5    6.04    4.81
   9   9  -5    8.95    7.57
  -9  -9  -6   11.56    7.42
  -9  -9   6   17.96   10.62
   9  -9  -6   20.55    6.56
  -9  -9  -6    7.18    5.29
   9   9   6    1.81    4.10
   9   9  -6   13.63    6.63
  -9  -9  -7   49.87   16.74
  -9  -9   7   41.25   15.50
   9  -9  -7   45.11   15.94
  -9  -9  -7   25.51   19.54
   9   9   7   38.18   15.81
   9   9  -7   54.46   20.31
  -9  -9  -8   18.00    9.57
  -9  -9   8    2.14    6.52
   9  -9  -8    4.62    5.58
  -9  -9  -8    2.78    4.30
   9   9  -8    9.13    5.52
  -9  -9  -9   26.76   11.11
  -9  -9   9   30.18   10.64
   9  -9  -9   25.94   11.27
  -9  -9  -9   27.05   10.69
   9   9  -9   43.26   13.27
  -9  -9 -10   22.98    9.56
  -9  -9  10   11.84    7.78
   9  -9 -10   10.75    5.69
  -9  -9 -10   12.16    7.52
   9   9 -10    6.26    5.06
  -9  -9 -11   62.87   20.30
  -9  -9  11   53.84   22.67
   9  -9 -11   80.46   18.86
  -9  -9 -11   50.77   26.44
   9   9 -11   88.79   21.07
  -9  -9 -12    2.59    5.70
  -9  -9  12    7.25    5.75
   9  -9 -12   17.18    8.07
  -9  -9 -12    9.32    7.62
   9   9 -12    2.86    6.41
  -9  -9 -13   18.78    9.23
  -9  -9  13   27.31    8.66
   9  -9 -13   15.03   10.48
  -9  -9 -13   22.51    8.59
   9   9 -13    6.00   10.84
  -9  -9 -14  177.85   67.60
  -9  -9  14  175.54   58.75
   9   9 -14  206.70   45.16
   9  -9 -14  201.99   44.32
  -9  -9 -14  153.23   32.35
   9   9 -14  225.88   49.59
   0 -10   0    9.70    2.58
 -10   0   0   12.17    7.37
   0  10   0    7.27    6.23
   0 -10  -1  112.26    9.64
   0 -10   1  127.12   12.70
 -10   0  -1  116.39   11.98
 -10   0   1  127.96   23.38
   0 -10  -1  137.02   29.52
   0  10   1  133.90   27.37
   0  10  -1  129.47   20.07
   0 -10  -2  603.69   20.99
 -10   0  -2  619.80   25.94
   0 -10   2  600.16   22.62
 -10   0   2  602.34   33.14
   0 -10  -2  602.25   26.42
   0  10   2  642.73   27.99
   0  10  -2  589.17   34.72
   0 -10  -3  325.55   12.68
 -10   0  -3  319.04   16.70
   0 -10   3  382.78   15.29
 -10   0   3  373.60   18.33
  10   0  -3  352.28   14.81
   0 -10  -3  380.61   45.93
   0  10   3  386.19   17.81
   0  10  -3  366.05   27.76
   0 -10  -4   54.45    9.93
 -10   0  -4   64.16   12.29
 -10   0   4   77.49   19.29
   0 -10   4   55.41   11.54
  10   0  -4   61.23    9.72
   0 -10  -4   79.87   14.94
   0  10   4   68.47   14.00
   0  10  -4   72.29   19.48
   0 -10  -5    6.20    4.33
 -10   0  -5   -2.43    5.72
 -10   0   5    5.48    5.93
   0 -10   5    4.59    2.71
  10   0  -5    1.93    2.04
   0 -10  -5    5.35    8.66
   0  10   5    1.38    3.47
   0  10  -5    8.98    5.08
   0 -10  -6  221.56   19.40
 -10   0  -6  203.53   32.93
 -10   0   6  223.28   37.60
   0 -10   6  230.19   20.30
  10   0  -6  215.86   17.50
   0 -10  -6  224.89   37.23
   0  10   6  229.79   24.03
   0  10  -6  218.57   36.63
   0 -10  -7   26.88    7.67
 -10   0  -7   26.54   14.06
 -10   0   7   33.63    7.85
   0 -10   7   32.80    6.23
  10   0  -7   42.92    7.76
   0 -10  -7   33.29   12.08
   0  10   7   34.74   10.22
   0  10  -7   37.42    9.48
   0 -10  -8   90.49   14.41
 -10   0  -8  116.52   17.25
 -10   0   8  155.34   35.40
   0 -10   8  108.72   22.57
  10   0  -8  113.94   17.94
   0 -10  -8  107.42   23.22
   0  10   8  114.77   21.78
   0  10  -8  101.00   23.84
   0 -10  -9   26.87   13.14
 -10   0  -9   64.92   14.35
 -10   0   9   58.89    8.70
   0 -10   9   40.94   12.87
  10   0  -9   55.25    9.22
   0 -10  -9   59.32   21.40
   0  10   9   44.59   16.48
   0  10  -9   44.97   10.76
 -10   0 -10  949.21   37.79
 -10   0  10  943.84   42.54
   0 -10  10  983.95   30.43
  10   0 -10  984.53   32.72
   0 -10 -10  984.86   35.10
   0  10 -10  920.69   46.60
 -10   0 -11   -1.15    5.55
 -10   0  11    9.20    5.88
   0 -10  11    9.39    5.63
   0  10  11    5.96    5.48
  10   0 -11    8.82    4.81
   0 -10 -11    5.42    5.49
   0  10 -11    2.45    4.55
 -10   0 -12    6.49    4.13
 -10   0  12    5.24    4.92
   0 -10  12    5.31    6.57
   0  10  12    7.44    5.94
   0  10 -12   -1.69    5.88
  10   0 -12   13.05    5.78
   0 -10 -12    4.50    6.94
   0  10 -12   10.33    4.97
 -10   0 -13  134.99   28.20
 -10   0  13  137.44   28.95
   0 -10  13  137.36   30.39
   0  10  13   93.59   35.67
   0  10 -13  131.04   24.84
  10   0 -13  156.37   23.55
   0 -10 -13  148.15   13.54
   0  10 -13  130.32   29.45
 -10   0 -14   30.22    7.59
 -10   0  14   41.15   13.83
   0 -10  14   13.54    9.80
   0  10  14   12.72    4.98
   0  10 -14   10.47    3.70
  10   0 -14   33.87    8.79
   0 -10 -14   11.11    5.96
   0  10 -14   12.03    5.82
 -10   0 -15   25.07   12.28
 -10   0  15   41.89   14.91
   0 -10  15   42.51   18.94
   0  10  15   28.44   12.72
   0  10 -15   38.26   15.25
  10   0 -15   53.23   10.27
   0 -10 -15   52.90   11.53
   0  10 -15   50.18   10.36
 -10   0 -16   66.33   23.31
 -10   0  16   66.73   24.69
   0 -10  16   47.81   19.20
   0  10  16   55.96   26.68
   0  10 -16   51.55   24.42
  10   0 -16   82.50   16.74
   0 -10 -16   73.37   23.78
   0  10 -16   68.32   20.42
 -10   0 -17   10.21    9.97
 -10   0  17   18.12    5.85
   0 -10  17   15.85   10.00
   0  10  17    7.38    6.88
   0  10 -17   18.18   13.17
  10   0 -17   12.17    7.16
   0 -10 -17   25.80   10.26
   1 -10   0  348.80   13.82
  -1 -10   0  341.88   13.38
 -10   1   0  361.17   17.27
 -10  -1   0  331.08   29.39
  -1  10   0  374.22   30.33
   1  10   0  345.58   18.84
   1 -10  -1   99.13    8.86
  -1 -10  -1  118.27   11.03
   1 -10   1  110.93    6.02
 -10   1  -1  141.28   21.28
  -1 -10   1  139.16   13.82
 -10  -1  -1  109.23   15.77
 -10   1   1  154.95   24.53
 -10  -1   1  150.07   28.04
   1 -10  -1  129.67   22.79
  -1 -10  -1  156.57   24.95
  -1  10   1  118.54   28.54
  -1  10  -1  105.44   19.33
   1  10   1  136.08   28.94
   1  10  -1  124.54   24.46
   1 -10  -2  508.59   17.34
  -1 -10  -2  565.23   22.61
 -10   1  -2  550.77   24.50
 -10  -1  -2  508.37   22.44
   1 -10   2  518.22   17.50
  -1 -10   2  510.74   18.67
 -10   1   2  547.58   22.93
 -10  -1   2  547.97   25.57
  10  -1  -2  512.79   16.57
   1 -10  -2  510.89   22.32
  -1 -10  -2  553.97   24.49
  -1  10   2  540.14   29.85
  -1  10  -2  538.06   23.73
   1  10   2  512.12   21.73
   1  10  -2  546.38   27.01
   1 -10  -3  115.92    8.22
  -1 -10  -3  123.56   14.99
 -10   1  -3  128.14   33.61
 -10  -1  -3  115.73   11.77
   1 -10   3  116.05   11.17
  -1 -10   3  133.71   19.14
 -10   1   3  142.00   30.65
 -10  -1   3  137.35   38.30
  10  -1  -3   98.56   11.44
   1 -10  -3  141.11   25.27
  -1 -10  -3  153.14   30.25
  -1  10   3  121.40   18.45
   1  10   3  103.00   25.76
  -1  10  -3  114.32   24.77
   1  10  -3  151.81   31.72
   1 -10  -4  443.79   19.84
  -1 -10  -4  394.93   22.08
 -10   1  -4  369.34   27.24
 -10  -1  -4  466.34   25.29
 -10  -1   4  394.77   26.29
 -10   1   4  446.35   23.29
  -1 -10   4  418.54   24.07
   1 -10   4  440.19   19.94
  10   1  -4  457.25   24.92
  10  -1  -4  386.34   18.97
   1 -10  -4  465.93   37.96
  -1 -10  -4  440.74   47.76
  -1  10   4  375.93   24.74
   1  10   4  459.15   23.29
  -1  10  -4  427.69   23.08
   1  10  -4  408.23   22.57
   1 -10  -5   65.66   10.42
  -1 -10  -5   75.87   18.86
 -10   1  -5  112.22   20.20
 -10  -1  -5   81.53   17.10
 -10  -1   5   94.85   23.75
 -10   1   5   83.60   15.99
  -1 -10   5   64.41   12.95
   1 -10   5   84.23   16.47
  10   1  -5   62.12    9.77
  10  -1  -5   92.13    9.76
   1 -10  -5   77.61   12.04
  -1 -10  -5   96.35   15.91
  -1  10   5  104.41   20.90
   1  10   5   75.54   15.39
  -1  10  -5   67.07   14.91
   1  10  -5   97.92   18.20
   1 -10  -6  179.09   16.14
  -1 -10  -6  133.35   15.11
 -10   1  -6  147.79   37.89
 -10  -1  -6  211.35   41.41
 -10  -1   6  151.65   26.86
 -10   1   6  224.58   41.63
  -1 -10   6  224.48   19.53
   1 -10   6  148.98   21.40
  10   1  -6  201.80   25.89
  10  -1  -6  170.41   22.41
   1 -10  -6  172.44   19.94
  -1 -10  -6  163.94   21.98
  -1  10   6  141.53   23.40
   1  10   6  218.02   31.98
  -1  10  -6  173.24   24.88
   1  10  -6  158.08   29.00
  -1 -10  -7  131.85   20.72
 -10   1  -7  128.49   24.16
 -10  -1  -7  123.40   22.00
 -10  -1   7  113.08   25.13
 -10   1   7  118.02   30.27
  -1 -10   7  130.73   25.45
   1 -10   7  110.56   25.04
  -1  10   7   98.49   19.51
  10   1  -7  142.89   19.25
  10  -1  -7  127.95   17.55
 -10  -1  -7   91.64    8.72
   1 -10  -7  106.99   19.95
  -1 -10  -7  128.31   12.55
  -1  10   7  111.32   19.46
   1  10   7  143.65   28.76
  -1  10  -7  133.50   28.86
   1  10  -7  129.11   28.26
  -1 -10  -8  174.11   18.14
 -10   1  -8  167.36   33.05
 -10  -1  -8  151.63   33.51
 -10  -1   8  175.73   31.68
 -10   1   8  171.58   35.23
  -1 -10   8  129.69   27.56
   1 -10   8  162.02   22.82
  -1  10   8  155.49   20.62
  10   1  -8  173.52   24.03
  10  -1  -8  185.86   25.69
 -10  -1  -8  109.02   15.72
   1 -10  -8  146.63   30.42
  -1 -10  -8  160.95   27.57
  -1  10   8  173.78   27.17
   1  10   8  157.28   21.46
  -1  10  -8  150.16   32.29
   1  10  -8  167.92   34.20
  -1 -10  -9   80.76   20.02
 -10   1  -9   81.13   14.01
 -10  -1  -9   73.12   25.37
 -10  -1   9  116.77   23.06
 -10   1   9   74.97   17.10
  -1 -10   9   82.96   21.91
   1 -10   9   83.95   22.86
  -1  10   9   82.02   23.96
  10   1  -9   91.98   15.63
  10  -1  -9  103.90   14.21
 -10  -1  -9   56.23    9.32
   1 -10  -9   94.55   16.99
  -1 -10  -9   87.53   15.26
   1  10   9   88.87   19.52
  -1  10  -9  100.24   19.59
   1  10  -9   96.15   21.06
  -1 -10 -10  246.82   28.90
 -10   1 -10  236.14   46.30
 -10  -1 -10  298.32   50.67
 -10  -1  10  263.52   16.26
 -10   1  10  284.49   17.22
  -1 -10  10  279.50   24.60
   1 -10  10  271.34   29.64
  -1  10  10  271.38   15.75
  10   1 -10  293.04   33.86
  10  -1 -10  295.04   40.78
   1 -10 -10  302.29   25.73
  -1 -10 -10  216.17   42.45
   1  10  10  290.42   16.59
  -1  10 -10  288.72   22.97
   1  10 -10  265.28   42.56
  -1 -10 -11   33.50   12.50
 -10   1 -11   28.39    8.50
 -10  -1 -11   29.52    8.85
 -10  -1  11   28.87    7.86
 -10   1  11   44.37   14.92
  -1 -10  11   41.75   12.76
   1 -10  11   36.22   11.84
  -1  10  11   25.75   10.25
  10   1 -11   29.70    8.45
  10  -1 -11   36.83    8.71
   1 -10 -11   40.91   14.28
  -1 -10 -11   45.44   11.23
  -1  10 -11   28.80   11.29
   1  10 -11   32.66   12.69
  -1 -10 -12   25.89   10.46
 -10   1 -12   31.47    9.99
 -10  -1 -12   19.22    9.33
 -10  -1  12   31.07    7.97
 -10   1  12   17.20    6.51
  -1 -10  12   28.32   13.13
   1 -10  12   27.04    7.43
  -1  10  12   19.29    6.68
   1  10 -12   29.12   13.05
  10   1 -12   40.45   11.62
  10  -1 -12   33.96    8.90
   1 -10 -12   22.33   10.80
  -1 -10 -12   22.12    9.35
  -1  10 -12   32.29    9.38
   1  10 -12   30.83    8.49
 -10   1 -13   43.76   13.72
 -10  -1 -13   46.53   11.51
 -10  -1  13   40.83   10.88
 -10   1  13   68.47   18.92
  -1 -10  13   35.92   15.21
   1 -10  13   34.32   13.24
  -1  10  13   29.91   10.33
   1  10  13   25.33   13.83
  -1  10 -13   40.55   13.98
   1  10 -13   34.94   15.70
  10   1 -13   68.51   16.07
  10  -1 -13   48.23   12.02
   1 -10 -13   36.38   18.16
  -1 -10 -13   39.77    9.99
   1  10 -13   41.46    9.97
 -10   1 -14  197.82   38.45
 -10  -1 -14  168.44   34.02
 -10  -1  14  177.10   40.20
 -10   1  14  197.40   62.04
  -1 -10  14  192.90   34.73
   1 -10  14  179.95   26.32
  -1  10  14  186.90   16.81
   1  10  14  196.07   17.98
  -1  10 -14  169.53   46.10
   1  10 -14  170.83   50.11
  10   1 -14  254.55   39.29
  10  -1 -14  199.32   34.44
   1 -10 -14  191.40   42.51
  -1 -10 -14  147.59   42.70
  -1  10 -14  188.02   28.59
   1  10 -14  189.29   47.01
 -10   1 -15   10.01   10.07
 -10  -1 -15   24.67   10.08
 -10  -1  15   13.69   10.21
 -10   1  15    6.90    8.84
  -1 -10  15   23.45    9.12
   1 -10  15   10.13    7.94
  -1  10  15    7.72    5.57
   1  10  15   12.58    7.51
  -1  10 -15   13.59   10.81
   1  10 -15   16.83    7.17
  10   1 -15   26.50    7.22
  10  -1 -15   13.32    6.30
   1 -10 -15   28.26   14.82
  -1  10 -15   13.17    7.65
   1  10 -15    4.66    4.93
 -10   1 -16  110.78   29.95
 -10  -1 -16  137.89   33.32
 -10  -1  16   85.81   37.71
 -10   1  16   89.31   21.71
  -1 -10  16   80.02   35.97
   1 -10  16  111.43   34.78
  -1  10  16   98.65   31.54
  -1  10 -16  115.05   33.82
   1  10 -16   78.86   37.55
  10   1 -16  134.28   27.40
  10  -1 -16  135.12   26.90
   1 -10 -16  102.50   21.72
  -1 -10 -16   82.84   31.93
  -1  10 -16   98.24   20.99
   1  10 -16   90.94   28.97
 -10   1 -17    8.94    7.87
 -10  -1 -17    3.00    7.41
 -10  -1  17    6.43    5.80
 -10   1  17   10.05    6.12
  -1 -10  17   23.98   10.32
   1 -10  17    5.46    5.85
  -1  10  17   10.40    8.83
   1  10  17    5.96    6.94
  -1  10 -17   11.21   11.02
   1  10 -17    8.24    5.80
  10   1 -17   14.97    6.53
  10  -1 -17    5.78    8.02
   1 -10 -17   14.87    8.00
  -1 -10 -17    1.65    6.02
   1  10 -17    4.23    4.93
  -2 -10   0  312.65   15.65
 -10   2   0  323.40   16.49
 -10  -2   0  336.29   17.97
 -10  -2   0  288.24   10.02
   2 -10   0  337.32   25.99
  -2  10   0  301.63   27.11
   2  10   0  355.04   31.60
  -2 -10  -1  156.96   14.87
 -10   2  -1  147.74   21.83
 -10  -2  -1  132.12   10.91
  -2 -10   1  123.40   16.33
 -10   2   1  140.58   13.17
 -10  -2   1  189.21   31.43
   2 -10  -1  149.04   31.21
  -2 -10  -1  161.06   21.47
  -2  10   1  166.75   31.57
  -2  10  -1  137.22   26.29
   2  10   1  129.91   28.75
   2  10  -1  167.47   34.04
  -2 -10  -2   38.15   10.37
   2 -10   2   17.43    2.30
 -10   2  -2   50.60   12.04
 -10  -2  -2   51.34    9.59
  -2 -10   2   48.73   11.45
 -10   2   2   60.23   14.55
 -10  -2   2   59.10   16.73
  -2  10   2   14.27    2.62
  -2  10   2   13.48    2.58
  10  -2  -2   31.36    5.14
   2 -10  -2   60.22   13.30
  -2 -10  -2   44.93   13.26
  -2  10   2   45.30   11.05
  -2  10  -2   47.49   16.85
   2  10   2   50.63   14.99
   2  10  -2   45.75   14.04
 -10   2  -3  192.68   19.25
 -10  -2  -3  201.08   31.57
   2 -10   3  220.46    9.94
  -2 -10   3  213.64   25.09
 -10   2   3  202.11   14.62
 -10  -2   3  208.13   28.15
  -2  10   3  202.60   10.10
  10  -2  -3  206.27   16.35
   2 -10  -3  182.71   15.36
  -2 -10  -3  262.11   40.28
  -2  10   3  247.86   29.44
  -2  10  -3  181.89   47.71
   2  10   3  181.25   17.08
   2  10  -3  259.27   39.13
  -2 -10  -4  276.01   14.64
 -10   2  -4  264.01   29.63
 -10  -2  -4  323.42   41.89
 -10  -2   4  244.71   21.36
 -10   2   4  308.63   17.90
  -2 -10   4  332.16   18.46
   2 -10   4  272.65   13.11
  10   2  -4  322.73   20.91
  10  -2  -4  258.81   18.98
 -10  -2  -4  254.29   11.23
   2 -10  -4  312.17   28.08
  -2 -10  -4  245.54   38.56
  -2  10   4  293.99   44.57
  -2  10  -4  334.09   46.63
   2  10   4  332.84   18.60
   2  10  -4  300.48   40.44
  -2 -10  -5   81.07   15.14
 -10   2  -5   66.66   14.23
 -10  -2  -5   56.64    8.58
 -10  -2   5   43.17   12.54
 -10   2   5   62.09   16.59
  -2 -10   5   45.62   13.00
   2 -10   5   69.67    9.01
  -2  10   5   48.31    9.27
  10   2  -5   45.05    8.81
  10  -2  -5   49.82    9.82
   2 -10  -5   62.01   15.27
  -2 -10  -5   78.29   15.10
  -2  10   5   79.31   14.17
   2  10   5   57.58   10.48
  -2  10  -5   56.70   13.93
   2  10  -5   80.08   15.51
  -2 -10  -6   80.82   20.21
 -10   2  -6   88.82   21.05
 -10  -2  -6   97.09   17.49
 -10  -2   6   84.21   19.39
 -10   2   6   85.04   22.51
  -2 -10   6   81.02   14.79
   2 -10   6   88.57   15.05
  -2  10   6   69.40   13.67
  10   2  -6   84.84   13.02
  10  -2  -6   77.21   18.45
 -10  -2  -6   52.09    8.76
   2 -10  -6   96.51   24.64
  -2 -10  -6   92.22   21.65
  -2  10   6  105.18   19.55
   2  10   6   94.55   21.23
  -2  10  -6   89.43   16.61
   2  10  -6   94.58   20.23
  -2 -10  -7   16.33    4.81
 -10   2  -7   16.69    6.58
 -10  -2  -7   17.93   11.28
 -10  -2   7   12.73    6.19
 -10   2   7   20.64    8.06
  -2 -10   7   22.03    8.03
   2 -10   7   14.82    5.20
  -2  10   7   11.26    4.27
  10   2  -7   25.57    6.73
  10  -2  -7   12.08    4.21
 -10  -2  -7   12.99    4.57
   2 -10  -7   25.86    7.36
  -2 -10  -7   17.62    8.52
  -2  10   7   15.11    7.19
   2  10   7   29.36    6.67
  -2  10  -7   31.48   11.02
   2  10  -7    7.42    5.98
  -2 -10  -8  149.89   15.58
 -10   2  -8  160.89   25.79
 -10  -2  -8  140.28   31.21
 -10  -2   8  153.34   26.16
 -10   2   8  138.21   35.36
  -2 -10   8  132.60   19.87
   2 -10   8  140.95   18.51
  -2  10   8  109.98   23.57
  10   2  -8  139.32   19.18
  10  -2  -8  168.17   12.14
   2 -10  -8  149.52   35.91
  -2 -10  -8  156.18   27.51
   2  10   8  129.46   25.36
  -2  10  -8  121.17   26.19
   2  10  -8  159.18   23.96
  -2 -10  -9   88.13   22.72
 -10   2  -9   75.57   17.39
 -10  -2  -9   83.74   15.45
 -10  -2   9  105.93   20.91
 -10   2   9   69.95   17.43
  -2 -10   9   88.40   16.50
   2 -10   9   63.16   15.36
  -2  10   9   50.99   15.75
  10   2  -9   98.81   15.69
  10  -2  -9   55.35   13.82
 -10  -2  -9   50.43   10.90
  -2 -10  -9   77.87   10.82
   2  10   9   83.02   15.78
  -2  10  -9   92.36   18.22
   2  10  -9   87.51   12.84
  -2 -10 -10  104.86   31.47
 -10   2 -10   94.89   26.78
 -10  -2 -10  105.71   20.44
 -10  -2  10   97.71   10.12
 -10   2  10   96.45   24.77
  -2 -10  10  100.71   15.62
   2 -10  10   82.82   20.46
  -2  10  10   80.27   26.91
  10   2 -10  115.23   23.12
  10  -2 -10  122.70   18.41
 -10  -2 -10   62.23   14.12
   2 -10 -10  100.35   22.25
  -2 -10 -10   75.39   20.24
   2  10  10   75.19   17.67
  -2  10 -10  102.64   24.09
   2  10 -10  103.34   20.79
  -2 -10 -11  139.54   33.64
 -10   2 -11  141.34   33.76
 -10  -2 -11  145.84   29.10
 -10  -2  11  118.11   23.82
 -10   2  11  168.59   37.08
  -2 -10  11  125.99   35.15
   2 -10  11  151.50   20.12
  -2  10  11  104.67   31.14
  10   2 -11  152.64   26.79
  10  -2 -11  135.41   18.98
 -10  -2 -11  128.72   17.25
   2 -10 -11  136.38   36.99
  -2 -10 -11  142.96   12.94
  -2  10 -11  143.78   33.61
   2  10 -11  152.69   29.24
  -2 -10 -12  155.52   30.35
 -10   2 -12  210.34   41.16
 -10  -2 -12  184.81   33.64
 -10  -2  12  185.12   39.84
 -10   2  12  246.66   14.93
  -2 -10  12  213.33   31.91
   2 -10  12  174.98   24.90
  -2  10  12  183.98   28.46
   2  10 -12  179.95   36.16
  10   2 -12  235.76   35.97
  10  -2 -12  176.02   32.69
   2 -10 -12  193.54   41.98
  -2 -10 -12  173.80   34.63
  -2  10 -12  209.18   41.15
   2  10 -12  182.31   35.93
  -2 -10 -13  234.59   35.73
 -10   2 -13  244.13   34.98
 -10  -2 -13  199.75   37.08
 -10  -2  13  248.02   25.00
 -10   2  13  229.63   42.59
  -2 -10  13  225.73   29.99
   2 -10  13  219.52   37.67
  -2  10  13  250.87   17.76
  -2  10 -13  156.89   44.21
   2  10 -13  255.59   15.25
  10   2 -13  266.39   37.32
  10  -2 -13  262.41   27.09
   2 -10 -13  254.05   19.60
  -2 -10 -13  212.32   53.15
  -2  10 -13  218.08   37.06
   2  10 -13  229.64   50.60
 -10   2 -14   39.58    9.85
 -10  -2 -14   53.46   13.25
 -10  -2  14   31.64   11.16
 -10   2  14   39.07   18.28
  -2 -10  14   32.56    9.33
   2 -10  14   24.34   13.56
  -2  10  14   21.88    7.89
  -2  10 -14   39.36   15.20
   2  10 -14   31.63   18.51
  10   2 -14   53.33   15.86
  10  -2 -14   46.31   11.71
   2 -10 -14   33.94    9.46
  -2 -10 -14   19.66   14.34
  -2  10 -14   46.19   11.87
   2  10 -14   46.26   14.95
 -10   2 -15   84.66   16.52
 -10  -2 -15   96.41   16.12
 -10  -2  15   90.75   18.37
 -10   2  15   82.18   21.22
  -2 -10  15   66.33   25.32
   2 -10  15   64.04   24.76
  -2  10  15   61.85   28.67
   2  10  15   28.17   20.81
  -2  10 -15   80.74   32.67
   2  10 -15   66.51   29.06
  10   2 -15  112.80   22.84
  10  -2 -15  117.53   24.13
   2 -10 -15   73.04   22.71
  -2 -10 -15   81.04   35.62
  -2  10 -15   79.41   20.35
   2  10 -15   72.29   21.72
 -10   2 -16  204.31   56.28
 -10  -2 -16  221.14   60.27
 -10  -2  16  218.41   46.87
 -10   2  16  227.73   46.76
  -2 -10  16  263.84   24.50
   2 -10  16  220.40   30.35
  -2  10  16  149.96   49.88
   2  10  16  245.88   15.47
  -2  10 -16  191.93   49.10
   2  10 -16  230.31   46.13
  10   2 -16  224.68   45.33
  10  -2 -16  222.48   39.04
   2 -10 -16  216.12   33.07
  -2 -10 -16  151.28   60.78
   2  10 -16  161.47   50.56
 -10   2 -17   17.20    8.95
 -10  -2 -17   23.89    9.44
 -10  -2  17   20.65    9.44
 -10   2  17   11.05    5.44
  -2 -10  17   16.71    7.76
   2 -10  17    5.20    5.12
  -2  10  17    7.96    7.15
   2  10  17   21.12   11.67
  -2  10 -17   14.67   10.10
   2  10 -17   15.98    9.05
  10   2 -17   25.61    8.52
  10  -2 -17   13.16    8.14
   2 -10 -17   10.05    7.50
  -2 -10 -17    6.30    7.28
   2  10 -17   11.92    8.12
  -3 -10   0   89.58   24.01
 -10   3   0   94.47    9.95
 -10  -3   0   99.79   17.65
 -10  -3   0   74.02    9.99
   3 -10   0  111.42   22.46
  -3  10   0  106.08   31.05
   3  10   0   95.82   25.96
  -3 -10  -1  344.36   29.56
 -10   3  -1  364.25   16.55
 -10  -3  -1  365.06   19.36
  -3 -10   1  392.49   16.79
 -10   3   1  366.27   17.36
 -10  -3   1  369.09   45.07
   3 -10  -1  381.87   32.73
  -3 -10  -1  342.94   47.20
  -3  10   1  350.44   36.42
  -3  10  -1  366.86   25.85
   3  10   1  358.39   17.66
   3  10  -1  352.89   18.03
  -3 -10  -2   13.71    6.35
 -10   3  -2   14.97    4.86
 -10  -3  -2   16.03    9.50
  -3 -10   2   14.10    6.93
 -10   3   2   25.85    5.80
 -10  -3   2   16.29    8.33
  10  -3  -2    7.82    2.21
   3 -10  -2   18.86    5.89
  -3 -10  -2   11.59    7.28
  -3  10   2   10.28    5.33
  -3  10  -2   21.62    8.17
   3  10   2   21.30    8.84
   3  10  -2   11.64    6.67
  -3 -10  -3  310.62   16.57
 -10   3  -3  248.59   16.77
 -10  -3  -3  278.02   19.43
  -3 -10   3  284.71   21.32
 -10   3   3  287.19   16.56
 -10  -3   3  288.20   18.51
  10  -3  -3  255.46   14.40
   3 -10  -3  305.44   29.83
  -3 -10  -3  347.32   40.60
  -3  10   3  304.09   50.02
  -3  10  -3  270.40   23.79
   3  10   3  285.35   29.41
   3  10  -3  289.02   36.74
  -3 -10  -4  616.26   28.38
 -10   3  -4  636.04   33.37
 -10  -3  -4  620.85   31.99
 -10  -3   4  585.52   31.15
 -10   3   4  595.51   33.08
  -3 -10   4  579.86   29.67
   3 -10   4  584.08   24.53
  10  -3  -4  600.96   26.16
   3 -10  -4  617.13   32.23
  -3 -10  -4  621.21   31.83
  -3  10   4  630.67   36.65
  -3  10  -4  540.20   35.21
   3  10   4  663.97   33.83
   3  10  -4  614.74   32.79
  -3 -10  -5  181.09   21.40
 -10   3  -5  191.88   22.38
 -10  -3  -5  201.40   35.70
 -10  -3   5  195.67   42.82
 -10   3   5  182.11   11.46
  -3 -10   5  164.16   27.07
   3 -10   5  163.76    9.73
  10   3  -5  196.28   16.44
  10  -3  -5  177.85   15.01
 -10  -3  -5  160.39   12.58
   3 -10  -5  181.80   15.15
  -3 -10  -5  177.48   32.36
  -3  10   5  182.46   21.79
  -3  10  -5  164.57   23.24
   3  10   5  178.88   23.95
   3  10  -5  186.12   30.86
  -3 -10  -6   53.05   13.44
 -10   3  -6   56.51   10.07
 -10  -3  -6   66.02   11.25
 -10  -3   6   53.28   15.72
 -10   3   6   59.51   12.42
  -3 -10   6   63.50   12.02
   3 -10   6   41.15    8.67
  -3  10   6   33.19    8.42
  10   3  -6   55.58   10.51
  10  -3  -6   32.59    7.79
 -10  -3  -6   33.29    8.10
   3 -10  -6   56.67   11.30
  -3 -10  -6   43.16   11.68
  -3  10   6   54.72   12.32
  -3  10  -6   66.69   14.90
   3  10   6   58.01   13.66
   3  10  -6   49.75   10.09
  -3 -10  -7   16.82    5.02
 -10   3  -7   10.33    4.56
 -10  -3  -7   10.65    8.89
 -10  -3   7   34.24    8.51
 -10   3   7   19.49    5.58
  -3 -10   7   18.69   14.12
   3 -10   7   19.46    4.77
  -3  10   7   15.90    5.28
  10   3  -7   14.06    4.61
  10  -3  -7   16.16    7.67
 -10  -3  -7   10.86    2.72
   3 -10  -7   11.88    5.36
  -3 -10  -7   15.10    8.78
   3  10   7   19.70    5.81
  -3  10  -7   18.37    6.93
   3  10  -7   24.54    7.77
 -10   3  -8  862.65   32.81
 -10  -3  -8  884.07   35.24
 -10  -3   8  820.20   27.43
 -10   3   8  991.36   46.91
   3 -10   8  829.84   17.75
  -3  10   8  848.55   20.66
  10   3  -8  872.50   31.41
  10  -3  -8  827.97   22.78
 -10  -3  -8  870.16   30.43
   3 -10  -8  847.53   25.39
  -3 -10  -8  852.00   24.98
   3  10   8  907.25   33.77
  -3  10  -8  869.22   35.73
   3  10  -8  823.14   24.09
  -3 -10  -9   62.48   14.96
 -10   3  -9   44.18   10.36
 -10  -3  -9   41.59   12.93
 -10  -3   9   57.65   13.58
 -10   3   9   62.27   12.22
  -3 -10   9   34.74   13.75
   3 -10   9   28.09    9.98
  -3  10   9   23.65    9.91
  10   3  -9   57.42    9.73
 -10  -3  -9   41.84   11.52
   3 -10  -9   36.82    9.68
  -3 -10  -9   44.53   12.42
   3  10   9   33.85   11.97
  -3  10  -9   29.17    7.55
   3  10  -9   43.71    9.85
  -3 -10 -10  121.07   27.89
 -10   3 -10   89.96   29.96
 -10  -3 -10  111.36   20.02
 -10  -3  10   96.96   20.41
 -10   3  10   97.81   26.00
  -3 -10  10  123.68   26.20
   3 -10  10   94.61   22.22
  -3  10  10   92.03   22.61
  10   3 -10  121.55   19.23
  10  -3 -10   97.90   25.60
 -10  -3 -10   99.02   10.26
   3 -10 -10  129.43   26.55
  -3 -10 -10   92.37   20.77
   3  10  10  103.50   25.54
  -3  10 -10  115.09   24.65
   3  10 -10  112.54   32.34
  -3 -10 -11  201.84   39.86
 -10   3 -11  216.67   39.68
 -10  -3 -11  191.08   24.78
 -10  -3  11  180.66   44.97
 -10   3  11  187.03   40.96
  -3 -10  11  182.41   33.01
   3 -10  11  185.15   23.67
  -3  10  11  157.84   20.09
  10   3 -11  202.09   29.61
  10  -3 -11  179.28   30.36
 -10  -3 -11  135.80   20.05
   3 -10 -11  206.69   15.04
  -3 -10 -11  190.79   13.34
  -3  10 -11  214.26   41.10
   3  10 -11  202.31   42.46
  -3 -10 -12   59.10   15.02
 -10   3 -12   38.24    9.77
 -10  -3 -12   43.03   15.59
 -10  -3  12   51.23   10.69
 -10   3  12   43.65   10.46
  -3 -10  12   49.91   12.49
   3 -10  12   43.92    8.44
   3  10 -12   32.36   12.75
  10   3 -12   49.04    9.50
  10  -3 -12   59.35    9.51
 -10  -3 -12   24.08   12.94
   3 -10 -12   44.66   21.64
  -3 -10 -12   29.68   14.00
  -3  10 -12   39.60   13.43
   3  10 -12   59.19   14.51
  -3 -10 -13   35.61   13.91
 -10   3 -13   36.19   10.98
 -10  -3 -13   49.49   13.60
 -10  -3  13   34.56   13.56
 -10   3  13   57.23   11.11
  -3 -10  13   51.03   11.55
   3 -10  13   40.20   12.93
  -3  10  13   31.14   16.03
   3  10 -13   55.24   16.99
  10   3 -13   55.68   11.41
  10  -3 -13   33.98   11.55
   3 -10 -13   45.43   18.20
  -3 -10 -13   46.25   14.16
  -3  10 -13   51.04   17.33
   3  10 -13   46.24   14.54
  -3 -10 -14   48.68   16.90
 -10   3 -14   97.15   17.84
 -10  -3 -14   67.10   18.71
 -10  -3  14   51.47   23.13
 -10   3  14   66.05   24.48
  -3 -10  14   88.56   18.59
   3 -10  14   58.44   21.48
  -3  10  14   49.02   18.85
  -3  10 -14   66.28   20.77
   3  10 -14   63.84   23.11
  10   3 -14   76.39   20.70
  10  -3 -14   66.86   22.61
   3 -10 -14   57.24   19.02
  -3 -10 -14   56.69   24.41
  -3  10 -14   62.04   16.72
   3  10 -14   67.09   24.34
  -3 -10 -15  109.79   42.63
 -10  -3 -15  139.25   34.61
 -10  -3  15  118.07   42.31
  -3 -10  15  136.64   39.01
   3 -10  15  148.08   21.66
  -3  10  15  113.71   32.83
  -3  10 -15  136.35   30.84
   3  10 -15  137.17   40.40
  10   3 -15  154.31   36.71
  10  -3 -15  158.93   18.97
   3 -10 -15  117.57   26.65
  -3 -10 -15  118.90   38.64
   3  10 -15  120.84   35.74
 -10   3 -16   12.51    8.34
 -10  -3  16   21.80   11.55
 -10   3  16   17.40    9.15
  -3 -10  16    9.97    7.29
   3 -10  16    9.34    9.63
  -3  10  16   11.70    5.91
   3  10  16   12.04    6.73
  -3  10 -16   23.04   10.99
   3  10 -16   23.17    8.75
  10   3 -16   15.73    8.49
  10  -3 -16   18.22    6.85
   3 -10 -16   11.45   10.19
  -3 -10 -16   12.98    8.55
   3  10 -16   12.87    9.87
 -10   4   0  249.67   16.68
  -4 -10   0  197.13   12.41
 -10  -4   0  202.01   28.06
  10  -4   0  159.58    7.22
   4 -10   0  191.49   21.44
 -10  -4   0  191.13    9.88
  -4  10   0  200.07   25.25
   4  10   0  186.59   27.89
 -10   4  -1   62.94   13.44
  -4 -10  -1   82.63   14.10
 -10  -4  -1   56.42    9.66
 -10   4   1   46.71   12.50
  -4 -10   1   65.28   16.71
 -10  -4   1   76.46   12.53
  10  -4  -1   33.85    7.96
 -10  -4  -1   34.36    8.36
   4 -10  -1   62.74    9.73
  -4 -10  -1   58.54   10.65
  -4  10   1   71.74   15.39
  -4  10  -1   77.62   22.16
   4  10   1   87.42   17.00
   4  10  -1   75.41   19.93
 -10   4  -2  333.77   18.17
  -4 -10  -2  338.54   18.64
 -10  -4  -2  341.55   19.97
 -10   4   2  339.13   25.21
  -4 -10   2  362.87   18.85
 -10  -4   2  308.07   36.84
  10  -4  -2  295.68   13.51
 -10  -4  -2  340.08   21.25
   4 -10  -2  313.43   28.46
  -4 -10  -2  356.99   20.69
  -4  10   2  343.76   21.26
  -4  10  -2  365.62   25.84
   4  10   2  357.34   19.97
   4  10  -2  318.45   25.77
 -10   4  -3  108.45    9.74
  -4 -10  -3   89.64   15.23
 -10  -4  -3   85.47   14.66
 -10   4   3   96.59   19.65
  -4 -10   3   84.25   14.77
 -10  -4   3  105.18   21.24
  10  -4  -3   85.43   14.36
 -10  -4  -3   72.74   14.42
   4 -10  -3   95.01   11.50
  -4 -10  -3   97.58   17.45
  -4  10   3  108.02   25.38
  -4  10  -3   77.57   25.00
   4  10   3   86.83   23.97
   4  10  -3  121.92   26.00
 -10   4  -4  233.51   36.30
  -4 -10  -4  230.68   12.39
 -10  -4  -4  249.19   15.51
 -10   4   4  244.89   17.07
 -10  -4   4  240.26   30.51
  -4 -10   4  237.46   27.39
  10  -4  -4  221.36   10.79
 -10  -4  -4  252.32   18.27
   4 -10  -4  276.09   30.72
  -4 -10  -4  200.66   44.70
  -4  10   4  244.30   29.60
  -4  10  -4  255.88   29.16
   4  10   4  251.58   26.02
   4  10  -4  237.91   41.99
 -10   4  -5   77.48   17.96
  -4 -10  -5   55.14   16.79
 -10  -4  -5   66.06   17.02
 -10  -4   5   65.50   15.29
 -10   4   5   59.87   15.44
  -4 -10   5   51.52   11.71
  10  -4  -5   46.50   11.71
 -10  -4  -5   28.09    9.50
   4 -10  -5   51.90   14.13
  -4 -10  -5   52.37   12.96
  -4  10   5   54.85   15.74
  -4  10  -5   43.84   10.53
   4  10   5   39.15   10.33
   4  10  -5   61.46   14.67
 -10   4  -6  210.41   20.26
  -4 -10  -6  221.44   18.18
 -10  -4  -6  231.82   19.68
 -10  -4   6  215.44   36.97
 -10   4   6  217.87   12.99
  -4 -10   6  191.82   34.81
   4 -10   6  190.50   10.40
  10   4  -6  205.47   14.90
  10  -4  -6  189.24   23.52
 -10  -4  -6  189.30   14.21
   4 -10  -6  224.52   42.75
  -4 -10  -6  218.07   38.28
  -4  10  -6  217.42   25.08
   4  10   6  209.20   28.07
   4  10  -6  211.27   30.43
 -10   4  -7  310.82   31.92
  -4 -10  -7  337.71   28.48
 -10  -4  -7  281.70   29.07
 -10  -4   7  288.41   59.01
  -4 -10   7  304.68   29.14
 -10   4   7  315.87   35.46
   4 -10   7  297.02   13.01
  10   4  -7  300.68   17.24
  10  -4  -7  296.41   22.69
 -10  -4  -7  268.48   20.27
   4 -10  -7  286.26   20.93
  -4 -10  -7  336.84   18.57
  -4  10  -7  307.26   27.24
   4  10   7  304.76   21.35
   4  10  -7  338.51   46.19
 -10   4  -8  361.35   26.27
  -4 -10  -8  337.13   35.85
 -10  -4  -8  292.69   61.19
 -10  -4   8  389.68   56.24
  -4 -10   8  295.49   23.39
 -10   4   8  362.73   22.09
   4 -10   8  338.54   12.35
  -4  10   8  310.05   17.68
  10  -4  -8  306.67   34.91
 -10  -4  -8  278.07   17.83
   4 -10  -8  303.32   33.20
  -4 -10  -8  279.01   53.09
  -4  10  -8  326.97   22.53
   4  10   8  341.78   16.59
   4  10  -8  353.96   40.95
 -10   4  -9  130.47   24.85
  -4 -10  -9  161.91   35.64
 -10  -4  -9  158.36   31.76
 -10  -4   9  130.29   29.10
  -4 -10   9  133.71   16.20
 -10   4   9  160.82   29.54
   4 -10   9  131.55   19.02
  -4  10   9  118.74   18.53
  10   4  -9  150.69   24.41
  10  -4  -9  124.53   29.05
 -10  -4  -9  118.93   19.10
   4 -10  -9  140.21   27.81
  -4 -10  -9  147.53   19.88
   4  10   9  130.41   27.24
  -4  10  -9  150.54   26.30
   4  10  -9  150.65   31.62
 -10   4 -10  219.32   33.76
  -4 -10 -10  204.34   30.73
 -10  -4 -10  236.47   32.06
 -10  -4  10  211.91   47.91
  -4 -10  10  231.67   25.16
 -10   4  10  221.56   32.72
   4 -10  10  183.48   12.48
  -4  10  10  168.49   15.65
  10   4 -10  228.98   37.67
  10  -4 -10  180.51   23.04
 -10  -4 -10  200.83   17.62
   4 -10 -10  205.45   36.70
  -4 -10 -10  143.05   33.64
   4  10  10  206.16   13.78
  -4  10 -10  210.09   33.00
   4  10 -10  199.88   43.41
 -10   4 -11  139.89   33.63
  -4 -10 -11  109.29   33.51
 -10  -4 -11  140.92   41.20
 -10  -4  11  139.63   30.45
  -4 -10  11  135.94   14.30
 -10   4  11  130.42   33.32
   4 -10  11   84.64   23.28
  -4  10  11  104.93    9.89
  10   4 -11  136.30   26.85
  10  -4 -11  134.81   33.96
 -10  -4 -11   83.29   23.97
   4 -10 -11   94.19   30.31
  -4 -10 -11  117.47   12.07
  -4  10 -11  122.33   28.67
   4  10 -11  158.48   33.70
 -10   4 -12   14.04    7.28
  -4 -10 -12    2.08    5.20
 -10  -4 -12   14.94    8.81
 -10  -4  12   21.41    8.84
  -4 -10  12   13.15    6.83
 -10   4  12   12.83    8.56
   4 -10  12   18.78    5.73
  -4  10  12   11.49    6.08
  10   4 -12   20.01    7.61
  10  -4 -12    9.63    7.20
 -10  -4 -12   10.82    6.42
   4 -10 -12   16.10   10.10
  -4 -10 -12   14.34   10.33
  -4  10 -12   19.47    8.42
   4  10 -12   16.25    9.05
 -10   4 -13   24.00    8.79
  -4 -10 -13   28.08    8.63
 -10  -4 -13   14.20    8.39
 -10  -4  13   36.60   16.57
  -4 -10  13   39.90   10.13
 -10   4  13   22.53   12.45
   4 -10  13   39.75   11.54
  -4  10  13   26.51   13.06
   4  10 -13   29.21   18.47
  10   4 -13   25.08    7.44
  10  -4 -13   29.97   13.92
 -10  -4 -13   17.64    8.40
   4 -10 -13   40.44   12.31
  -4 -10 -13   58.30   11.03
  -4  10 -13   29.44    9.51
   4  10 -13   49.24   16.78
  -4 -10 -14  105.66   33.49
 -10  -4 -14  127.62   21.18
 -10  -4  14   87.74   32.19
  -4 -10  14  150.42   23.42
   4 -10  14   71.22   28.83
  -4  10  14   77.19   25.67
   4  10 -14   88.66   35.88
  10   4 -14  135.48   36.14
  10  -4 -14   88.34   29.04
   4 -10 -14  103.31   34.38
  -4 -10 -14   97.92   33.69
  -4  10 -14  123.43   24.68
   4  10 -14  102.68   31.84
 -10   4 -15    4.94    4.66
  -4 -10 -15   18.37    8.35
 -10  -4 -15   20.80    9.96
 -10  -4  15   11.11    6.82
  -4 -10  15    5.24    7.80
 -10   4  15   10.00    7.04
  -4  10 -15   15.00    7.71
   4  10 -15   11.75    9.39
  10   4 -15   16.53    8.03
  10  -4 -15    7.83   10.10
   4 -10 -15   11.49   10.38
  -4 -10 -15    6.08    4.95
   4  10 -15   26.70   10.77
  -4 -10 -16    1.29    4.93
 -10  -4 -16   11.66    8.30
 -10  -4  16    8.25    8.44
  -4 -10  16   22.16    9.08
 -10   4  16    5.61    6.58
   4 -10  16    2.88    6.11
  -4  10 -16    5.06    3.31
   4  10 -16    0.88    3.82
  10   4 -16    7.01    7.68
  10  -4 -16    9.77    6.39
   4 -10 -16   21.77   10.56
  -4 -10 -16   14.61    9.92
   4  10 -16    8.37    5.52
 -10   5   0   92.06   14.81
  -5 -10   0  128.23   24.67
 -10  -5   0   72.93   30.15
  10  -5   0   65.96    9.88
   5 -10   0   98.67   10.82
 -10  -5   0   62.47   18.03
  -5  10   0  122.07   27.27
   5  10   0  117.40   20.61
 -10   5  -1  980.81   32.88
  -5 -10  -1  981.47   36.78
 -10   5   1  992.56   34.42
 -10  -5  -1  970.43   35.85
  -5 -10   1 1022.98   38.64
 -10  -5   1  945.36   35.71
  10  -5  -1  948.61   29.74
  10  -5   1  929.19   28.61
   5 -10  -1  975.70   42.48
 -10  -5  -1 1005.25   32.49
  -5 -10  -1  917.36   34.07
   5 -10   1  959.36   34.17
  -5  10   1  984.35   45.23
  -5  10  -1  967.93   50.98
   5  10   1  989.59   39.18
   5  10  -1  985.07   36.86
 -10   5  -2  472.61   18.42
  -5 -10  -2  508.86   22.28
 -10  -5  -2  400.90   28.02
 -10   5   2  449.04   18.55
  -5 -10   2  428.54   18.23
 -10  -5   2  514.44   36.30
  10  -5  -2  466.53   18.61
 -10  -5  -2  422.01   15.60
   5 -10  -2  425.88   31.99
  -5 -10  -2  500.76   22.59
  -5  10   2  485.77   30.22
  -5  10  -2  461.62   40.75
   5  10   2  433.19   19.20
   5  10  -2  530.07   24.02
 -10   5  -3   71.35   20.74
  -5 -10  -3   69.93   18.68
 -10  -5  -3   88.35   18.54
 -10   5   3  103.99   21.15
  -5 -10   3   79.72   17.89
 -10  -5   3   72.56   13.92
  10  -5  -3   84.11   13.08
 -10  -5  -3   82.73   15.20
  10  -5   3   54.71    7.26
   5 -10  -3   82.96   21.33
  -5 -10  -3   81.62   20.58
  -5  10   3   82.20   19.12
  -5  10  -3   99.29   20.64
   5  10   3   72.91   21.64
   5  10  -3   89.92   18.58
 -10   5  -4   91.63   21.09
  -5 -10  -4  103.70   11.01
 -10  -5  -4   98.31   12.42
 -10   5   4   97.67   21.34
  -5 -10   4  101.90   24.46
 -10  -5   4   96.80   17.45
  10  -5  -4   92.29    9.88
 -10  -5  -4   74.30   12.67
   5 -10  -4  128.01   16.18
  -5 -10  -4   86.69   21.34
  -5  10   4  105.67   21.56
  -5  10  -4   99.09   21.18
   5  10   4  104.94   19.78
   5  10  -4  102.85   21.99
 -10   5  -5  440.35   27.75
  -5 -10  -5  453.15   20.87
 -10  -5  -5  486.24   25.89
 -10  -5   5  414.93   38.06
  -5 -10   5  497.45   23.36
 -10   5   5  464.49   19.89
  10  -5  -5  454.61   21.23
 -10  -5  -5  470.54   18.96
   5 -10  -5  492.68   23.26
  -5 -10  -5  444.72   21.15
  -5  10  -5  493.64   28.96
   5  10   5  469.09   20.85
   5  10  -5  397.89   47.44
 -10   5  -6   32.07    7.00
  -5 -10  -6   22.09    7.33
 -10  -5  -6   27.92    9.43
 -10  -5   6   20.30    8.35
  -5 -10   6   25.14    7.21
 -10   5   6   29.23    6.40
  10  -5  -6   28.69    8.31
 -10  -5  -6   15.58    4.28
   5 -10  -6   26.21    8.60
  -5 -10  -6   40.25   13.23
  -5  10  -6   32.15    8.34
   5  10   6   33.83    7.59
   5  10  -6   33.58   11.59
 -10   5  -7  307.79   17.60
  -5 -10  -7  335.68   14.73
 -10  -5  -7  338.73   53.55
 -10  -5   7  323.05   25.56
  -5 -10   7  329.09   15.50
 -10   5   7  328.02   14.12
  10  -5  -7  368.38   25.79
 -10  -5  -7  333.45   12.18
   5 -10  -7  301.45   25.52
  -5 -10  -7  378.39   18.64
  -5  10  -7  308.92   18.97
   5  10   7  315.62   15.43
   5  10  -7  354.47   16.64
 -10   5  -8   57.90   14.00
  -5 -10  -8   84.92   23.63
 -10  -5  -8   89.45   24.31
 -10  -5   8   54.72   15.39
  -5 -10   8   71.66   17.95
 -10   5   8   66.28   17.24
  10   5  -8   52.44   19.14
  10  -5  -8   62.04   15.70
 -10  -5  -8   45.93   11.80
   5 -10  -8   63.93   21.86
  -5 -10  -8   68.66   18.83
  -5  10  -8   75.90   15.95
   5  10   8   66.44   13.17
   5  10  -8   72.09   17.67
  10   5   8   46.98   12.97
 -10   5  -9   43.38   13.54
  -5 -10  -9   72.34   18.41
 -10  -5  -9   33.48   10.31
 -10  -5   9   64.62   14.01
  -5 -10   9   40.50   12.97
 -10   5   9   31.40    5.98
  10   5  -9   33.66   12.71
  10  -5  -9   37.94   12.20
 -10  -5  -9   25.08   10.28
   5 -10  -9   38.32   11.17
  -5 -10  -9   65.15   14.74
  -5  10  -9   50.52   12.46
   5  10   9   30.86    8.79
   5  10  -9   47.74   17.16
 -10   5 -10  113.59   24.48
  -5 -10 -10  149.79   31.77
 -10  -5 -10  130.47   31.80
 -10  -5  10   90.57   32.11
  -5 -10  10  120.18   21.48
 -10   5  10   99.24   19.88
  10   5 -10  133.63   15.24
  10  -5 -10  110.69   30.57
 -10  -5 -10   97.79   17.68
   5 -10 -10  135.29   18.02
  -5 -10 -10   90.29   31.75
  -5  10 -10  134.92   23.78
   5  10 -10  130.17   32.73
 -10   5 -11  418.24   23.68
  -5 -10 -11  458.69   60.23
 -10  -5 -11  465.14   34.43
 -10  -5  11  491.58   22.33
  -5 -10  11  391.55   30.23
 -10   5  11  375.36   33.69
  10   5 -11  431.20   18.72
  10  -5 -11  405.23   19.26
 -10  -5 -11  446.17   14.74
   5 -10 -11  405.01   19.13
  -5 -10 -11  422.69   18.43
  -5  10 -11  430.59   44.48
   5  10 -11  390.10   56.02
 -10   5 -12    7.65    4.69
  -5 -10 -12    9.81    6.52
 -10  -5 -12    7.57    6.92
 -10  -5  12   -2.69    8.67
  -5 -10  12   13.04    7.16
 -10   5  12   11.36    6.51
  10   5 -12   10.37    6.04
  10  -5 -12    4.50    5.48
 -10  -5 -12    1.43    2.07
   5 -10 -12    9.44    5.92
  -5 -10 -12   13.16   10.09
  -5  10 -12    8.13    5.90
   5  10 -12    6.40    7.80
 -10   5 -13   44.47   18.53
  -5 -10 -13   23.34    9.03
 -10  -5 -13   36.92   12.30
 -10  -5  13   40.78   13.80
  -5 -10  13   44.98    9.12
 -10   5  13   38.64   14.83
   5  10 -13   36.60   13.21
  10   5 -13   36.72   12.21
  10  -5 -13   40.74   14.81
 -10  -5 -13   13.92   11.29
   5 -10 -13   48.31   15.70
  -5 -10 -13   18.82    6.48
  -5  10 -13   33.83   11.06
   5  10 -13   49.96   12.86
 -10   5 -14  100.85   23.91
  -5 -10 -14   90.32   35.32
 -10  -5 -14  114.38   29.08
 -10  -5  14   87.15   37.28
  -5 -10  14   97.67   29.70
 -10   5  14  101.83   22.85
   5  10 -14   89.21   25.97
  10   5 -14   95.21   38.24
  10  -5 -14   86.71   37.66
   5 -10 -14   99.88   33.78
  -5 -10 -14   91.65   29.23
  -5  10 -14   83.09   18.01
   5  10 -14  108.28   30.18
  -5 -10 -15   72.70   18.90
 -10  -5 -15   72.18   21.24
 -10  -5  15   48.58   16.50
  -5 -10  15   69.01   17.15
   5  10 -15   61.47   21.65
  10   5 -15   65.04   22.52
  10  -5 -15   46.87   22.58
   5 -10 -15   64.67   19.64
  -5 -10 -15   72.13   15.66
   5  10 -15   64.70   16.92
  -5 -10 -16    8.06    5.97
 -10  -5 -16   13.36   11.59
 -10  -5  16   20.50   11.26
  -5 -10  16   16.87    8.86
 -10   5  16    7.61    6.37
  10  -5  16   14.36    7.80
   5  10 -16    9.46    7.71
  10   5 -16    9.41    8.91
  10  -5 -16   10.05    8.68
   5 -10 -16   19.14   10.08
  -5 -10 -16   12.93    6.21
   5  10 -16    9.41    6.66
 -10   6   0    1.35    2.60
  -6 -10   0    4.20    5.55
 -10  -6   0    4.33   10.65
  10  -6   0    2.53    1.89
   6 -10   0    5.84    3.10
 -10  -6   0    6.01    4.41
  -6  10   0    5.75    5.16
   6  10   0    4.03    3.65
 -10   6  -1  381.20   17.39
  -6 -10  -1  429.50   19.53
 -10   6   1  387.19   23.49
 -10  -6  -1  408.75   21.58
  -6 -10   1  445.42   19.84
 -10  -6   1  399.96   33.03
  10  -6  -1  345.13   13.08
  10  -6   1  371.89   13.26
   6 -10  -1  360.86   19.56
 -10  -6  -1  422.13   16.44
   6 -10   1  382.61   37.26
  -6  10   1  378.99   23.51
  -6  10  -1  414.97   35.62
   6  10   1  402.35   21.72
   6  10  -1  386.16   37.97
 -10   6  -2   82.95   20.31
  -6 -10  -2   81.16   10.96
 -10  -6  -2   86.74   25.30
 -10   6   2   75.63   11.15
  -6 -10   2   57.40   15.91
 -10  -6   2  100.46   21.91
  10  -6  -2   59.40   13.62
  10  -6   2   58.51    9.47
   6 -10  -2   66.79   16.22
 -10  -6  -2   58.17   14.95
   6 -10   2   91.19   12.58
  -6  10   2   92.14   18.77
  -6  10  -2   76.58   18.35
   6  10   2   66.25   17.90
   6  10  -2   95.37   30.36
 -10   6  -3  249.03   19.95
  -6 -10  -3  256.64   15.47
 -10  -6  -3  313.59   49.63
 -10   6   3  246.09   13.08
  -6 -10   3  273.98   17.31
 -10  -6   3  235.61   45.03
  10  -6  -3  195.23   26.85
   6 -10  -3  234.68   28.33
 -10  -6  -3  239.92   15.51
  10  -6   3  214.88   10.80
  -6  10  -3  239.73   26.31
   6  10   3  251.88   26.92
   6  10  -3  249.66   28.65
 -10   6  -4   79.44   16.77
  -6 -10  -4   69.81   23.10
 -10  -6  -4   61.54   11.18
 -10   6   4   43.00    8.37
  -6 -10   4   76.97   19.06
 -10  -6   4   80.26   14.57
  10  -6  -4   55.94   12.60
 -10  -6  -4   42.02   13.28
   6 -10  -4   62.02   14.56
  -6 -10  -4   56.33   12.27
  10  -6   4   34.36    8.53
  -6  10  -4   41.27   11.78
   6  10   4   53.81   12.52
   6  10  -4   70.37   22.30
 -10   6  -5    4.97    5.01
  -6 -10  -5    8.43    5.19
 -10  -6  -5    6.75    6.09
  -6 -10   5   13.62    6.86
 -10  -6   5   10.37    5.27
 -10   6   5    7.85    3.23
  10  -6  -5    7.16    3.71
 -10  -6  -5    3.77    2.96
   6 -10  -5   12.56    7.24
  -6 -10  -5    9.63    8.13
  -6  10  -5    8.05    6.13
   6  10   5    6.14    4.26
   6  10  -5   -1.05    6.16
 -10   6  -6    2.63    2.70
  -6 -10  -6    9.19    5.05
 -10  -6  -6    8.59    6.88
 -10  -6   6   11.03    8.45
  -6 -10   6   15.77    8.89
 -10   6   6    5.25    3.92
  10  -6  -6    4.66    4.37
 -10  -6  -6    7.65    5.70
   6 -10  -6   25.07    8.35
  -6 -10  -6   14.65    9.77
  -6  10  -6    9.42    3.22
   6  10   6    4.81    4.96
   6  10  -6    3.04    3.75
  10   6   6    4.97    5.11
 -10   6  -7   50.98   11.51
  -6 -10  -7   63.69   19.61
 -10  -6  -7   60.63   15.21
 -10  -6   7   66.00   21.71
  -6 -10   7   23.93   11.39
 -10   6   7   54.63   11.90
  10  -6  -7   64.30   14.79
 -10  -6  -7   31.07   11.33
   6 -10  -7   44.02   14.15
  -6 -10  -7   50.56   14.66
  -6  10  -7   57.83   14.13
   6  10   7   49.92   11.73
   6  10  -7   61.69   16.87
  10   6   7   48.69   15.70
 -10   6  -8  286.78   24.54
  -6 -10  -8  329.75   21.53
 -10  -6  -8  322.18   54.14
 -10  -6   8  317.43   38.06
  -6 -10   8  258.22   52.55
 -10   6   8  325.42   17.59
  10  -6  -8  338.98   27.07
 -10  -6  -8  284.09   25.81
   6 -10  -8  322.71   32.12
  -6 -10  -8  342.46   37.28
  -6  10  -8  328.38   23.01
   6  10   8  322.55   19.30
   6  10  -8  336.75   38.57
 -10   6  -9   82.91   21.43
  -6 -10  -9   73.78   24.71
 -10  -6  -9   87.98   20.31
 -10  -6   9  105.36   25.53
  -6 -10   9   58.70   16.64
 -10   6   9  112.66   18.42
  10   6  -9   75.63   24.71
  10  -6  -9   93.20   23.88
 -10  -6  -9   63.63   13.54
   6 -10  -9   53.34   22.95
  -6 -10  -9   72.80   25.29
  -6  10  -9   90.43   19.37
   6  10   9   64.96   13.96
   6  10  -9   95.90   20.56
 -10   6 -10  159.13   24.82
  -6 -10 -10  140.28   35.53
 -10  -6 -10  197.60   36.52
 -10  -6  10  159.91   26.60
  -6 -10  10  148.04   44.70
 -10   6  10  162.63   32.83
  10   6 -10  159.16   35.71
  10  -6 -10  154.04   22.54
 -10  -6 -10  156.69   22.68
   6 -10 -10  161.79   23.32
  -6 -10 -10  114.73   38.66
  -6  10 -10  180.89   23.15
   6  10 -10  174.67   33.84
 -10   6 -11   52.28   16.24
  -6 -10 -11   56.05   19.03
 -10  -6 -11   22.83   11.04
 -10  -6  11   42.44   14.89
  -6 -10  11   46.91   14.72
 -10   6  11   56.39   10.44
  10   6 -11   50.49   11.29
  10  -6 -11   38.24   14.62
 -10  -6 -11   34.12   10.71
   6 -10 -11   54.10    9.58
  -6 -10 -11   31.95   18.22
  -6  10 -11   54.57   15.39
   6  10 -11   48.54   15.49
 -10   6 -12   51.37   14.63
  -6 -10 -12   40.33   11.01
 -10  -6 -12   37.10   10.51
 -10  -6  12   20.33   10.10
  -6 -10  12   31.94    9.15
 -10   6  12   34.93    9.37
  10   6 -12   31.21   10.00
  10  -6 -12   26.16   12.46
 -10  -6 -12   15.52    9.66
   6 -10 -12   42.18   11.43
  -6 -10 -12   50.87   10.83
  -6  10 -12   36.42   10.84
   6  10 -12   28.55   13.33
 -10   6 -13  173.51   27.30
  -6 -10 -13  164.74   45.75
 -10  -6 -13  201.78   56.59
 -10  -6  13  193.33   32.32
  -6 -10  13  221.11   33.57
 -10   6  13  188.80   48.76
  10   6 -13  222.30   34.14
  10  -6 -13  191.72   15.76
 -10  -6 -13  149.78   30.15
   6 -10 -13  208.41   31.44
  -6 -10 -13  132.47   41.88
  -6  10 -13  192.65   45.25
   6  10 -13  239.37   55.13
  -6 -10 -14   16.63    6.93
 -10  -6 -14   29.61    9.87
 -10  -6  14   27.08    9.83
  -6 -10  14   24.56    9.89
 -10   6  14   19.68    6.56
  10  -6  14   16.51    7.06
   6  10 -14   23.75   12.69
  10   6 -14   17.02    7.37
  10  -6 -14   21.68    8.19
   6 -10 -14   26.28    9.79
  -6 -10 -14   14.10    7.37
   6  10 -14   18.94   12.44
  -6 -10 -15   36.43   10.93
 -10  -6 -15   51.96   24.96
 -10  -6  15   31.01    8.95
  -6 -10  15   37.37   17.33
 -10   6  15   39.82   13.45
  10  -6  15   36.66   15.15
   6  10 -15   37.60   12.34
  10   6 -15   32.83   14.70
  10  -6 -15   41.96   15.75
   6 -10 -15   68.50   16.08
   6  10 -15   38.02   16.58
  -7 -10   0  118.20   21.00
 -10  -7   0   96.12   11.77
  10  -7   0   79.90   14.19
   7 -10   0  116.72   14.65
 -10  -7   0   72.74   15.86
   7  10   0   81.67   24.77
  -7 -10  -1  141.31   37.45
 -10  -7  -1  188.06   26.39
  -7 -10   1  156.27   32.72
 -10  -7   1  148.78   13.26
  10  -7  -1  109.58   17.29
  10  -7   1  126.53   17.52
   7 -10  -1  139.21   20.11
 -10  -7  -1  116.81   22.66
   7 -10   1  146.08   18.25
  -7 -10  -1  152.98   37.80
  -7  10  -1  184.86   19.92
   7  10   1  186.43   28.13
   7  10  -1  162.10   34.64
 -10   7  -2   47.50   10.68
  -7 -10  -2   54.55   12.76
 -10  -7  -2   82.58   15.97
 -10   7   2   68.94   13.39
  -7 -10   2   71.49   21.90
 -10  -7   2   77.95   17.13
  10  -7  -2   46.43    7.84
   7 -10  -2   76.88   11.85
  10  -7   2   56.19    9.15
 -10  -7  -2   61.68   10.99
  -7 -10  -2   52.71   18.14
   7 -10   2   68.26   15.32
  -7  10  -2   80.32   21.14
   7  10   2   81.29   16.66
   7  10  -2   76.55   23.47
 -10   7  -3   19.35    5.18
  -7 -10  -3   30.54   12.27
 -10  -7  -3   35.30    9.24
 -10   7   3   39.66   11.04
  -7 -10   3   44.27   11.66
 -10  -7   3   24.45    9.44
  10  -7  -3   20.73    4.41
   7 -10  -3   27.64    7.51
 -10  -7  -3   29.39    9.71
  10  -7   3   26.64    8.22
  -7 -10  -3   35.26   11.89
  -7  10  -3   31.59    7.48
   7  10   3   37.67   12.49
   7  10  -3   25.26    9.13
 -10   7  -4  124.25   16.54
  -7 -10  -4  139.28   37.56
 -10   7   4  137.18   24.48
  -7 -10   4  159.76   15.71
  10  -7  -4   94.34   26.64
   7 -10  -4  149.71   23.54
 -10  -7  -4   91.43   18.09
  -7 -10  -4  145.95   37.52
  10  -7   4  120.26   13.67
  -7  10  -4  151.75   17.94
   7  10   4  121.54   27.60
   7  10  -4  142.42   25.98
  10   7   4  156.34   18.93
 -10   7  -5  260.94   10.67
  -7 -10  -5  203.28   48.56
 -10  -7  -5  270.49   21.76
 -10   7   5  284.08   10.78
  -7 -10   5  269.25   44.88
 -10  -7   5  227.57   36.30
  10  -7  -5  211.49   19.16
   7 -10  -5  255.99   29.71
 -10  -7  -5  288.49   24.74
  -7 -10  -5  246.35   15.73
  -7  10  -5  281.28   28.29
   7  10   5  287.52   19.77
   7  10  -5  228.21   50.18
 -10   7  -6   70.59   19.69
  -7 -10  -6   82.09   31.80
 -10  -7  -6   88.61   13.35
  -7 -10   6   72.15   17.46
 -10  -7   6   98.24   26.75
 -10   7   6   70.01   10.95
   7 -10  -6   76.61   19.51
 -10  -7  -6   68.01   23.14
  -7 -10  -6   61.80   18.55
  -7  10  -6  103.32   22.13
   7  10   6   70.57   22.60
   7  10  -6   66.99   16.06
  10   7   6   71.46   20.12
 -10   7  -7  379.24   15.66
  -7 -10  -7  423.70   22.72
 -10  -7  -7  442.06   22.85
 -10  -7   7  392.80   63.77
  -7 -10   7  370.81   54.70
 -10   7   7  378.42   13.93
  10  -7  -7  424.72   20.78
 -10  -7  -7  397.48   15.84
   7 -10  -7  375.03   23.24
  -7 -10  -7  409.20   24.47
  -7  10  -7  400.31   27.52
   7  10   7  377.19   15.09
  10   7   7  404.33   18.67
   7  10  -7  437.90   21.41
 -10   7  -8   81.97   19.68
  -7 -10  -8  137.42   39.26
 -10  -7  -8   98.45   23.22
 -10  -7   8   77.14   34.45
  -7 -10   8  102.38   24.59
 -10   7   8  103.10   19.58
  10  -7  -8   87.02   24.29
 -10  -7  -8   67.03   19.99
   7 -10  -8  100.47   29.29
  -7 -10  -8   82.74   24.04
  -7  10  -8  104.61   21.84
   7  10   8   95.64   20.20
   7  10  -8  106.32   20.89
 -10   7  -9   63.02   14.19
  -7 -10  -9   61.25   16.20
 -10  -7  -9   67.94   23.99
 -10  -7   9   63.61   19.57
  -7 -10   9   58.24   16.79
 -10   7   9   73.47   17.05
  10  -7  -9   66.35   19.35
   7 -10  -9   78.89   14.12
  -7 -10  -9   53.95   21.64
  -7  10  -9   76.23   15.10
   7  10  -9   61.04   17.73
 -10   7 -10   36.90   11.47
  -7 -10 -10   30.12   13.63
 -10  -7 -10   42.90   16.11
 -10  -7  10   37.17   12.62
  -7 -10  10   27.76    7.40
 -10   7  10   17.94    7.37
  10   7 -10   33.56    9.60
  10  -7 -10   31.92   10.50
 -10  -7 -10   26.77    7.76
   7 -10 -10   25.85   13.50
  -7 -10 -10   20.47    9.44
  -7  10 -10   32.01    9.54
   7  10 -10   31.19   12.02
 -10   7 -11  250.94   19.74
  -7 -10 -11  302.74   50.60
  -7 -10  11  258.30   37.71
 -10   7  11  256.30   17.49
  10   7 -11  276.93   20.16
  10  -7 -11  269.65   52.39
 -10  -7 -11  210.61   31.29
   7 -10 -11  270.62   29.86
  -7 -10 -11  255.43   18.15
  -7  10 -11  269.41   34.15
   7  10 -11  335.13   24.84
  -7 -10 -12    5.35    4.06
 -10  -7 -12   26.87    8.96
 -10  -7  12   18.94   11.28
  -7 -10  12   25.25   12.17
 -10   7  12   21.00    5.34
  10   7 -12    8.10    9.23
  10  -7 -12   22.10   10.29
 -10  -7 -12   24.30   10.00
   7 -10 -12   21.80    8.70
  -7 -10 -12   16.00   12.44
  -7  10 -12   22.41    7.88
   7  10 -12   31.86   15.03
  -7 -10 -13    7.86    5.16
 -10  -7 -13   40.85   13.16
 -10  -7  13   22.57    9.49
  -7 -10  13   30.20    9.85
 -10   7  13   17.52    5.31
  10  -7  13   10.68    6.15
  10   7 -13    6.65    5.20
  10  -7 -13   10.98    9.18
   7 -10 -13    9.99    5.41
  -7 -10 -13   33.96   10.32
   7  10 -13   26.83   10.01
  -7 -10 -14   15.32    6.74
 -10  -7 -14   27.51   10.50
 -10  -7  14   18.47    6.36
  -7 -10  14   15.20   11.01
 -10   7  14   20.59    5.32
  10  -7  14   13.18    6.61
  10   7 -14   13.47    9.62
  10  -7 -14   16.33    9.84
   7 -10 -14   25.60   14.62
  -7 -10 -14   22.32    9.05
   7  10 -14    7.39    9.10
  -7 -10 -15    4.11    6.75
 -10  -7 -15   15.54    9.09
 -10  -7  15    6.94    4.98
  -7 -10  15   23.05   12.94
 -10   7  15   13.26    5.45
  10  -7  15    7.40    3.62
   7  10 -15    6.98    5.54
  10   7 -15   21.21    9.93
  10  -7 -15   10.58    8.74
   7 -10 -15   28.86    9.12
  -7 -10 -15   16.69    8.87
   7  10 -15   23.57   13.05
  -8 -10   0    2.63    6.27
 -10  -8   0   14.49    9.84
  10  -8   0    3.94    3.49
   8 -10   0   -1.77    3.65
 -10  -8   0    7.73    3.51
  -8 -10   0    1.78    6.14
   8  10   0    4.73    3.89
  -8 -10  -1  139.61   28.98
 -10  -8  -1  123.45   46.06
  -8 -10   1   94.06   40.64
 -10  -8   1  129.85   35.86
  10  -8  -1  111.78   18.33
  10  -8   1   99.54   13.84
   8 -10   1  116.32   22.11
 -10  -8  -1   91.75   24.00
  -8 -10  -1  132.23   26.38
   8  10   1  142.34   25.11
   8  10  -1  127.29   15.10
  -8 -10  -2   66.04   11.62
 -10  -8  -2   36.78   11.87
  -8 -10   2   36.20    8.04
 -10  -8   2   61.39   18.90
  10  -8  -2   41.50   13.01
   8 -10  -2   42.85   16.32
  10  -8   2   35.30    8.41
 -10  -8  -2   30.07    7.10
  -8 -10  -2   58.66   17.16
   8  10   2   55.89   16.23
   8  10  -2   67.42   25.17
  10   8   2   75.00   17.20
  -8 -10  -3  228.55   29.21
 -10  -8  -3  235.62   48.32
  -8 -10   3  274.35   40.53
 -10  -8   3  253.87   50.74
  10  -8  -3  251.70   25.69
   8 -10  -3  272.91   28.67
 -10  -8  -3  271.28   13.82
  -8 -10  -3  261.93   16.45
  10  -8   3  244.67   15.18
   8  10   3  269.34   30.46
   8  10  -3  305.97   32.22
  10   8   3  253.09   31.95
  -8 -10  -4   14.31    8.32
 -10  -8  -4   10.93    7.64
  -8 -10   4   34.55   12.53
 -10  -8   4   14.33    7.64
  10  -8  -4    4.26    3.20
   8 -10  -4   18.44    7.73
 -10  -8  -4    7.63    5.68
  -8 -10  -4    3.73    4.98
  10  -8   4   13.00    5.04
   8  10   4   14.73    8.22
   8  10  -4   22.50    7.79
  10   8   4   10.28    6.21
  -8 -10  -5   20.24    7.23
 -10  -8  -5   38.16   10.26
 -10  -8   5   36.75   14.16
  -8 -10   5   32.96   15.33
  10  -8  -5   34.91    6.88
   8 -10  -5   45.62   13.75
 -10  -8  -5   27.77   12.23
  -8 -10  -5   37.24   16.08
  -8  10  -5   56.74   14.48
   8  10   5   34.84   13.11
  10   8   5   43.11   14.13
   8  10  -5   39.48   10.77
  -8 -10  -6  123.09   36.98
 -10  -8  -6  115.14   16.07
  -8 -10   6   77.13   25.68
 -10  -8   6  112.76   27.57
  10  -8  -6  100.71   27.12
   8 -10  -6   97.65   21.43
 -10  -8  -6   81.49   16.50
  -8 -10  -6   74.45   31.60
  -8  10  -6  117.35   24.84
   8  10   6   72.83   24.36
  10   8   6   94.15   27.56
   8  10  -6  129.85   28.62
  -8 -10  -7  117.42   29.56
 -10  -8  -7   98.49   35.06
 -10  -8   7  103.63   24.45
  -8 -10   7   94.38   27.66
  10  -8  -7  123.08   24.29
   8 -10  -7   97.16   27.78
 -10  -8  -7   60.82   21.57
  -8 -10  -7   82.30   26.94
  -8  10  -7   99.36   23.59
   8  10   7  100.05   23.66
  10   8   7  100.10   18.24
   8  10  -7  129.22   32.11
  -8 -10  -8    3.63    5.72
 -10  -8  -8   15.58    8.59
 -10  -8   8   11.89   11.24
  -8 -10   8    0.09    4.23
  10  -8  -8    3.91    5.13
   8 -10  -8    7.20    7.66
 -10  -8  -8    7.29    4.24
  -8 -10  -8   11.97    8.86
  -8  10  -8    6.29    5.85
   8  10   8    1.06    1.91
   8  10  -8    6.49    5.81
  -8 -10  -9  122.78   34.04
 -10  -8  -9  152.85   29.59
 -10  -8   9   93.82   45.06
  -8 -10   9  124.58   38.73
  10  -8  -9  113.04   33.15
   8 -10  -9  112.28   17.01
 -10  -8  -9   91.58   17.23
  -8 -10  -9  115.95   23.99
  -8  10  -9  128.78   25.01
   8  10  -9  143.74   23.16
  -8 -10 -10   72.34   22.56
 -10  -8 -10   83.59   24.28
 -10  -8  10   64.19   18.72
  -8 -10  10   55.36   19.78
  10  -8 -10   69.64   20.31
   8 -10 -10   67.72   24.44
 -10  -8 -10   52.83   11.34
  -8 -10 -10   70.00   11.23
  -8  10 -10   74.28   20.39
   8  10 -10   95.95   16.67
  -8 -10 -11    4.73    5.15
 -10  -8 -11   18.05    8.46
 -10  -8  11    6.75    9.03
  -8 -10  11   17.46    9.15
  10  -8 -11   16.55    7.58
   8 -10 -11   25.78    8.79
 -10  -8 -11    8.84    9.73
  -8 -10 -11   12.36    7.66
  -8  10 -11    7.69    5.61
   8  10 -11   19.35   10.06
  -8 -10 -12    1.55    5.85
 -10  -8 -12   11.12    5.19
 -10  -8  12    9.50    7.75
  -8 -10  12    3.13    5.91
  10   8 -12   13.39    5.74
  10  -8 -12    5.61    4.58
   8 -10 -12    5.45    3.30
 -10  -8 -12    6.57    5.16
  -8 -10 -12    2.08    5.74
  -8  10 -12    1.35    3.10
   8  10 -12    3.96    6.77
  -8 -10 -13   66.45   24.00
 -10  -8 -13   74.21   25.85
 -10  -8  13   63.81   20.98
  -8 -10  13   59.94   21.16
  10   8 -13   73.01   21.69
  10  -8 -13   66.80   14.70
   8 -10 -13   71.06   29.33
 -10  -8 -13   72.40   13.08
  -8 -10 -13   56.01   20.04
   8  10 -13  109.74   32.10
  -8 -10 -14   40.73   15.16
 -10  -8 -14   22.85    7.12
 -10  -8  14   12.41    7.16
  -8 -10  14   52.66   15.36
  10   8 -14   18.19   12.73
  10  -8 -14   31.88   13.51
   8 -10 -14   28.05    9.50
  -8 -10 -14   22.65    4.96
   8  10 -14   26.51   19.16
  10   8 -14   19.63   12.88
  -9 -10   0   66.21   13.86
 -10  -9   0  100.63   17.54
  10  -9   0   55.17   17.20
   9 -10   0   72.52   15.72
 -10  -9   0   71.46   18.14
  -9 -10   0   70.28   23.29
   9  10   0   63.97   19.60
  10   9   0   78.50   23.10
  -9 -10  -1  253.11   44.55
 -10  -9  -1  272.01   16.21
  -9 -10   1  253.64   25.08
 -10  -9   1  215.71   44.52
  10  -9  -1  213.17   17.96
   9 -10  -1  244.11   25.60
  10  -9   1  257.82   11.00
  -9 -10  -1  280.50   17.09
   9  10   1  304.85   23.87
   9  10  -1  255.87   33.40
  10   9   1  287.94   16.72
  10   9  -1  287.23   41.77
  -9 -10  -2  183.26   34.23
 -10  -9  -2  188.70   21.47
  -9 -10   2  192.83   14.53
 -10  -9   2  227.80   16.97
  10  -9  -2  166.54   28.50
   9 -10  -2  157.83   29.91
  10  -9   2  141.38   20.75
 -10  -9  -2  114.48   29.64
   9 -10   2  159.98   23.18
  -9 -10  -2  175.93   30.57
   9  10   2  180.85   29.90
   9  10  -2  210.25   33.98
  10   9   2  196.38   36.85
  10   9  -2  172.24   46.01
  -9 -10  -3  209.94   39.67
 -10  -9  -3  241.72   17.87
 -10  -9   3  193.60   27.60
  -9 -10   3  223.63   50.19
  10  -9  -3  159.87   24.02
   9 -10  -3  217.48   29.91
 -10  -9  -3  205.89   11.64
  -9 -10  -3  206.12   24.25
  10  -9   3  177.88   25.73
   9 -10   3  192.97   22.42
   9  10   3  236.74   32.03
  10   9   3  251.40   36.74
   9  10  -3  250.95   32.57
  10   9  -3  262.32   39.42
  -9 -10  -4   83.42   26.67
 -10  -9  -4   73.02   22.17
  -9 -10   4   66.79   17.52
 -10  -9   4   86.25   20.49
  10  -9  -4   72.37   21.04
   9 -10  -4   66.71   19.75
 -10  -9  -4   54.78   14.72
  -9 -10  -4   51.55   16.84
   9 -10   4   68.15   21.41
   9  10   4   64.36   17.92
  10   9   4   75.59   25.05
   9  10  -4   71.31   17.98
  10   9  -4   76.75   20.82
  -9 -10  -5  103.79   16.53
 -10  -9  -5   89.84   14.35
  -9 -10   5   82.07   13.70
 -10  -9   5   74.90   12.12
  10  -9  -5   84.30   14.89
   9 -10  -5   73.78   20.55
 -10  -9  -5   57.72   18.51
  -9 -10  -5   67.71   28.04
   9  10   5   78.63   22.14
  10   9   5   65.17   20.39
   9  10  -5   73.70   23.74
  -9 -10  -6   98.65   40.27
 -10  -9  -6  121.36   34.97
  -9 -10   6  123.89   38.61
 -10  -9   6  123.21   31.45
  10  -9  -6  123.93   15.95
   9 -10  -6   90.41   32.47
 -10  -9  -6   96.49   21.22
  -9 -10  -6  138.93   20.45
   9  10   6  113.03   25.10
  10   9   6  129.98   26.66
   9  10  -6  163.01   29.88
  -9 -10  -7   21.34   10.25
 -10  -9  -7   15.69    8.43
  -9 -10   7   14.25    8.98
 -10  -9   7    4.88    8.03
  10  -9  -7    4.33    5.10
   9 -10  -7   10.38    6.34
 -10  -9  -7    9.62    5.09
  -9 -10  -7   12.81    5.53
   9  10   7   13.56    6.26
  10   9   7   20.02    6.43
  -9 -10  -8   53.06   15.96
 -10  -9  -8   27.08   11.56
  -9 -10   8   38.37   11.34
 -10  -9   8   51.44   17.82
  10  -9  -8   53.48    9.76
   9 -10  -8   46.09    8.74
 -10  -9  -8   21.24    9.79
  -9 -10  -8   49.58   16.01
   9  10  -8   41.18   20.73
  10   9  -8   60.33   16.17
  -9 -10  -9   17.35   11.34
 -10  -9  -9   16.52    8.71
 -10  -9   9   19.67    8.29
  -9 -10   9   30.43   11.34
  10  -9  -9   18.93    6.16
   9 -10  -9   25.60   11.32
 -10  -9  -9   12.93    6.42
  -9 -10  -9   28.88   10.98
   9  10  -9   11.09    7.56
  10   9  -9   27.60   10.50
  -9 -10 -10   96.50   27.94
 -10  -9 -10  115.75   34.91
  -9 -10  10   75.02   33.99
 -10  -9  10   94.52   34.43
  10  -9 -10   76.89   31.59
   9 -10 -10   95.49   13.38
 -10  -9 -10   64.42   19.63
  -9 -10 -10   69.77   26.06
   9  10 -10  106.56   34.68
  10   9 -10   94.82   39.58
  -9 -10 -11  181.43   58.14
 -10  -9 -11  169.88   42.80
 -10  -9  11  128.57   45.89
  -9 -10  11  109.01   50.12
  10  -9 -11  207.26   20.08
   9 -10 -11  171.73   28.29
 -10  -9 -11  169.14   12.64
  -9 -10 -11  153.58   27.31
   9  10 -11  219.27   29.67
  10   9 -11  190.36   34.84
  -9 -10 -12   32.66   15.29
 -10  -9 -12   51.40   16.20
 -10  -9  12   24.49    8.97
  -9 -10  12   10.10    5.58
  10  -9 -12   19.80    6.18
   9 -10 -12   27.56   12.39
 -10  -9 -12   27.59    6.21
  -9 -10 -12   14.19    9.85
   9  10 -12   18.41   12.73
  10   9 -12   29.93   16.79
  -9 -10 -13   42.24   21.43
 -10  -9 -13   74.07   23.27
 -10  -9  13   53.77   14.97
  -9 -10  13   81.67   28.08
  10  -9 -13   54.56   22.07
   9 -10 -13   67.08   21.27
 -10  -9 -13   37.06   12.94
   9  10 -13   53.98   27.43
  10   9 -13   66.48   29.27
 -10 -10   0  455.34   31.36
  10 -10   0  384.17   12.64
 -10 -10   0  361.94   34.77
  10  10   0  444.47   35.22
 -10 -10  -1   15.29    7.57
 -10 -10   1   23.40   11.71
  10 -10  -1    8.55    4.68
  10 -10   1    4.72    4.18
 -10 -10  -1    4.46    4.91
  10  10   1    4.60    5.58
  10  10  -1    7.67    7.18
 -10 -10  -2   60.62   17.35
 -10 -10   2   53.03   16.05
  10 -10  -2   34.52   10.99
  10 -10   2   45.53   14.74
 -10 -10  -2   32.59   20.59
  10  10   2   56.84   20.49
  10  10  -2   43.20   20.31
 -10 -10  -3   73.90   38.04
 -10 -10   3   78.68   40.30
  10 -10  -3  102.75   13.48
 -10 -10  -3   82.56   19.34
  10  10   3   99.75   30.64
  10  10  -3  126.74   25.99
 -10 -10  -4   43.15   12.91
 -10 -10   4   32.62    9.31
  10 -10  -4   24.84   10.62
 -10 -10  -4   32.81   10.29
  10  10   4   26.82   10.04
  10  10  -4   44.16   15.05
 -10 -10  -5   21.38    9.01
 -10 -10   5   21.37   10.12
  10 -10  -5   14.05    5.08
 -10 -10  -5   27.56    8.84
  10  10   5   20.84    8.13
  10  10  -5   17.77   12.45
 -10 -10  -6   15.27   10.01
 -10 -10   6    9.39    7.15
  10 -10  -6    4.50    2.58
 -10 -10  -6    6.92    4.58
  10  10   6    4.06    4.62
  10  10  -6   -0.46    6.24
 -10 -10  -7  148.22   34.19
 -10 -10   7  107.71   27.12
  10 -10  -7  137.96   17.58
 -10 -10  -7   93.18   18.44
  10  10  -7  106.25   34.81
 -10 -10  -8    2.91    4.66
 -10 -10   8    5.31    7.85
  10 -10  -8   10.95    6.06
 -10 -10  -8    3.98    2.86
  10  10  -8    8.19    6.16
 -10 -10  -9   92.74   20.50
 -10 -10   9   64.25   26.05
  10 -10  -9   61.06   12.33
 -10 -10  -9   65.60   18.61
  10  10  -9   83.76   34.26
 -10 -10 -10   15.28    8.42
 -10 -10  10   11.73    7.02
  10 -10 -10   11.43    6.08
 -10 -10 -10   -1.94    5.36
  10  10 -10    5.36    7.00
 -10 -10 -11   24.64    9.37
 -10 -10  11   20.08    8.11
  10 -10 -11   33.19   14.46
 -10 -10 -11   24.02    8.03
  10  10 -11   15.00   12.94
 -10 -10 -12   78.92   25.25
 -10 -10  12   59.73   23.49
 -10 -10 -12   36.05   27.35
  10  10 -12   78.13   29.30
   0 -11   0    1.83    1.78
 -11   0   0    6.62    4.06
   0  11   0    7.16    4.31
   0 -11  -1  451.66   20.16
   0 -11   1  435.69   19.24
 -11   0  -1  493.75   26.20
 -11   0   1  481.52   25.17
   0 -11  -1  510.11   53.12
   0  11   1  430.36   23.44
   0  11  -1  444.35   37.69
   0 -11  -2  508.84   28.24
 -11   0  -2  497.29   26.06
   0 -11   2  520.52   22.93
 -11   0   2  509.88   27.78
   0 -11  -2  564.10   45.40
   0  11   2  522.23   39.33
   0  11  -2  542.08   28.12
   0 -11  -3  186.24   16.20
 -11   0  -3  216.54   14.09
   0 -11   3  196.93   15.49
 -11   0   3  216.35   13.43
   0 -11  -3  213.48   25.92
   0  11   3  247.88   34.51
   0  11  -3  213.11   49.50
   0 -11  -4    1.13    2.10
 -11   0  -4    3.86    5.68
   0 -11   4   -0.29    2.43
 -11   0   4    9.93    5.36
  11   0  -4    2.99    1.85
   0 -11  -4   14.04    7.02
   0  11   4    6.71    3.51
   0  11  -4    7.02    3.98
   0 -11  -5   21.54    4.70
 -11   0  -5   24.22   10.35
 -11   0   5   33.73    8.07
   0 -11   5   25.55    6.86
  11   0  -5   17.71    3.36
   0 -11  -5   24.68    7.90
   0  11   5   18.53    5.36
   0  11  -5   27.78    7.69
   0 -11  -6    1.78    3.62
 -11   0  -6   21.55    7.87
 -11   0   6    9.02    6.32
   0 -11   6    8.98    4.03
  11   0  -6    7.35    3.44
   0 -11  -6   17.62   11.00
   0  11   6    5.92    5.34
   0  11  -6    9.88    6.87
   0 -11  -7   15.24    6.17
 -11   0  -7   29.08    7.69
 -11   0   7   28.90    7.49
   0 -11   7   30.58    8.68
  11   0  -7   24.99    5.27
   0 -11  -7   32.14   10.04
   0  11   7   29.73    6.82
   0  11  -7   27.90    7.78
   0 -11  -8    5.53    4.45
 -11   0  -8   11.61    4.35
 -11   0   8   14.06    7.15
   0 -11   8   13.60    7.16
  11   0  -8   10.37    4.44
   0 -11  -8   19.81   10.96
   0  11   8   10.03    5.28
   0  11  -8   15.81    6.66
   0 -11  -9    2.76    3.67
 -11   0  -9    7.20    6.49
 -11   0   9   25.40   24.09
   0 -11   9    6.18    4.32
   0 -11  -9    1.22    6.10
   0  11   9    0.60    5.06
   0  11  -9    7.48    4.69
 -11   0 -10   35.99   10.83
 -11   0  10   16.01    6.11
   0 -11  10   15.37    8.15
   0  11  10   13.32    7.71
  11   0 -10   19.68    7.60
   0 -11 -10    6.21    9.48
   0  11 -10   17.77    7.29
 -11   0 -11  117.30   18.35
 -11   0  11   71.04   15.12
   0 -11  11   93.46   27.28
   0  11  11   49.38   21.67
  11   0 -11  108.22   14.59
   0 -11 -11   88.91   12.02
   0  11 -11  106.18   19.27
 -11   0 -12    3.71    6.83
 -11   0  12   11.64    8.30
   0 -11  12   -1.87    5.06
   0  11  12    2.78    3.76
  11   0 -12    0.68    3.22
   0 -11 -12    9.74    6.13
   0  11 -12    5.77    3.76
 -11   0 -13  110.23   38.01
 -11   0  13  101.10   36.47
   0 -11  13   64.60   25.17
   0  11  13   57.09   25.78
  11   0 -13  141.52   26.01
   0 -11 -13  103.33   31.01
   0  11 -13  125.91   22.76
 -11   0 -14  259.30   27.75
 -11   0  14  194.97   55.36
   0 -11  14  263.27   31.64
   0  11  14  288.68   13.96
  11   0 -14  272.80   38.78
   0 -11 -14  309.02   21.14
   0  11 -14  281.87   56.80
 -11   0 -15  146.22   37.75
 -11   0  15  154.01   42.05
   0 -11  15  160.97   23.27
   0  11  15  144.83   38.74
  11   0 -15  194.95   34.15
   0 -11 -15  208.91   19.26
   0  11 -15  167.48   29.76
 -11   0 -16    8.19    6.56
 -11   0  16    4.24    4.88
   0 -11  16    8.20    7.58
   0  11  16    1.86    4.39
   0  11 -16    6.61    5.64
  11   0 -16    8.11    4.54
   0 -11 -16    4.23    6.43
   0  11 -16    7.43    6.12
   1 -11   0    2.73    1.47
  -1 -11   0    2.85    2.32
 -11   1   0   12.97    9.57
 -11  -1   0   11.10    4.75
   1 -11   0   -3.32    7.39
  -1  11   0    9.66    8.21
   1  11   0    4.01    4.18
   1 -11  -1  205.09   11.31
   1 -11   1  239.31   10.75
  -1 -11  -1  270.03   13.51
  -1 -11   1  223.79   11.47
 -11   1  -1  256.29   41.66
 -11  -1  -1  259.37   18.45
 -11   1   1  224.89   19.37
 -11  -1   1  265.35   17.40
   1 -11  -1  267.49   44.72
  -1 -11  -1  282.77   36.43
  -1  11   1  245.73   49.03
  -1  11  -1  271.91   35.16
   1  11   1  246.25   36.15
   1  11  -1  252.11   36.57
   1 -11  -2  545.49   23.16
  -1 -11  -2  612.39   27.81
 -11   1  -2  555.11   32.71
   1 -11   2  572.38   24.21
 -11  -1  -2  602.40   30.97
  -1 -11   2  615.71   27.15
 -11   1   2  540.69   28.19
 -11  -1   2  637.23   33.26
   1 -11  -2  618.63   60.07
  -1 -11  -2  595.18   31.79
  -1  11   2  636.81   32.62
  -1  11  -2  445.53   41.76
   1  11   2  619.48   32.04
   1  11  -2  667.54   34.89
   1 -11  -3  180.86    9.56
  -1 -11  -3  167.31   21.45
 -11   1  -3  193.61   15.84
 -11  -1  -3  180.29   30.53
   1 -11   3  194.57   12.87
  -1 -11   3  213.68    9.92
 -11   1   3  194.93   29.45
 -11  -1   3  185.57   24.08
   1 -11  -3  207.75   25.45
  -1 -11  -3  204.69   32.98
  -1  11   3  198.63   38.05
   1  11   3  233.70   32.68
  -1  11  -3  195.99   36.84
   1  11  -3  191.71   42.44
   1 -11  -4    2.12    1.92
  -1 -11  -4    7.81    4.64
 -11   1  -4    4.32    3.46
 -11  -1  -4    3.42    5.63
   1 -11   4    4.49    2.93
  -1 -11   4    2.32    2.99
 -11   1   4    9.90    7.01
 -11  -1   4    6.40    4.52
  11   1  -4    2.92    2.46
  11  -1  -4    1.67    1.66
   1 -11  -4    8.32    7.38
  -1 -11  -4   -1.10    7.10
  -1  11   4   11.44    8.17
   1  11   4   -6.55    5.07
  -1  11  -4   -2.43    5.29
   1  11  -4   10.87    6.24
   1 -11  -5  163.82   12.24
  -1 -11  -5  142.67   26.14
 -11   1  -5  155.18   28.64
 -11  -1  -5  163.90   26.27
 -11  -1   5  157.24   26.38
 -11   1   5  177.51   38.41
  -1 -11   5  174.49   20.24
   1 -11   5  145.68   17.25
  11   1  -5  175.30   15.58
  11  -1  -5  152.78   16.83
   1 -11  -5  156.63   13.09
  -1 -11  -5  162.02   28.49
  -1  11   5  161.10   31.97
   1  11   5  171.85   33.83
  -1  11  -5  172.86   41.44
   1  11  -5  139.29   29.43
  -1 -11  -6   39.79    9.13
 -11   1  -6   35.81   13.02
 -11  -1  -6   39.64    8.05
 -11  -1   6   25.91    9.77
 -11   1   6   46.91   12.80
  -1 -11   6   50.50   13.06
   1 -11   6   42.24    9.09
  11   1  -6   44.92    8.41
  11  -1  -6   45.69    6.27
   1 -11  -6   43.24    9.33
  -1 -11  -6   76.34   17.23
  -1  11   6   52.13   11.32
   1  11   6   80.01   14.83
  -1  11  -6   52.67   12.78
   1  11  -6   56.16   12.31
  -1 -11  -7   51.14   16.62
 -11   1  -7   64.97   18.41
 -11  -1  -7   68.87   19.75
 -11  -1   7   60.31   12.64
 -11   1   7   78.46   20.24
  -1 -11   7   75.07   20.81
   1 -11   7   59.55    9.19
  -1  11   7   41.28   13.70
  11   1  -7   75.53   13.04
  11  -1  -7   70.68    9.35
   1 -11  -7   88.08   17.93
  -1 -11  -7   62.84   13.46
  -1  11   7   71.03   17.49
   1  11   7   91.55   18.58
  -1  11  -7   93.81   18.35
   1  11  -7   60.08   24.12
  -1 -11  -8  180.40   21.95
 -11   1  -8  219.94   35.16
 -11  -1  -8  177.92   35.51
 -11  -1   8  179.92   34.24
 -11   1   8  193.08   28.86
  -1 -11   8  209.53   10.01
   1 -11   8  216.11   22.00
  -1  11   8  178.26   22.47
  11   1  -8  196.59   22.01
  11  -1  -8  195.85   20.60
   1 -11  -8  197.14   31.08
  -1 -11  -8  164.72   35.11
  -1  11   8  207.60   24.26
   1  11   8  178.21   34.72
  -1  11  -8  200.57   35.24
   1  11  -8  194.42   36.35
  -1 -11  -9  187.38   25.91
 -11   1  -9  218.93   47.53
 -11  -1  -9  168.97   42.14
 -11  -1   9  180.77   35.78
 -11   1   9  180.71   27.74
  -1 -11   9  181.24   26.98
   1 -11   9  163.84   20.10
  -1  11   9  173.40   21.87
  11   1  -9  220.02   29.32
   1 -11  -9  184.85   36.92
  -1 -11  -9  187.94   26.58
  -1  11   9  170.00   26.92
   1  11   9  187.24   27.58
  -1  11  -9  209.34   37.56
   1  11  -9  182.01   33.91
  -1 -11 -10  156.90   19.03
 -11   1 -10  130.33   28.53
 -11  -1 -10  125.56   32.88
 -11  -1  10  173.48   27.52
 -11   1  10  164.93   29.38
  -1 -11  10  181.41   20.56
   1 -11  10   97.13   30.64
  -1  11  10  122.00   21.25
  11   1 -10  177.28   24.25
  11  -1 -10  159.09   22.98
   1 -11 -10  135.61   29.86
  -1 -11 -10  122.01   29.78
   1  11  10  157.13   20.43
  -1  11 -10  171.08   32.17
   1  11 -10  149.04   31.00
  -1 -11 -11   93.76   25.22
 -11  -1 -11  131.43   26.32
 -11  -1  11  134.18   29.06
  -1 -11  11  104.41   33.29
   1 -11  11  109.37   20.62
  -1  11  11  112.57   20.73
  11   1 -11  143.60   20.73
  11  -1 -11  160.67   25.29
   1 -11 -11  144.99   18.68
  -1 -11 -11  127.19   22.13
  -1  11 -11  148.22   28.85
   1  11 -11  110.09   31.78
 -11   1 -12    4.29    5.83
 -11  -1 -12   10.54    8.17
 -11  -1  12    6.96    7.06
 -11   1  12   10.57    9.70
  -1 -11  12    7.15    5.84
   1 -11  12    8.08    3.69
  -1  11  12    3.02    3.56
  11   1 -12    7.40    3.97
  11  -1 -12   12.05    7.00
   1 -11 -12   -1.18    7.02
  -1 -11 -12    6.92    7.91
  -1  11 -12    5.92    4.68
 -11   1 -13   52.70   21.87
 -11  -1 -13   57.23   15.71
 -11  -1  13   51.52   24.94
 -11   1  13   62.84   21.77
  -1 -11  13   50.17   18.86
   1 -11  13   62.72   19.38
  -1  11  13   40.86   16.92
   1  11  13   42.07   19.94
  11   1 -13   75.81   14.05
  11  -1 -13   92.17   18.05
   1 -11 -13   70.10   25.03
  -1 -11 -13   56.43   32.27
  -1  11 -13   71.23   20.45
   1  11 -13   52.71   14.95
 -11   1 -14   81.40   23.10
 -11  -1 -14   95.95   17.79
 -11  -1  14   65.77   28.97
 -11   1  14   90.07   25.91
  -1 -11  14   50.19   20.44
   1 -11  14   58.23   20.43
  -1  11  14   42.01   19.28
   1  11  14   50.17   16.07
  11   1 -14   83.32   15.50
  11  -1 -14  111.04   20.33
   1 -11 -14   69.00   22.67
  -1 -11 -14   90.41   16.62
  -1  11 -14   63.19   17.09
   1  11 -14   66.47   23.18
 -11   1 -15   70.52   22.09
 -11  -1 -15  106.22   21.47
 -11  -1  15   81.20   20.56
 -11   1  15   69.36   22.09
  -1 -11  15   74.38   27.09
   1 -11  15   63.22   24.44
  -1  11  15   47.03   25.46
   1  11  15   39.99   29.75
  11   1 -15   97.23   19.35
  11  -1 -15  109.22   14.24
   1 -11 -15  100.17   25.61
  -1 -11 -15   69.05   25.93
  -1  11 -15   68.17   18.83
   1  11 -15   77.49   22.75
 -11   1 -16   37.95   16.41
 -11  -1 -16   37.23   12.64
 -11  -1  16   27.30   13.39
 -11   1  16   21.14    7.68
  -1 -11  16   28.76   12.60
   1 -11  16   25.49    9.02
  -1  11  16   17.76    8.75
   1  11  16   23.28   11.75
   1  11 -16   27.61   12.11
  11  -1 -16   48.74   13.01
   1 -11 -16   48.26   19.18
  -1 -11 -16   32.77   20.64
  -1  11 -16   34.14    8.45
   1  11 -16   30.77   10.55
  -2 -11   0    4.02    4.13
 -11   2   0    5.17    4.77
 -11  -2   0    5.30    6.26
   2 -11   0   17.58    9.96
  -2  11   0    3.85    4.25
   2  11   0    0.39    3.85
  -2 -11  -1   52.99   11.87
 -11   2  -1   65.70   13.73
  -2 -11   1   55.64   10.90
 -11  -2  -1   57.84    9.35
 -11   2   1   81.24   18.66
 -11  -2   1   81.36   17.50
   2 -11  -1   61.66    9.95
  -2 -11  -1   51.62   16.09
  -2  11   1   60.67   16.86
  -2  11  -1   69.21   21.25
   2  11   1   59.03   15.91
   2  11  -1   70.50   13.05
  -2 -11  -2   46.56   16.28
 -11   2  -2   51.32    7.35
 -11  -2  -2   59.89   12.42
  -2 -11   2   63.53   11.75
 -11   2   2   73.87   15.93
 -11  -2   2   68.72   13.46
   2 -11  -2   56.66   17.38
  -2 -11  -2   67.86   13.01
  -2  11   2   66.56   18.47
  -2  11  -2   56.27   19.93
   2  11   2   51.90   15.24
   2  11  -2   67.04   15.02
  -2 -11  -3  521.07   22.47
 -11   2  -3  503.99   21.35
 -11  -2  -3  532.16   29.41
  -2 -11   3  522.95   23.97
 -11   2   3  506.91   24.94
 -11  -2   3  534.42   22.79
   2 -11  -3  480.62   34.39
  -2 -11  -3  553.11   67.42
  -2  11   3  553.64   34.59
  -2  11  -3  509.87   28.63
   2  11   3  541.53   26.89
   2  11  -3  551.52   24.74
  -2 -11  -4  394.33   17.77
 -11   2  -4  366.32   25.94
 -11  -2  -4  383.76   26.18
  -2 -11   4  412.83   19.60
 -11   2   4  404.59   23.66
 -11  -2   4  407.28   20.50
  11  -2  -4  364.98   22.91
   2 -11  -4  423.62   44.83
  -2 -11  -4  409.68   46.30
  -2  11   4  387.56   25.62
  -2  11  -4  385.93   29.06
   2  11   4  427.88   21.98
   2  11  -4  399.76   22.97
  -2 -11  -5   25.53    7.59
 -11   2  -5   39.10   10.29
 -11  -2  -5   56.93   20.07
 -11  -2   5   30.82   11.15
 -11   2   5   55.78   14.10
  -2 -11   5   44.79    9.15
   2 -11   5   15.53    5.48
  11   2  -5   30.27    9.75
  11  -2  -5   30.06    5.41
   2 -11  -5   59.17   16.32
  -2 -11  -5   13.02    4.01
  -2  11   5   23.09    7.06
   2  11   5   35.85   10.72
  -2  11  -5   43.80   11.42
   2  11  -5   31.03    7.27
  -2 -11  -6   38.59   13.08
 -11   2  -6   65.99   21.10
 -11  -2  -6   65.22   15.59
 -11  -2   6   52.29   11.29
 -11   2   6   52.29   13.52
  -2 -11   6   50.85   15.42
   2 -11   6   49.32   11.71
  11   2  -6   54.88   10.66
  11  -2  -6   65.75    8.94
   2 -11  -6   76.00   20.25
  -2 -11  -6   60.72   13.04
  -2  11   6   66.71   13.38
   2  11   6   70.64   16.41
  -2  11  -6   61.67   14.96
   2  11  -6   56.18   14.78
  -2 -11  -7  204.21   17.26
 -11   2  -7  172.73   31.08
 -11  -2  -7  162.56   43.02
 -11  -2   7  158.87   26.64
 -11   2   7  200.24   37.17
  -2 -11   7  152.82   34.19
   2 -11   7  178.32   18.94
  11   2  -7  169.39   29.04
  11  -2  -7  204.80   23.50
   2 -11  -7  184.01   41.04
  -2 -11  -7  176.20   28.84
  -2  11   7  182.68   39.27
   2  11   7  209.27   24.96
  -2  11  -7  145.56   32.17
   2  11  -7  211.35   24.81
 -11   2  -8  353.73   24.60
 -11  -2  -8  389.08   30.39
 -11  -2   8  388.39   21.31
 -11   2   8  374.31   24.16
   2 -11   8  407.52   17.05
  -2  11   8  363.06   16.34
  11   2  -8  414.43   23.28
  11  -2  -8  344.89   25.40
   2 -11  -8  415.30   63.73
  -2 -11  -8  337.26   53.40
  -2  11   8  377.26   40.58
   2  11   8  395.96   24.34
  -2  11  -8  433.48   20.98
   2  11  -8  410.69   27.34
  -2 -11  -9  622.45   22.19
 -11   2  -9  597.18   48.11
 -11  -2  -9  684.82   23.58
 -11  -2   9  650.32   20.62
 -11   2   9  648.29   23.32
   2 -11   9  623.18   15.17
  -2  11   9  594.96   19.52
  11   2  -9  618.96   28.59
   2 -11  -9  575.78   51.23
  -2 -11  -9  642.17   24.58
   2  11   9  577.83   33.61
  -2  11  -9  591.99   37.17
   2  11  -9  644.12   23.17
  -2 -11 -10   53.44   18.97
 -11   2 -10   79.10   15.01
 -11  -2 -10   58.41   13.67
 -11  -2  10   58.04   14.08
 -11   2  10   59.88   14.44
  -2 -11  10   52.67   13.35
   2 -11  10   45.48   15.00
  -2  11  10   45.05   17.06
  11   2 -10   60.86   12.04
  11  -2 -10   72.93   11.32
   2 -11 -10   60.83   15.94
  -2 -11 -10   54.75   18.98
   2  11  10   48.63   10.67
  -2  11 -10   57.50   12.60
   2  11 -10   73.89   15.55
  -2 -11 -11   70.87   18.29
 -11   2 -11   75.94   12.58
 -11  -2 -11   80.48   19.81
 -11  -2  11   61.50   20.22
 -11   2  11   60.41   18.20
  -2 -11  11   70.77   13.58
   2 -11  11   71.10   14.75
  -2  11  11   47.01   13.61
  11   2 -11   80.32   15.56
  11  -2 -11   62.84   12.81
  -2 -11 -11   60.08   24.23
   2  11  11   38.42   11.44
  -2  11 -11   72.81   13.94
   2  11 -11   83.83   23.40
  -2 -11 -12   27.47   10.87
 -11   2 -12   48.56   12.47
 -11  -2 -12   57.02   16.14
 -11  -2  12   46.72   12.43
 -11   2  12   65.25   16.50
  -2 -11  12   53.80   16.87
   2 -11  12   39.55   14.14
  -2  11  12   26.84   11.90
  11   2 -12   48.97   16.79
  11  -2 -12   53.23   10.12
   2 -11 -12   61.89   17.80
  -2 -11 -12   31.79   13.50
  -2  11 -12   55.22   13.78
   2  11 -12   39.35   17.05
  -2 -11 -13   52.34   24.42
 -11   2 -13   63.91   23.38
 -11  -2 -13   74.46   24.26
 -11  -2  13   57.46   22.59
 -11   2  13   56.48   16.78
  -2 -11  13   53.88   17.67
   2 -11  13   61.15   23.01
  -2  11  13   50.44   18.01
  11   2 -13   90.70   18.47
  11  -2 -13   99.07   16.30
   2 -11 -13   96.65   16.19
  -2 -11 -13   76.06   22.66
  -2  11 -13   64.44   19.56
   2  11 -13   66.69   21.73
 -11   2 -14   12.79    8.80
 -11  -2 -14   10.81    7.27
 -11  -2  14    4.85    5.15
 -11   2  14    9.76    6.32
  -2 -11  14    6.80    5.05
   2 -11  14    9.09    6.09
  -2  11  14   13.41    4.77
  11   2 -14   15.67    8.11
  11  -2 -14    7.94    3.45
   2 -11 -14   10.48    8.58
  -2 -11 -14    7.03    8.39
  -2  11 -14   14.15    6.11
   2  11 -14   11.24    8.57
 -11   2 -15   10.35    8.20
 -11  -2 -15    8.46    5.03
 -11  -2  15    8.64    7.73
 -11   2  15    9.17    7.02
  -2 -11  15   11.90    5.99
   2 -11  15   10.78    5.65
   2  11  15    9.79    7.17
  11   2 -15    9.91    5.95
  11  -2 -15    7.44    4.81
   2 -11 -15   16.19   14.32
  -2 -11 -15   13.28    9.16
  -2  11 -15    6.40    4.60
   2  11 -15   12.40    7.10
 -11   2 -16   13.62   11.50
 -11  -2 -16   16.42   10.52
 -11  -2  16   19.50   12.48
 -11   2  16   -2.33    7.15
  -2 -11  16    3.63    5.10
   2  11  16    3.55    4.54
   2  11 -16    8.70    3.34
  11   2 -16    9.84    6.94
  11  -2 -16   12.74    4.74
   2 -11 -16    7.46    9.68
  -2 -11 -16    7.54   11.39
   2  11 -16    4.47    4.85
  -3 -11   0  294.18   13.50
 -11   3   0  256.65   20.67
 -11  -3   0  258.21   21.69
   3 -11   0  268.32   22.33
  -3  11   0  286.66   43.12
   3  11   0  276.19   26.61
  -3 -11  -1  162.97   21.91
 -11   3  -1  131.96   12.90
 -11  -3  -1  159.81   12.98
  -3 -11   1  169.71    9.50
 -11   3   1  145.75   24.71
 -11  -3   1  147.49   12.02
   3 -11  -1  143.96   25.67
  -3 -11  -1  149.85   27.68
  -3  11   1  156.44   31.87
  -3  11  -1  133.07   33.45
   3  11   1  147.02   25.54
   3  11  -1  150.34   12.26
  -3 -11  -2   13.82    3.82
 -11   3  -2   19.50    6.20
 -11  -3  -2   32.18   14.27
  -3 -11   2   18.69    4.00
 -11   3   2   27.25    7.34
 -11  -3   2   16.86    6.80
   3 -11  -2   22.58    7.77
  -3 -11  -2   17.77    5.75
  -3  11   2    8.86    4.22
  -3  11  -2   15.96    5.16
   3  11   2   30.95    7.91
   3  11  -2   27.44    8.71
  -3 -11  -3  494.92   21.81
 -11   3  -3  502.93   21.00
 -11  -3  -3  491.78   25.18
  -3 -11   3  471.46   19.83
 -11   3   3  435.20   20.78
 -11  -3   3  453.07   56.24
   3 -11  -3  455.36   45.46
  -3 -11  -3  490.47   52.55
  -3  11   3  503.49   27.40
  -3  11  -3  486.46   26.26
   3  11   3  487.75   27.78
   3  11  -3  511.55   33.08
  -3 -11  -4  230.66   12.62
 -11   3  -4  198.70   11.86
 -11  -3  -4  206.11   38.50
 -11   3   4  245.80   18.44
  -3 -11   4  270.69   19.85
 -11  -3   4  240.43   16.56
  11  -3  -4  180.29   11.74
   3 -11  -4  246.69   24.44
  -3 -11  -4  211.62   27.87
  -3  11   4  234.22   27.52
  -3  11  -4  241.56   32.69
   3  11   4  255.39   26.92
   3  11  -4  214.77   36.05
  -3 -11  -5  247.71   16.70
 -11   3  -5  301.61   39.61
 -11  -3  -5  249.94   20.02
 -11  -3   5  266.18   41.34
 -11   3   5  248.84   17.78
  -3 -11   5  289.68   35.25
  11  -3  -5  240.16   14.71
   3 -11  -5  256.38   28.79
  -3 -11  -5  280.28   38.07
  -3  11   5  311.85   52.62
  -3  11  -5  241.79   41.63
   3  11   5  277.85   24.18
   3  11  -5  259.00   37.41
  -3 -11  -6    8.49    4.75
 -11   3  -6    8.96    5.96
 -11  -3  -6    5.17    6.48
 -11  -3   6    3.84    4.22
 -11   3   6   13.58    6.14
  -3 -11   6    9.60    4.78
  11   3  -6   12.70    5.00
  11  -3  -6    8.44    4.54
   3 -11  -6   16.39    7.80
  -3 -11  -6   15.31    6.64
  -3  11   6   14.86    6.17
  -3  11  -6   18.19    5.97
   3  11  -6   14.85    7.13
  -3 -11  -7   19.75    7.24
 -11   3  -7   49.11    7.97
 -11  -3  -7   39.87   11.34
 -11  -3   7   38.82   13.34
 -11   3   7   37.18   10.09
  11   3  -7   31.33    8.74
  11  -3  -7   25.76    6.65
   3 -11  -7   30.00    6.92
  -3 -11  -7   48.97   11.93
  -3  11   7   28.93    9.32
   3  11   7   43.82    9.58
  -3  11  -7   40.91   11.49
   3  11  -7   33.46    7.60
  -3 -11  -8  171.19   23.87
 -11   3  -8  205.86   38.79
 -11  -3  -8  148.01   26.29
 -11  -3   8  156.58   45.52
 -11   3   8  161.19   30.01
  -3 -11   8  135.89   21.61
  11   3  -8  144.04   24.78
  11  -3  -8  174.07   21.67
   3 -11  -8  175.65   31.17
  -3 -11  -8  156.51   45.56
   3  11   8  178.22   31.20
  -3  11  -8  162.06   36.23
   3  11  -8  164.76   42.34
  -3 -11  -9   73.88   17.53
 -11   3  -9   63.37   12.80
 -11  -3  -9   49.21   19.80
 -11  -3   9   58.82   16.05
 -11   3   9   69.38   21.88
  -3 -11   9   82.26   15.11
  11   3  -9   68.96   16.18
  11  -3  -9   33.10   15.11
   3 -11  -9   80.61   18.55
  -3 -11  -9   61.38   11.48
   3  11   9   88.52   14.70
  -3  11  -9   79.98   21.45
   3  11  -9   81.42   10.38
  -3 -11 -10    7.77    4.53
 -11   3 -10   11.21    5.06
 -11  -3 -10   25.54    6.49
 -11  -3  10   18.65    9.69
 -11   3  10   25.02    8.90
  -3 -11  10   12.06    5.46
  11   3 -10   22.73    5.55
  11  -3 -10   12.34    5.72
   3 -11 -10   27.40    9.10
  -3 -11 -10    2.96    4.59
   3  11  10    9.52    3.86
  -3  11 -10   26.86    8.31
   3  11 -10   16.99    8.51
  -3 -11 -11   46.99   12.96
 -11   3 -11   40.08   13.75
 -11  -3 -11   49.73   11.63
 -11  -3  11   41.03   15.04
 -11   3  11   34.29   13.75
  -3 -11  11   47.37   11.36
  11   3 -11   44.12    9.57
  11  -3 -11   27.89   12.53
   3 -11 -11   40.01   17.66
  -3 -11 -11   37.00   11.93
  -3  11 -11   56.02   10.24
   3  11 -11   43.34    9.43
  -3 -11 -12  324.04   17.86
 -11   3 -12  267.72   49.49
 -11  -3 -12  343.61   41.49
 -11  -3  12  300.07   51.70
 -11   3  12  333.97   33.09
  -3 -11  12  375.42   20.39
  11   3 -12  395.36   43.92
  11  -3 -12  338.13   33.96
   3 -11 -12  304.36   63.42
  -3 -11 -12  335.78   17.63
  -3  11 -12  339.90   57.44
   3  11 -12  322.53   20.62
  -3 -11 -13   55.61   16.46
 -11   3 -13   51.87   22.40
 -11  -3 -13   88.21   27.55
 -11  -3  13   63.43   23.28
 -11   3  13   49.60   16.52
  -3 -11  13   59.46   12.53
  11   3 -13   63.14   13.02
  11  -3 -13   45.13   19.78
   3 -11 -13   72.25   22.00
  -3 -11 -13   58.24   23.69
  -3  11 -13   57.98   13.92
   3  11 -13   51.20   22.28
  -3 -11 -14   24.84   12.04
 -11   3 -14   16.70    8.70
 -11  -3 -14    8.49    8.73
 -11  -3  14   18.37   10.86
 -11   3  14   12.17    8.45
  -3 -11  14    7.75    5.09
  11   3 -14    5.59    3.93
  11  -3 -14   10.08    9.10
   3 -11 -14   11.35    8.65
  -3 -11 -14   10.06    9.39
  -3  11 -14   11.29    5.44
   3  11 -14   21.41   10.30
  -3 -11 -15   25.64   18.01
 -11   3 -15   39.28   10.08
 -11  -3 -15   42.24   13.65
 -11  -3  15   53.44   13.86
 -11   3  15   36.50    7.59
  -3 -11  15   29.72   13.24
  11   3 -15   46.95   13.52
  11  -3 -15   60.93   19.26
   3 -11 -15   38.79   13.68
  -3 -11 -15   26.21   16.44
  -3  11 -15   26.04    8.75
   3  11 -15   34.13   16.37
 -11   3 -16   28.97   14.12
 -11  -3 -16   37.55   13.20
 -11  -3  16    4.94    7.56
 -11   3  16   35.70   10.93
  -3 -11  16   28.77   10.63
   3  11 -16   12.49   11.49
  11   3 -16   12.97    8.11
  11  -3 -16   38.41    9.18
   3 -11 -16   33.38   13.81
  -3 -11 -16   24.16   10.09
 -11   4   0  695.25   26.09
  -4 -11   0  689.04   25.21
 -11  -4   0  669.09   28.49
 -11  -4   0  605.93   20.03
   4 -11   0  694.76   28.01
  -4  11   0  685.86   37.53
   4  11   0  678.37   28.24
  -4 -11  -1  277.50   12.98
 -11   4  -1  292.32   20.14
 -11  -4  -1  306.33   19.76
  -4 -11   1  286.50   14.64
 -11   4   1  284.95   17.86
 -11  -4   1  295.49   45.81
 -11  -4  -1  242.84    9.65
   4 -11  -1  298.46   17.16
  -4 -11  -1  305.31   31.99
   4 -11   1  284.66   26.35
  -4  11   1  267.87   30.37
  -4  11  -1  282.38   49.69
   4  11   1  311.79   40.31
   4  11  -1  307.17   17.82
 -11   4  -2   53.02   10.32
  -4 -11  -2   55.73    6.72
 -11  -4  -2   51.01   17.78
  -4 -11   2   75.41   16.06
 -11   4   2   44.45   12.57
 -11  -4   2   45.24   14.77
   4 -11  -2   71.56   16.20
  -4 -11  -2   42.09   10.21
  -4  11   2   67.92   21.49
  -4  11  -2   64.58   22.73
   4  11   2   69.00   16.00
   4  11  -2   56.82   15.07
 -11   4  -3  801.28   30.99
  -4 -11  -3  735.38   28.61
 -11  -4  -3  737.28   32.50
 -11   4   3  708.83   27.75
  -4 -11   3  754.01   28.92
 -11  -4   3  664.58   50.29
   4 -11  -3  720.38   30.22
  -4 -11  -3  719.70   36.63
  -4  11   3  746.63   43.67
  -4  11  -3  687.55   36.95
   4  11   3  699.45   33.88
   4  11  -3  771.35   32.22
  -4 -11  -4   63.07   27.58
 -11   4  -4  116.07   25.20
 -11  -4  -4  141.38   14.24
 -11   4   4  140.88   33.93
  -4 -11   4  109.34   27.56
 -11  -4   4  127.13   24.60
  11  -4  -4   82.21   14.37
   4 -11  -4  129.46   15.52
  -4 -11  -4   87.42   21.50
  -4  11   4  120.09   22.78
  -4  11  -4  122.36   29.75
   4  11   4  134.74   28.82
   4  11  -4  109.08   24.29
 -11   4  -5   83.72   22.87
  -4 -11  -5  109.10   25.50
 -11  -4  -5  103.31   22.32
  -4 -11   5   84.39   18.58
 -11   4   5   83.47   17.81
 -11  -4   5   76.11   26.57
  11  -4  -5   52.50   13.01
   4 -11  -5   85.10   20.44
  -4 -11  -5   94.12   22.32
  -4  11   5   90.54   19.64
  -4  11  -5   97.30   25.84
   4  11   5  101.90   19.39
   4  11  -5  119.78   23.70
  -4 -11  -6  168.83   13.42
 -11   4  -6  166.15   30.47
 -11  -4  -6  160.79   39.24
 -11  -4   6  185.81   44.52
 -11   4   6  171.78   22.45
  -4 -11   6  162.72   21.15
  11  -4  -6  156.63   13.88
   4 -11  -6  151.49   31.86
  -4 -11  -6  155.93   31.87
  -4  11  -6  183.22   32.37
   4  11   6  185.15   28.50
   4  11  -6  150.12   29.86
 -11   4  -7   28.04    8.83
  -4 -11  -7    6.82    5.22
 -11  -4  -7   30.77   11.27
 -11  -4   7   31.68   10.39
 -11   4   7   40.77   10.01
  -4 -11   7   28.23    8.33
  11  -4  -7   20.17    6.01
   4 -11  -7   19.65    7.45
  -4 -11  -7   16.15    6.54
  -4  11  -7   24.46    9.28
   4  11   7   10.73    6.64
   4  11  -7   29.86    7.87
  -4 -11  -8   44.71   10.73
 -11   4  -8   29.06    8.13
 -11  -4  -8   31.88    8.61
  -4 -11   8   49.09   11.19
 -11   4   8   28.76    8.57
  11   4  -8   33.28   11.40
  11  -4  -8   27.90    9.02
   4 -11  -8   47.95   18.55
  -4 -11  -8   44.96   11.13
  -4  11  -8   47.71   13.98
   4  11   8   47.39   11.21
   4  11  -8   37.16    9.79
 -11   4  -9  403.34   55.86
  -4 -11  -9  406.70   19.62
 -11  -4  -9  423.76   33.11
 -11  -4   9  421.26   68.75
  -4 -11   9  385.45   28.36
 -11   4   9  413.55   17.28
  11   4  -9  382.21   33.34
  11  -4  -9  398.47   22.43
   4 -11  -9  359.96   34.78
  -4 -11  -9  407.31   19.74
   4  11   9  390.01   17.60
  -4  11  -9  394.39   24.66
   4  11  -9  417.42   17.21
  -4 -11 -10   62.41   14.49
 -11   4 -10   57.29   14.66
 -11  -4 -10   63.38   15.10
 -11  -4  10   49.32   15.58
  -4 -11  10   58.25   14.21
 -11   4  10   44.07   15.19
  11   4 -10   43.75   13.26
  11  -4 -10   50.40   15.98
   4 -11 -10   68.07   15.14
  -4 -11 -10   54.83   16.55
  -4  11 -10   60.08   10.65
   4  11 -10   70.31   17.91
  -4 -11 -11   68.23   21.49
 -11   4 -11   60.75   22.04
 -11  -4 -11   96.01   24.96
 -11  -4  11   73.80   27.33
  -4 -11  11   72.17   20.62
  11   4 -11   83.44   20.76
  11  -4 -11   77.73   21.38
   4 -11 -11   84.65   24.67
  -4 -11 -11   68.77   19.07
  -4  11 -11  107.78   21.56
   4  11 -11   75.42   21.37
  -4 -11 -12  357.28   39.44
 -11   4 -12  306.18   19.76
 -11  -4 -12  270.90   55.37
 -11  -4  12  359.33   46.40
  -4 -11  12  298.66   30.19
 -11   4  12  297.07   40.01
  11   4 -12  281.07   48.50
  11  -4 -12  295.86   22.39
   4 -11 -12  310.17   40.95
  -4 -11 -12  329.58   26.51
  -4  11 -12  276.22   56.95
   4  11 -12  310.97   35.85
  -4 -11 -13   54.82   13.84
 -11   4 -13   53.38   21.00
 -11  -4 -13   70.92   16.93
 -11  -4  13   48.83   25.15
 -11   4  13   52.92   19.30
  -4 -11  13   68.89   20.75
  11   4 -13   48.80   18.97
  11  -4 -13   53.77   16.63
   4 -11 -13   53.91   14.75
  -4 -11 -13   71.84   28.56
  -4  11 -13   67.38   18.38
   4  11 -13   57.44   18.45
  -4 -11 -14   38.02   12.89
 -11   4 -14   17.06   10.16
 -11  -4 -14   36.11   10.41
 -11  -4  14   27.06    9.60
 -11   4  14   22.98   10.38
  -4 -11  14   35.10   12.66
  11   4 -14   19.90    9.54
  11  -4 -14   15.98   13.20
   4 -11 -14   39.68   19.39
  -4 -11 -14   31.51   10.57
  -4  11 -14   24.84   11.07
   4  11 -14   33.46   14.65
  -4 -11 -15   88.63   34.80
 -11   4 -15  121.99   39.51
 -11  -4 -15  123.55   43.72
 -11  -4  15  100.78   40.64
 -11   4  15   99.80   37.37
  -4 -11  15  115.83   28.67
  11   4 -15   94.42   39.15
  11  -4 -15   88.68   42.48
   4 -11 -15  133.82   42.37
  -4 -11 -15   92.01   47.48
   4  11 -15  115.20   32.46
 -11   5   0   56.39   14.75
  -5 -11   0   49.11    7.58
 -11  -5   0   64.28   13.64
   5 -11   0   58.95   13.82
  -5  11   0   54.53   19.15
   5  11   0   63.42   10.12
 -11   5  -1   59.44   16.31
  -5 -11  -1   53.33   15.99
 -11   5   1   80.04   17.89
 -11  -5  -1   79.36   11.66
  -5 -11   1   56.36   17.80
 -11  -5   1   74.75   17.53
   5 -11  -1   66.20   10.94
   5 -11   1   85.12   20.36
  -5 -11  -1   72.73   16.24
  -5  11   1   78.42   17.79
  -5  11  -1   81.62   20.17
   5  11   1   68.82   18.95
   5  11  -1   76.34   17.89
 -11   5  -2  124.66   11.08
  -5 -11  -2  106.58   19.17
 -11  -5  -2  130.45   34.16
 -11   5   2  106.37   28.50
  -5 -11   2  133.74   29.91
 -11  -5   2  148.95   30.35
   5 -11  -2  129.49   27.59
  -5 -11  -2  107.54   18.79
  -5  11   2  142.72   34.64
  -5  11  -2  120.74   28.03
   5  11   2  115.68   26.23
   5  11  -2  125.04   28.46
 -11   5  -3   42.01   10.63
  -5 -11  -3   54.01   14.81
 -11  -5  -3   36.34   13.19
 -11   5   3   39.08   10.21
  -5 -11   3   60.69    9.41
 -11  -5   3   44.26   12.66
 -11  -5  -3   24.14    8.49
   5 -11  -3   55.08   14.65
  -5 -11  -3   26.06    9.98
  -5  11   3   46.82   11.96
  -5  11  -3   47.07   13.58
   5  11   3   33.95   11.21
   5  11  -3   63.89   17.45
 -11   5  -4   67.79   16.43
 -11  -5  -4   82.91   11.35
 -11   5   4   83.52   20.43
 -11  -5   4   76.27   22.50
  11  -5  -4   39.08   10.80
 -11  -5  -4   40.52    9.49
   5 -11  -4   84.47   17.52
  -5 -11  -4   60.57   16.80
  -5  11   4   71.32   14.88
  -5  11  -4   80.43   17.16
   5  11   4   72.73   22.09
   5  11  -4   78.15   15.04
 -11   5  -5   38.31    9.85
  -5 -11  -5   18.22    8.07
 -11  -5  -5   30.32   10.47
  -5 -11   5   18.69    6.52
 -11  -5   5   33.41   10.38
 -11   5   5   26.85    7.01
  11  -5  -5   23.45    7.40
   5 -11  -5   40.46   15.16
  -5 -11  -5   23.83    7.32
  -5  11  -5   31.66   10.98
   5  11   5   37.63    8.80
   5  11  -5   31.54   10.60
 -11   5  -6  202.28   38.57
  -5 -11  -6  214.24   24.93
 -11  -5  -6  172.66   52.75
 -11  -5   6  217.03   49.74
  -5 -11   6  185.65   38.52
 -11   5   6  197.73   14.36
  11  -5  -6  174.88   18.27
   5 -11  -6  191.41   23.51
  -5 -11  -6  209.05   38.64
  -5  11  -6  237.51   43.10
   5  11   6  199.83   25.41
   5  11  -6  198.16   27.86
  -5 -11  -7  164.25   34.52
 -11  -5  -7  114.46   35.69
 -11  -5   7  163.71   47.63
  -5 -11   7  145.02   39.12
  11  -5  -7  109.76   24.26
   5 -11  -7  157.30   16.88
  -5 -11  -7  116.50   25.86
  -5  11  -7  172.35   30.76
   5  11   7  187.34   36.12
   5  11  -7  191.99   34.54
 -11   5  -8  134.43   26.53
  -5 -11  -8  157.03   37.02
 -11  -5  -8  188.90   27.93
 -11  -5   8  122.33   43.67
  -5 -11   8  100.95   30.03
 -11   5   8  165.25   33.80
  11   5  -8  152.27   22.81
  11  -5  -8  122.89   17.98
   5 -11  -8  117.66   27.72
  -5 -11  -8  123.67   32.11
  -5  11  -8  138.38   34.78
   5  11   8  148.61   27.88
   5  11  -8  144.14   24.83
 -11   5  -9  243.04   33.33
  -5 -11  -9  255.67   36.15
 -11  -5  -9  222.02   55.38
 -11  -5   9  193.41   42.93
  -5 -11   9  202.18   43.32
 -11   5   9  204.32   43.24
  11   5  -9  249.14   28.62
  11  -5  -9  211.44   27.94
   5 -11  -9  251.17   32.47
  -5 -11  -9  213.25   55.27
  -5  11  -9  230.05   30.95
   5  11   9  253.61   13.52
   5  11  -9  212.81   37.95
 -11   5 -10  206.76   34.41
  -5 -11 -10  257.15   34.63
 -11  -5 -10  225.59   51.72
 -11  -5  10  201.02   42.58
  -5 -11  10  276.83   23.75
 -11   5  10  249.95   17.15
  11   5 -10  197.07   35.87
  11  -5 -10  174.58   34.96
   5 -11 -10  201.10   18.16
  -5 -11 -10  166.99   58.90
  -5  11 -10  232.50   14.65
   5  11 -10  281.99   24.96
 -11   5 -11   43.97   17.89
  -5 -11 -11   59.12   13.15
 -11  -5 -11   52.27   12.25
 -11  -5  11   35.29   11.62
  -5 -11  11   60.27   20.84
 -11   5  11   69.96    9.79
  11   5 -11   25.46   13.19
  11  -5 -11   40.24   15.80
   5 -11 -11   43.21   15.41
  -5 -11 -11   28.72   13.08
  -5  11 -11   64.18   16.97
   5  11 -11   47.42   13.82
 -11   5 -12   54.06   16.93
  -5 -11 -12   36.65   15.62
 -11  -5 -12   73.04   15.82
 -11  -5  12   37.39   10.81
  -5 -11  12   70.43   12.27
 -11   5  12   56.57   14.81
  11   5 -12   80.59   20.72
  11  -5 -12   38.42   15.82
   5 -11 -12   87.69   14.21
  -5 -11 -12   26.96   18.81
  -5  11 -12   49.93   12.29
   5  11 -12   53.01   15.58
 -11   5 -13   48.22   16.69
  -5 -11 -13   42.08   14.06
 -11  -5 -13   44.55   15.83
 -11  -5  13   33.34   14.83
  -5 -11  13   54.89   15.77
 -11   5  13   47.20   14.72
  11   5 -13   44.09   17.46
  11  -5 -13   22.89   12.08
   5 -11 -13   47.52   23.63
  -5 -11 -13   42.44   20.19
  -5  11 -13   48.72   14.41
   5  11 -13   33.89   10.23
 -11   5 -14   26.79    9.27
  -5 -11 -14   26.06    9.00
 -11  -5 -14   13.34    9.33
 -11  -5  14   31.77   14.23
  -5 -11  14    6.41    8.08
 -11   5  14   10.35    7.56
  11   5 -14   14.27    6.09
  11  -5 -14   30.36   10.14
   5 -11 -14   21.97    9.32
  -5 -11 -14    9.73    7.03
  -5  11 -14   10.44    5.46
   5  11 -14   17.48   13.76
 -11   5 -15    3.09    5.13
  -5 -11 -15    2.07    4.47
 -11  -5 -15    9.38   11.95
 -11  -5  15   34.90   12.71
  -5 -11  15    2.75    5.31
  11   5 -15   11.59    7.10
  11  -5 -15    7.69    4.87
   5 -11 -15   19.89    9.36
  -5 -11 -15    2.53    6.87
   5  11 -15   -1.24    5.65
 -11   6   0   15.33    4.03
  -6 -11   0    3.57    6.08
 -11  -6   0   19.27   10.22
   6 -11   0   10.71    7.51
  -6  11   0   11.17    5.20
   6  11   0   11.59    6.79
 -11   6  -1    9.23    4.58
  -6 -11  -1    5.72    6.38
 -11   6   1    8.64    4.43
 -11  -6  -1   13.39    8.39
  -6 -11   1   25.69    7.68
 -11  -6   1    2.28    7.27
   6 -11  -1    9.44    7.24
 -11  -6  -1    9.06    4.83
   6 -11   1    6.00    5.15
  -6 -11  -1   16.68    5.43
  -6  11   1   10.38    8.38
  -6  11  -1   13.86    8.73
   6  11   1   17.51    6.04
   6  11  -1   12.88    7.36
 -11   6  -2  107.17   19.15
  -6 -11  -2  119.91   31.50
 -11  -6  -2  152.32   34.51
 -11   6   2  132.67   22.67
  -6 -11   2  151.93   11.80
 -11  -6   2  133.52   23.58
 -11  -6  -2  111.54   16.94
   6 -11  -2  139.68   17.25
  -6 -11  -2  121.70   29.32
   6 -11   2  146.41   33.99
  -6  11   2  141.02   22.57
  -6  11  -2  152.96   23.29
   6  11   2  125.64   26.02
   6  11  -2  126.27   33.60
 -11   6  -3   49.81    9.55
  -6 -11  -3   34.04    8.89
 -11  -6  -3   40.84   13.84
 -11   6   3   55.09   12.32
  -6 -11   3   49.21   17.11
 -11  -6   3   42.11   11.23
 -11  -6  -3   30.32   13.31
   6 -11  -3   57.21   18.20
  -6 -11  -3   53.27   16.70
  -6  11  -3   50.55   15.24
   6  11   3   75.70   19.49
   6  11  -3   67.06   16.83
 -11   6  -4   21.96    6.89
  -6 -11  -4   18.20    8.00
 -11  -6  -4   22.33    9.68
 -11   6   4   22.44    5.41
  -6 -11   4   11.94    5.24
 -11  -6   4   24.42   10.00
  11  -6  -4   14.33    3.35
 -11  -6  -4   10.28    4.09
   6 -11  -4   15.84    4.50
  -6 -11  -4   12.20   10.17
  -6  11  -4   15.67    5.28
   6  11   4   14.50    8.80
   6  11  -4   29.11    8.96
 -11   6  -5   84.64   17.19
  -6 -11  -5   94.69   33.94
 -11  -6  -5   91.09   30.09
 -11   6   5   87.15   20.25
  -6 -11   5  114.27   22.65
 -11  -6   5  113.15   18.37
  11  -6  -5   69.05   16.09
 -11  -6  -5   56.12   13.17
   6 -11  -5  114.16   25.36
  -6 -11  -5  117.25   24.19
  -6  11  -5  103.15   27.73
   6  11   5   89.10   28.42
   6  11  -5  112.85   30.01
 -11   6  -6  361.27   15.76
  -6 -11  -6  412.41   18.58
 -11  -6  -6  449.39   26.44
 -11  -6   6  382.61   49.60
  -6 -11   6  329.72   56.98
 -11   6   6  406.17   38.94
  11  -6  -6  352.83   28.73
   6 -11  -6  402.05   38.54
  -6 -11  -6  396.10   20.32
  -6  11  -6  380.02   50.27
   6  11   6  402.88   17.69
   6  11  -6  421.48   21.87
 -11   6  -7  334.93   30.28
  -6 -11  -7  358.08   34.75
 -11  -6  -7  331.50   48.81
 -11  -6   7  311.58   63.29
  -6 -11   7  407.21   18.95
 -11   6   7  366.90   19.68
  11  -6  -7  321.97   34.19
   6 -11  -7  402.50   55.37
  -6 -11  -7  276.69   57.43
  -6  11  -7  408.41   54.67
   6  11   7  363.30   25.00
   6  11  -7  377.17   40.52
  11   6   7  317.83   28.25
 -11   6  -8   42.85    9.35
  -6 -11  -8   26.71   11.44
 -11  -6  -8   39.39   12.35
 -11  -6   8   40.64   14.16
  -6 -11   8   20.13    6.64
 -11   6   8   42.90    8.21
  11  -6  -8   28.61   10.05
   6 -11  -8   37.30   11.48
  -6 -11  -8   13.43    8.09
  -6  11  -8   36.11   13.19
   6  11   8   35.49    8.18
   6  11  -8   42.45   10.96
 -11   6  -9   58.17   13.51
  -6 -11  -9   83.65   22.14
 -11  -6  -9   70.15   24.44
 -11  -6   9   68.45   16.90
  -6 -11   9   66.29   19.04
 -11   6   9   80.35   18.85
  11  -6  -9   54.71   17.64
   6 -11  -9   67.93   19.08
  -6 -11  -9   66.34   23.77
  -6  11  -9   86.35   22.12
   6  11  -9   70.07   18.00
 -11   6 -10  259.98   33.34
  -6 -11 -10  245.16   27.95
 -11  -6 -10  264.19   60.82
 -11  -6  10  173.58   59.84
  -6 -11  10  197.19   57.10
 -11   6  10  259.17   15.26
  11   6 -10  229.28   22.81
  11  -6 -10  215.91   27.71
   6 -11 -10  237.98   16.68
  -6 -11 -10  133.27   56.22
  -6  11 -10  283.45   15.96
   6  11 -10  225.03   51.67
 -11   6 -11    8.08    3.77
  -6 -11 -11   11.37    4.85
 -11  -6 -11   13.93    8.21
 -11  -6  11   25.11    9.13
  -6 -11  11   23.02    8.24
 -11   6  11    7.83    4.02
  11   6 -11   10.03    5.62
  11  -6 -11    5.95    4.55
   6 -11 -11   16.05    9.13
  -6 -11 -11   31.84    9.72
  -6  11 -11    8.42    6.30
   6  11 -11   13.50    9.51
 -11   6 -12    6.55    4.99
  -6 -11 -12   23.56    8.81
 -11  -6 -12   11.20    9.16
 -11  -6  12   24.41   14.13
  -6 -11  12    7.12    7.31
 -11   6  12   15.34    8.02
  11  -6 -12   13.80    8.41
  -6 -11 -12   21.02    9.25
  -6  11 -12    6.58    6.26
   6  11 -12    8.92    7.64
 -11   6 -13   10.27    7.61
  -6 -11 -13    9.51    9.18
 -11  -6 -13   19.82    4.82
 -11  -6  13   16.41    9.44
  -6 -11  13   13.20    6.44
 -11   6  13    9.34    7.28
  11   6 -13   13.75    6.44
  11  -6 -13    5.77    7.01
   6 -11 -13   10.31    4.74
  -6 -11 -13   19.21    9.43
  -6  11 -13   14.05    6.42
   6  11 -13   14.84    7.50
 -11   6 -14   10.56    5.31
  -6 -11 -14   14.23    8.23
 -11  -6 -14   10.26    7.52
 -11  -6  14   16.97   11.71
  -6 -11  14   19.10   10.22
 -11   6  14    6.52    5.29
  11  -6 -14   17.89    8.49
   6 -11 -14    4.97    5.32
  -6 -11 -14   16.69    8.85
   6  11 -14    9.85    6.92
 -11   7   0    4.99    3.02
  -7 -11   0    2.74    5.87
 -11  -7   0   14.92    7.30
   7 -11   0    2.84    5.02
 -11  -7   0    5.65    2.41
  -7 -11   0    8.09    7.24
  -7  11   0   10.86    4.09
   7  11   0    4.02    4.36
  -7 -11  -1  237.28   17.48
 -11  -7  -1  273.26   29.74
  -7 -11   1  235.87   16.54
 -11  -7   1  216.16   46.40
   7 -11  -1  249.71   34.09
 -11  -7  -1  232.86   12.09
   7 -11   1  252.66   24.67
  -7 -11  -1  216.43   31.55
  -7  11  -1  247.94   34.61
   7  11   1  239.36   54.49
   7  11  -1  233.89   21.71
  -7 -11  -2  423.37   20.33
 -11  -7  -2  517.36   30.97
  -7 -11   2  458.79   21.55
 -11  -7   2  434.69   49.39
   7 -11  -2  438.62   24.50
 -11  -7  -2  437.79   17.76
  -7 -11  -2  426.00   27.34
   7 -11   2  445.99   23.92
  -7  11  -2  452.44   53.06
   7  11   2  474.15   29.54
   7  11  -2  452.49   49.22
  -7 -11  -3   83.92   10.96
 -11  -7  -3  110.72   15.34
  -7 -11   3  108.30   24.77
 -11  -7   3   74.42   19.42
   7 -11  -3   98.27   25.92
 -11  -7  -3   59.56   11.56
  -7 -11  -3   56.86   21.38
   7 -11   3  102.90   25.88
  -7  11  -3  130.99   29.12
   7  11   3   98.60   15.91
   7  11  -3   94.44   23.17
 -11   7  -4   26.16    5.13
  -7 -11  -4   27.72   10.51
 -11  -7  -4   13.19    7.83
  -7 -11   4   27.26    8.83
 -11  -7   4   15.73   10.14
  11  -7  -4   15.52    7.19
 -11  -7  -4   17.27    8.24
   7 -11  -4   32.41    6.96
  -7 -11  -4   26.65   11.87
  -7  11  -4   34.30   13.17
   7  11   4   34.27   12.95
   7  11  -4   19.94   14.34
 -11   7  -5   25.86    5.57
  -7 -11  -5   28.16   14.92
 -11  -7  -5   22.86   10.51
 -11   7   5   22.37    4.56
  -7 -11   5   20.99    9.04
 -11  -7   5   38.47   14.29
  11  -7  -5   24.96    8.54
 -11  -7  -5   19.96    7.20
   7 -11  -5   29.69   11.90
  -7 -11  -5   35.29   15.91
  -7  11  -5   21.50    7.12
   7  11   5   21.07    6.42
   7  11  -5   42.76   10.37
  11   7   5   36.57    9.74
 -11   7  -6   72.11   20.63
  -7 -11  -6  105.34   32.31
 -11  -7  -6  113.45   28.61
  -7 -11   6   85.06   30.61
 -11  -7   6  124.23   32.25
  11  -7  -6  105.94   16.03
 -11  -7  -6   66.31   13.24
   7 -11  -6  107.31   26.34
  -7 -11  -6  141.61   42.82
  -7  11  -6  117.34   34.88
   7  11   6   79.46   24.29
   7  11  -6  120.57   27.28
  11   7   6   99.80   19.12
 -11  -7  -7   89.05   16.51
 -11  -7   7   68.62   23.48
 -11   7   7   68.93   13.89
  11  -7  -7   53.45   16.52
 -11  -7  -7   40.20   18.01
  -7 -11  -7   45.14   23.39
  -7  11  -7   72.81   19.44
   7  11   7   71.95   17.82
   7  11  -7   82.57   20.74
  11   7   7   52.25   14.45
 -11   7  -8    9.38    4.98
  -7 -11  -8    9.12    4.93
  -7 -11   8    4.73    4.77
 -11   7   8   17.25    7.85
  11  -7  -8   12.53    5.00
   7 -11  -8   11.59    6.54
  -7 -11  -8   19.09    5.93
  -7  11  -8   14.66    8.08
   7  11   8   10.51    5.86
   7  11  -8   31.51   11.05
 -11   7  -9   24.77    9.47
  -7 -11  -9   23.34    6.17
 -11  -7  -9   31.65    8.94
 -11  -7   9   24.53   13.53
  -7 -11   9   22.93    7.33
  11  -7  -9   24.19    7.16
   7 -11  -9   38.64    8.14
  -7 -11  -9   22.95    5.52
  -7  11  -9   31.10   13.61
   7  11  -9   36.41   15.54
  -7 -11 -10   82.86   26.86
 -11  -7 -10   79.47   22.53
 -11  -7  10   71.10   24.90
  -7 -11  10   64.05   17.89
  11  -7 -10   61.33   23.42
   7 -11 -10   89.61   19.29
  -7 -11 -10   67.84   27.04
  -7  11 -10  104.73   26.69
   7  11 -10  101.56   25.10
  -7 -11 -11   38.46    8.91
 -11  -7 -11   37.08   18.46
 -11  -7  11   33.34   15.58
  -7 -11  11   17.60    5.75
  11  -7 -11   22.07   11.45
   7 -11 -11   35.81    9.25
  -7 -11 -11   18.07    7.75
  -7  11 -11   41.74   10.16
   7  11 -11   48.98   11.39
  -7 -11 -12   23.84   10.00
 -11  -7 -12   50.21   11.61
 -11  -7  12   34.66   19.38
  -7 -11  12   26.86   13.22
  11   7 -12   34.67   10.52
  11  -7 -12   23.53   10.68
   7 -11 -12   43.94    9.44
  -7 -11 -12   31.74   11.53
  -7  11 -12   28.27   15.05
   7  11 -12   45.39   22.83
  -7 -11 -13   76.71   20.53
 -11  -7 -13   50.83   26.29
 -11  -7  13   57.70   12.52
  -7 -11  13   57.73   18.15
  11   7 -13   49.58   22.69
  11  -7 -13   61.83   21.23
   7 -11 -13   55.79   23.95
  -7 -11 -13   35.58   18.26
  -7  11 -13   65.49   18.09
   7  11 -13   71.38   25.41
  -7 -11 -14   87.26   20.67
 -11  -7 -14  114.65   31.36
 -11  -7  14   79.35   26.00
  -7 -11  14   62.00   23.83
  11   7 -14   89.67   27.52
  11  -7 -14   66.36   22.05
   7 -11 -14   74.05   35.21
  -7 -11 -14   47.83   34.30
   7  11 -14   69.77   28.68
 -11  -8   0  301.46   32.73
   8 -11   0  267.55   30.73
 -11  -8   0  307.62   13.36
  -8 -11   0  320.38   16.56
   8  11   0  313.57   35.69
  -8 -11  -1  190.59   15.92
 -11  -8  -1  178.61   54.27
  -8 -11   1  244.12   16.92
 -11  -8   1  174.38   20.31
   8 -11  -1  216.89   23.92
   8 -11   1  188.60   24.04
 -11  -8  -1  192.68   32.24
  -8 -11  -1  164.36   43.20
   8  11   1  202.37   35.58
   8  11  -1  170.08   40.78
  -8 -11  -2   85.58   23.09
 -11  -8  -2   93.87   13.70
  -8 -11   2   83.81   27.39
 -11  -8   2   90.86   23.59
   8 -11  -2   74.14    9.85
 -11  -8  -2   53.11   20.18
  -8 -11  -2   69.46   26.83
   8  11   2   76.81   23.62
   8  11  -2   97.67   28.53
  -8 -11  -3   81.65   19.52
 -11  -8  -3   99.01   32.64
  -8 -11   3  118.69   21.69
 -11  -8   3   90.08   17.92
   8 -11  -3  117.58   19.65
 -11  -8  -3   77.56   15.58
  -8 -11  -3   98.07   27.05
   8 -11   3  107.38   13.96
  -8  11  -3  109.20   31.27
   8  11   3  127.38   33.98
   8  11  -3  105.54   32.64
  11   8   3   95.45   30.35
  -8 -11  -4  185.47   15.77
 -11  -8  -4  156.13   17.97
  -8 -11   4  115.16   39.15
 -11  -8   4  129.46   20.82
   8 -11  -4  135.21   26.73
 -11  -8  -4  109.17   16.86
  -8 -11  -4  108.00   39.03
  -8  11  -4  156.21   33.80
   8  11   4  141.58   29.93
   8  11  -4  160.01   46.43
  11   8   4  146.91   23.80
  -8 -11  -5   27.36   16.30
 -11  -8  -5   73.64   22.43
  -8 -11   5   40.02   10.62
 -11  -8   5   55.22   13.06
  11  -8  -5   35.91   14.19
   8 -11  -5   52.09   15.13
 -11  -8  -5   35.19    5.82
  -8 -11  -5   44.81   10.81
  -8  11  -5   69.35   15.71
   8  11   5   60.56   20.39
   8  11  -5   52.58   14.18
  11   8   5   54.19   14.31
  -8 -11  -6   49.26   17.14
 -11  -8  -6   47.57   10.84
 -11  -8   6   63.91   19.73
  -8 -11   6   60.07   20.60
  11  -8  -6   57.59   19.07
   8 -11  -6   67.77   22.39
 -11  -8  -6   56.89   19.45
  -8 -11  -6   60.21   21.98
  -8  11  -6   79.44   20.03
   8  11   6   72.18   24.68
   8  11  -6  104.09   28.33
  11   8   6   56.94   15.87
  -8 -11  -7    6.52    5.61
 -11  -8  -7   -0.89    5.72
  -8 -11   7   -1.92    6.59
 -11  -8   7    7.59    5.48
  11  -8  -7    4.71    5.07
   8 -11  -7   10.09    6.77
 -11  -8  -7    6.20    3.95
  -8 -11  -7    7.24    6.04
  -8  11  -7    1.39    3.57
   8  11   7    3.89    5.33
   8  11  -7   16.79    9.38
  -8 -11  -8   58.15   19.03
 -11  -8  -8   56.45   14.40
 -11  -8   8   71.23   18.93
  -8 -11   8   32.20   15.68
  11  -8  -8   57.17    8.86
 -11  -8  -8   42.84   13.02
   8 -11  -8   44.04   18.15
  -8 -11  -8   44.92   20.78
  -8  11  -8   51.65   15.97
   8  11  -8   65.59   18.34
  -8 -11  -9    3.55    3.51
 -11  -8  -9   16.86   10.45
 -11  -8   9   11.73    7.64
  -8 -11   9   12.04    7.11
  11  -8  -9    9.93    7.82
   8 -11  -9   24.74    6.84
  -8 -11  -9    6.89    4.29
  -8  11  -9    4.79    8.23
   8  11  -9    4.93    8.64
  -8 -11 -10   43.91   23.61
 -11  -8 -10   53.98   14.27
 -11  -8  10   29.84    8.83
  -8 -11  10   20.87    9.27
  11  -8 -10   43.20   20.37
   8 -11 -10   46.39    9.31
  -8 -11 -10   20.63   11.22
  -8  11 -10   52.07   17.57
   8  11 -10   45.23   14.11
  -8 -11 -11  100.13   38.56
 -11  -8 -11  140.57   33.02
 -11  -8  11   87.68   43.76
  -8 -11  11  102.09   37.94
  11  -8 -11   88.38   34.71
   8 -11 -11  120.68   40.50
  -8 -11 -11   84.97   41.19
  -8  11 -11  131.80   35.02
   8  11 -11  143.36   40.04
  -8 -11 -12  133.62   50.61
 -11  -8 -12  155.79   31.31
 -11  -8  12  100.98   37.88
  -8 -11  12  122.20   46.68
  11  -8 -12   68.39   34.44
   8 -11 -12  108.71   38.68
  -8 -11 -12  116.66   34.31
  -8  11 -12  121.29   38.95
   8  11 -12  155.52   43.81
  -8 -11 -13   16.53    8.72
 -11  -8 -13   27.90    9.38
 -11  -8  13   14.85    6.34
  -8 -11  13   13.86    8.59
  11  -8 -13    7.65    5.44
   8 -11 -13   28.32    9.91
  -8 -11 -13   14.74    7.77
   8  11 -13   22.04   17.38
  -9 -11   0    9.72    8.24
 -11  -9   0   -0.95    8.00
   9 -11   0    7.00    5.37
 -11  -9   0    8.64    4.72
  -9 -11   0    2.27    5.40
   9  11   0   11.70    9.92
  11   9   0    3.01    7.13
  -9 -11  -1   39.40   10.73
 -11  -9  -1   32.77    8.86
  -9 -11   1   32.30    9.03
 -11  -9   1   36.78   11.04
   9 -11  -1   39.59   15.31
   9 -11   1   29.55    8.82
 -11  -9  -1   38.50   11.01
 -11  -9   1   26.50    9.88
   9  11   1   35.51   17.16
   9  11  -1   27.78   11.98
  11   9   1   28.20   11.71
  11   9  -1   40.89   17.63
  -9 -11  -2   31.93   11.53
 -11  -9  -2   38.98   11.02
  -9 -11   2   32.01   16.57
 -11  -9   2   42.98   12.98
   9 -11  -2   41.11   12.08
 -11  -9  -2   36.80   13.81
   9 -11   2   41.54    9.55
  -9 -11  -2   36.62    9.06
   9  11  -2   44.52   17.49
  11   9   2   39.61   13.66
  -9 -11  -3   35.34   14.24
 -11  -9  -3   30.67    8.19
  -9 -11   3   24.44   11.51
 -11  -9   3   30.06   10.19
   9 -11  -3   27.14   10.15
  -9 -11  -3   26.34   10.02
   9 -11   3   26.39   10.51
   9  11   3   17.56   10.51
   9  11  -3   52.66   13.26
  11   9   3   19.72    7.66
  -9 -11  -4  143.98   43.26
 -11  -9  -4  139.63   39.71
  -9 -11   4  137.74   35.81
 -11  -9   4  154.64   35.87
   9 -11  -4  143.11   34.94
  -9 -11  -4  126.58   31.69
   9 -11   4  157.14   34.93
   9  11   4  146.64   36.39
   9  11  -4  148.55   23.46
  11   9   4  147.19   37.92
  -9 -11  -5  130.05   14.17
 -11  -9  -5  142.16   16.30
  -9 -11   5   88.91   36.83
 -11  -9   5  118.84   36.83
   9 -11  -5  117.64   15.33
   9  11   5  108.93   31.18
  11   9   5   86.10   22.74
   9  11  -5  120.42   35.11
  -9 -11  -6   22.67   15.07
 -11  -9  -6    8.26    5.11
  -9 -11   6   29.00   11.43
 -11  -9   6   23.03   10.73
  11  -9  -6   10.28    3.36
   9 -11  -6   25.30    8.04
 -11  -9  -6   15.75    7.31
  -9 -11  -6    9.46    5.38
   9  11   6   33.58    9.62
  11   9   6   13.45    8.29
   9  11  -6   30.02   11.19
  -9 -11  -7   43.44   15.41
 -11  -9  -7   48.13   18.30
  -9 -11   7   64.26   16.01
 -11  -9   7   41.34   14.29
  11  -9  -7   37.65   15.15
   9 -11  -7   53.27   21.69
  -9 -11  -7   36.96   20.80
   9  11   7   41.24   14.06
   9  11  -7   58.33   14.96
  -9 -11  -8  185.30   43.51
 -11  -9  -8  158.83   35.62
 -11  -9   8  136.19   35.48
  -9 -11   8  109.08   25.63
  11  -9  -8  133.68   26.22
   9 -11  -8   96.43   35.98
 -11  -9  -8  124.53   21.18
  -9 -11  -8  128.33   28.54
   9  11  -8  140.62   38.88
  -9 -11  -9   48.55   12.78
 -11  -9  -9   40.88   12.14
 -11  -9   9   33.80   18.02
  -9 -11   9   54.01   19.08
  11  -9  -9   42.10   16.38
   9 -11  -9   53.45   10.18
  -9 -11  -9   34.56   16.10
   9  11  -9   69.07   21.12
  -9 -11 -10   11.22    5.41
 -11  -9 -10    6.66    7.33
 -11  -9  10   12.73   10.89
  -9 -11  10    9.40    6.89
  11  -9 -10    9.35    6.27
   9 -11 -10    9.78    7.57
  -9 -11 -10   22.24   10.29
   9  11 -10   10.05    6.76
  -9 -11 -11   32.39   11.84
 -11  -9 -11   48.38   14.43
 -11  -9  11   24.92   15.31
  -9 -11  11   40.36   10.94
  11  -9 -11   27.52   16.38
   9 -11 -11   26.64   12.76
  -9 -11 -11   28.53   16.80
   9  11 -11   44.61   13.83
  11   9 -11   36.96   19.52
  -9 -11 -12   53.53   21.60
 -11  -9 -12   61.12   20.70
 -11  -9  12   46.91   27.48
  -9 -11  12   63.39   21.51
  11  -9 -12   50.03   20.33
   9 -11 -12   47.09   23.66
  -9 -11 -12   52.78   27.93
   9  11 -12   85.13   23.56
  11   9 -12   60.53   25.67
 -10 -11   0  134.94   44.28
 -11 -10   0  294.11   25.77
  10 -11   0  159.43   16.39
 -11 -10   0  156.10   29.44
 -10 -11   0  120.61   47.16
  10  11   0  232.31   31.62
  11  10   0  216.15   42.68
 -10 -11  -1   92.99   12.55
 -11 -10  -1   42.20   21.52
 -10 -11   1   62.92   22.07
 -11 -10   1   98.24   13.72
  10 -11  -1   60.37   25.29
  10 -11   1   57.78   20.69
 -11 -10  -1   44.53   17.29
 -10 -11  -1   73.04   18.51
 -11 -10   1   51.33   19.95
 -10 -11   1   51.13   18.46
  10  11   1   80.73   35.34
  10  11  -1   86.93   21.49
  11  10   1   84.96   20.64
  11  10  -1   66.96   23.15
 -10 -11  -2   35.45    9.61
 -11 -10  -2   53.37    9.42
 -10 -11   2   38.12    9.74
 -11 -10   2   40.26   13.27
  10 -11  -2   42.88   13.40
 -11 -10  -2   34.37   12.58
 -10 -11  -2   36.84   13.42
  10  11   2   44.25   18.44
  10  11  -2   47.44   15.02
  11  10   2   78.87   18.00
  11  10  -2   44.34   19.97
 -10 -11  -3   63.89   27.12
 -11 -10  -3   75.73   13.05
 -10 -11   3   64.05    9.73
 -11 -10   3  107.04   21.99
  10 -11  -3   58.30   19.72
 -11 -10  -3   60.32   24.63
 -10 -11  -3   39.33   21.79
  10  11   3   74.39   23.13
  11  10   3  113.25   26.30
  10  11  -3  108.04   21.12
  11  10  -3  100.93   29.41
 -10 -11  -4  244.66   18.20
 -11 -10  -4  308.34   22.71
 -10 -11   4  247.77   64.72
 -11 -10   4  197.68   60.62
  10 -11  -4  266.64   16.81
 -11 -10  -4  161.29   37.99
 -10 -11  -4  199.83   36.41
  10  11   4  284.83   22.92
  11  10   4  239.68   29.67
  10  11  -4  300.40   47.58
  11  10  -4  325.45   37.12
 -10 -11  -5   87.04   33.98
 -11 -10  -5   89.01   38.30
 -11 -10   5   91.07   36.29
 -10 -11   5   99.47   38.55
  10 -11  -5  124.77   11.37
 -11 -10  -5   74.92   29.99
 -10 -11  -5   74.18   33.55
  10  11   5   98.24   19.75
  11  10   5  115.41   23.85
  10  11  -5  118.17   30.15
  11  10  -5  104.02   33.61
 -10 -11  -6   43.03   23.09
 -11 -10  -6   36.86   16.98
 -10 -11   6   45.42   19.22
 -11 -10   6   61.00   20.53
  10 -11  -6   58.61   25.85
 -10 -11  -6   60.37   17.75
  10  11   6   58.46   26.39
  11  10   6   69.30   22.89
  10  11  -6   76.47   20.54
  11  10  -6   63.60   25.80
 -10 -11  -7   26.78    7.93
 -11 -10  -7   23.26   12.96
 -11 -10   7   35.25    9.66
  11 -10  -7   20.48    5.56
  10 -11  -7   23.29    9.20
 -11 -10  -7   13.39   10.31
 -10 -11  -7   13.42    8.73
  10  11  -7   25.22   11.43
  11  10  -7   45.65    9.72
 -10 -11  -8  208.12   56.48
 -11 -10  -8  184.94   39.63
 -10 -11   8  152.09   51.63
 -11 -10   8  111.49   57.39
  11 -10  -8  142.59   29.59
  10 -11  -8  160.04   36.35
 -10 -11  -8  192.36   39.45
  10  11  -8  273.80   30.25
  11  10  -8  165.27   55.51
 -10 -11  -9  135.41   35.29
 -11 -10  -9  138.25   42.37
 -11 -10   9   97.43   30.99
 -10 -11   9  120.25   22.90
  11 -10  -9   95.85   34.50
  10 -11  -9  129.12   21.93
 -10 -11  -9   67.34   35.11
  10  11  -9  114.33   35.27
  11  10  -9  145.01   28.57
 -10 -11 -10   31.91   16.51
 -11 -10 -10   20.42    9.21
 -10 -11  10   22.66   13.51
 -11 -10  10   22.81    7.43
  11 -10 -10   20.33   10.20
  10 -11 -10   14.86    8.11
 -10 -11 -10   11.50    8.25
  11  10 -10   29.88   11.30
 -10 -11 -11   50.62   20.00
 -11 -10 -11   18.06   12.58
 -11 -10  11   33.64   13.95
  11 -10 -11   24.13    6.21
  10 -11 -11   24.39    8.98
 -10 -11 -11   32.80   10.27
  10  11 -11   36.81   11.75
  11  10 -11   26.27   12.92
 -11 -11   0   98.11   18.07
 -11 -11   0   61.32   20.45
  11  11   0  102.10   26.79
 -11 -11  -1   91.22   22.62
 -11 -11   1  126.35   13.38
 -11 -11  -1   72.95   31.73
 -11 -11   1   78.06   30.15
  11  11   1   99.76   34.09
  11  11  -1  155.75   41.59
 -11 -11   2   45.60   21.06
 -11 -11  -2   37.64   13.71
  11  11   2   42.61   12.61
  11  11  -2   58.46   16.87
 -11 -11  -3   11.66    5.39
 -11 -11   3    4.32    4.16
 -11 -11  -3    2.16    3.33
  11  11   3    3.96    3.93
  11  11  -3    8.67    6.20
 -11 -11  -4   13.27    9.30
 -11 -11   4    8.43    7.00
 -11 -11  -4    9.17    4.32
  11  11   4    9.80    5.70
  11  11  -4   15.96    8.40
 -11 -11  -5    4.40    3.39
 -11 -11   5   11.97    5.90
 -11 -11  -5    6.05    5.22
  11  11   5   10.53    8.01
  11  11  -5   16.87    8.90
 -11 -11  -6    2.08    6.29
 -11 -11  -6    9.26    6.54
  11  11   6    5.69    3.33
  11  11  -6   12.53    9.37
 -11 -11  -7    8.03    4.13
 -11 -11   7    8.64    8.01
 -11 -11  -7    5.54    4.15
  11  11  -7    8.24    5.96
 -11 -11  -8    7.47    5.36
 -11 -11   8   11.99   13.09
 -11 -11  -8    6.69    6.25
  11  11  -8   23.64   15.91
 -11 -11  -9   16.48   10.53
 -11 -11   9   17.42   10.09
  11 -11  -9    6.38    7.08
  11  11  -9    4.62    6.20
   0 -12   0 1023.51   27.63
   0  12   0  949.18   41.57
 -12   0  -1    6.43    6.32
 -12   0   1    8.36    6.46
   0 -12  -1    8.36    6.63
   0  12   1    4.08    5.24
   0  12  -1    5.04    6.90
 -12   0  -2   63.35   18.56
 -12   0   2   65.53   13.57
   0 -12  -2   77.52   17.26
   0  12   2   73.95   15.78
   0  12  -2   70.14   17.62
 -12   0  -3  397.80   31.34
 -12   0   3  412.98   22.22
   0 -12  -3  424.71   54.85
   0  12   3  400.95   39.73
   0  12  -3  414.10   26.43
   0 -12  -4  170.36   14.24
 -12   0  -4  188.51   34.27
   0 -12   4  215.15    8.29
 -12   0   4  225.78   13.30
   0 -12  -4  209.72   47.00
   0  12   4  233.07   41.97
   0  12  -4  216.39   44.10
   0 -12  -5   89.66   18.27
 -12   0  -5  102.52   18.45
   0 -12   5   85.50   21.02
 -12   0   5   91.01   21.83
   0 -12  -5  113.88   13.65
   0  12   5  124.56   27.76
   0  12  -5  108.87   25.38
   0 -12  -6    4.28    3.37
 -12   0  -6   11.34    8.97
 -12   0   6    6.64    7.63
   0 -12   6    7.61    3.80
   0 -12  -6   11.71    6.11
   0  12   6   22.32    9.17
   0  12  -6   21.23    9.77
   0 -12  -7   29.84   13.09
 -12   0  -7   64.22   19.07
 -12   0   7   54.99   15.93
   0 -12   7   53.48   13.08
  12   0  -7   51.28    8.05
   0 -12  -7   64.66   14.59
   0  12   7   68.47   13.23
   0  12  -7   56.95   15.21
   0 -12  -8   32.37   11.77
 -12   0  -8   40.87   12.83
 -12   0   8   34.61   13.54
   0 -12   8   33.29   10.21
  12   0  -8   42.59    6.09
   0 -12  -8   44.17   14.02
   0  12   8   38.80   12.26
   0  12  -8   47.93   13.66
 -12   0  -9  532.24   25.31
 -12   0   9  567.48   20.73
   0 -12   9  521.08   23.04
  12   0  -9  523.98   35.51
   0 -12  -9  457.73   50.94
   0  12   9  555.33   17.61
   0  12  -9  643.31   22.97
 -12   0 -10    8.87    6.29
 -12   0  10   12.22    8.38
   0 -12  10    6.18    6.57
   0  12  10    2.88    2.78
  12   0 -10    4.69    3.42
   0 -12 -10    7.65    9.17
   0  12  10    2.99    3.03
   0  12 -10    8.97    8.98
 -12   0 -11   45.35   14.99
 -12   0  11   62.96   22.17
   0 -12  11   74.03   15.00
   0  12  11   52.79   14.04
  12   0 -11   69.10   12.14
   0 -12 -11   56.44   25.20
   0  12 -11   86.70   23.60
 -12   0 -12  133.31   47.34
 -12   0  12  177.29   49.16
   0 -12  12   96.83   32.45
  12   0 -12  150.10   23.05
   0 -12 -12  119.42   42.30
   0  12 -12  151.75   33.98
 -12   0 -13   15.03   11.43
 -12   0  13    8.09    6.11
   0 -12  13    2.04    3.07
   0  12  13    3.05    3.81
  12   0 -13    9.17    5.60
   0 -12 -13   14.35    6.24
   0  12 -13    8.03    9.15
 -12   0 -14   12.23    9.75
 -12   0  14    9.39    8.63
  12   0 -14    8.22    4.49
   0 -12 -14   12.93    7.87
   0  12 -14   16.43    8.20
 -12   0 -15   19.90   10.28
 -12   0  15   16.76    8.10
  12   0 -15   15.25    7.80
   0 -12 -15   30.92   11.36
   0  12 -15   21.56    6.69
  -1 -12   0   27.65    9.42
 -12   1   0   25.93    8.94
 -12  -1   0   39.66   10.26
   1 -12   0   50.20   15.42
  -1 -12   0   45.25   13.71
  -1  12   0   42.81   14.53
   1  12   0   48.51   11.35
  -1 -12  -1   60.62   15.80
  -1 -12   1   64.33   14.91
 -12   1  -1   96.36   18.60
 -12  -1  -1  104.60   10.78
 -12   1   1   85.66   26.13
 -12  -1   1  107.65   20.02
   1 -12  -1  115.76   17.52
  -1 -12  -1   96.18   27.85
  -1  12   1  106.50   22.10
  -1  12  -1   95.86   30.35
   1  12   1   89.31   21.49
   1  12  -1  101.46   28.22
  -1 -12  -2   19.08    5.74
 -12   1  -2   29.88    9.08
 -12  -1  -2   24.19    6.11
  -1 -12   2   20.71    4.51
 -12   1   2   30.21    7.98
 -12  -1   2   21.54    6.65
   1 -12  -2   26.84    6.98
  -1 -12  -2   18.73    7.34
  -1  12   2   30.03   10.42
  -1  12  -2   21.21    8.51
   1  12   2   25.93    8.83
   1  12  -2   30.32   10.59
  -1 -12  -3  386.79   16.35
 -12   1  -3  382.09   26.53
 -12  -1  -3  372.60   36.54
  -1 -12   3  401.57   16.13
 -12   1   3  415.68   51.36
 -12  -1   3  374.06   54.33
   1 -12  -3  412.89   35.79
  -1 -12  -3  409.53   61.42
  -1  12   3  420.90   27.21
   1  12   3  452.20   28.20
  -1  12  -3  404.88   43.30
   1  12  -3  413.27   22.19
  -1 -12  -4  133.45   13.96
 -12   1  -4  170.63   35.63
 -12  -1  -4  155.63   35.07
  -1 -12   4  128.86   16.02
 -12   1   4  132.67   25.40
 -12  -1   4  158.59   26.44
   1 -12  -4  136.39   17.36
  -1 -12  -4  143.13   30.53
  -1  12   4  146.63   37.50
   1  12   4  150.98   21.07
  -1  12  -4  140.88   28.48
   1  12  -4  165.92   41.72
  -1 -12  -5    9.57    3.18
 -12   1  -5   25.67    8.79
 -12  -1  -5   24.60    8.58
 -12   1   5   22.27    8.43
  -1 -12   5   18.82    5.72
 -12  -1   5   23.22    6.61
   1 -12  -5   34.58   10.59
  -1 -12  -5   18.16    4.91
  -1  12   5   20.60   12.45
   1  12   5   17.16    8.13
  -1  12  -5   38.12   10.38
   1  12  -5   19.95    7.02
  -1 -12  -6   46.29   11.93
 -12   1  -6   65.01   16.27
 -12  -1  -6   25.12    7.74
 -12   1   6   21.32    9.71
 -12  -1   6   52.95   18.95
  -1 -12   6   29.98    7.62
  12   1  -6   29.56    5.33
   1 -12  -6   25.18    8.22
  -1 -12  -6   62.99   16.62
  -1  12   6   49.50   19.17
   1  12   6   40.59   11.01
  -1  12  -6   34.46   11.04
   1  12  -6   71.87   15.58
  -1 -12  -7   78.89   20.77
 -12   1  -7  103.68   26.85
 -12  -1  -7   86.76   23.35
 -12   1   7  110.28   31.18
 -12  -1   7   75.23   23.19
  -1 -12   7   57.68   16.41
  12   1  -7   77.86   11.69
   1 -12  -7   94.27   11.22
  -1 -12  -7   91.65   17.90
  -1  12   7   98.51   26.85
   1  12   7  139.11   24.56
  -1  12  -7   93.93   20.71
   1  12  -7  107.30   23.80
  -1 -12  -8  151.62   21.57
 -12   1  -8  200.56   34.30
 -12  -1  -8  176.02   43.80
 -12  -1   8  169.79   36.03
 -12   1   8  157.69   30.13
  -1 -12   8  105.51   31.67
  12   1  -8  160.74   24.09
  12  -1  -8  165.95   21.53
   1 -12  -8  138.91   33.71
  -1 -12  -8  148.99   42.14
  -1  12   8  187.82   25.69
   1  12   8  152.83   24.02
  -1  12  -8  165.75   41.23
   1  12  -8  158.60   29.85
  -1 -12  -9  166.54   30.92
 -12   1  -9  176.35   45.65
 -12  -1  -9  139.38   32.92
 -12  -1   9  143.94   44.58
 -12   1   9  186.02   33.94
  -1 -12   9  134.95   33.95
  12   1  -9  155.82   19.91
  12  -1  -9  165.57   21.47
   1 -12  -9  201.68   34.13
  -1 -12  -9  160.30   31.26
  -1  12   9  186.42   37.56
   1  12   9  157.72   32.98
  -1  12  -9  204.95   44.64
   1  12  -9  207.18   42.86
  -1 -12 -10   47.34   12.71
 -12   1 -10   79.92   17.72
 -12  -1 -10   78.35   16.17
 -12  -1  10   77.92   21.51
 -12   1  10   70.92   25.28
  -1 -12  10   57.45   17.03
  12   1 -10   68.76   11.43
  12  -1 -10   72.34   12.53
   1 -12 -10   69.75   20.85
  -1 -12 -10   64.16   17.01
   1  12  10   48.07   18.42
  -1  12 -10   84.01   22.65
   1  12 -10   68.24   24.11
  -1 -12 -11    3.14    4.92
 -12   1 -11   12.24    6.68
 -12  -1 -11    7.57    5.52
 -12  -1  11    9.31    7.58
 -12   1  11   14.68    8.56
  -1 -12  11    9.72    4.28
  12   1 -11   12.34    4.70
  12  -1 -11    3.54    4.41
   1 -12 -11   13.78    7.45
  -1 -12 -11    4.76    8.22
   1  12 -11    6.54    7.73
 -12   1 -12   72.13   14.11
 -12  -1 -12   45.48   14.39
 -12  -1  12   85.06   23.92
 -12   1  12   63.58   17.00
  -1 -12  12   45.91   10.79
   1  12  12   31.53   19.56
  12   1 -12   62.39   12.68
  12  -1 -12   83.90   15.51
   1 -12 -12   57.89   17.57
  -1 -12 -12   60.41   15.87
  -1  12 -12   61.62   16.19
   1  12 -12   72.68   20.31
 -12   1 -13   63.01   19.26
 -12  -1 -13   67.34   26.67
 -12  -1  13   91.71   21.20
 -12   1  13   73.04   15.75
  -1 -12  13   67.44   23.58
   1  12  13   46.14   24.29
  12   1 -13   73.97   20.21
  12  -1 -13   91.76   15.77
   1 -12 -13   58.67   27.50
  -1 -12 -13   90.08   30.24
  -1  12 -13  104.27   20.45
   1  12 -13   76.51   25.22
 -12   1 -14   12.08    5.77
 -12  -1 -14   15.11   11.44
 -12  -1  14   22.22   12.40
 -12   1  14    7.28    6.51
  -1 -12  14    9.30    8.67
   1  12  14    3.46    3.69
  12   1 -14   10.67    5.45
  12  -1 -14   13.55    7.68
   1 -12 -14   11.84    7.70
  -1 -12 -14   -1.23    6.78
  -1  12 -14   11.24    6.41
   1  12 -14    5.11    4.19
 -12   1 -15   77.97   29.71
 -12  -1 -15   70.65   25.54
 -12  -1  15  121.00   34.89
 -12   1  15   60.78   28.00
  -1 -12  15   55.55   33.41
   1  12  15   48.05   25.72
  12   1 -15   95.04   20.26
  12  -1 -15  102.39   23.78
   1 -12 -15   82.71   39.75
  -1 -12 -15   97.55   35.65
  -1  12 -15  101.39   24.52
   1  12 -15  100.54   22.88
  -2 -12   0   21.37   11.28
 -12   2   0   25.68    9.19
 -12  -2   0   30.58    7.56
   2 -12   0   30.88   10.59
  -2  12   0   36.17   13.61
   2  12   0   51.94   13.95
  -2 -12  -1  266.85   22.34
 -12   2  -1  268.39   23.92
  -2 -12   1  277.28   16.12
 -12  -2  -1  276.19   38.65
 -12   2   1  283.37   22.23
 -12  -2   1  296.22   17.38
   2 -12  -1  286.30   36.74
  -2 -12  -1  305.81   48.19
  -2  12   1  288.67   50.53
  -2  12  -1  280.36   46.78
   2  12   1  308.75   46.83
   2  12  -1  291.48   27.04
  -2 -12  -2  271.59   26.07
 -12   2  -2  326.57   17.36
 -12  -2  -2  307.85   19.78
  -2 -12   2  283.03   21.07
 -12   2   2  307.56   16.77
 -12  -2   2  323.44   18.03
   2 -12  -2  324.09   41.79
  -2 -12  -2  301.30   49.91
  -2  12   2  282.71   20.67
  -2  12  -2  291.93   24.14
   2  12   2  283.76   16.40
   2  12  -2  279.50   26.51
  -2 -12  -3   29.31    8.21
 -12   2  -3   21.03    5.62
 -12  -2  -3   51.90   12.99
  -2 -12   3   46.97   12.04
 -12   2   3   50.74   12.20
 -12  -2   3   36.66    8.63
   2 -12  -3   38.02   13.17
  -2 -12  -3   42.64   10.80
  -2  12   3   42.22   10.94
  -2  12  -3   55.02   16.80
   2  12   3   57.74   15.01
   2  12  -3   53.91   13.46
  -2 -12  -4   16.75    5.14
 -12   2  -4    8.72    5.31
 -12  -2  -4   14.00   11.57
  -2 -12   4   12.08    5.97
 -12   2   4    7.39    4.32
 -12  -2   4   11.00    9.37
   2 -12  -4    5.96    4.84
  -2 -12  -4    4.17    7.77
  -2  12   4    8.24    3.57
  -2  12  -4   17.52    7.27
   2  12   4   12.90    6.39
   2  12  -4    8.95    7.75
  -2 -12  -5  427.99   15.50
 -12   2  -5  373.58   34.05
 -12  -2  -5  406.87   19.21
 -12   2   5  376.79   15.18
  -2 -12   5  415.90   13.45
 -12  -2   5  428.59   18.26
   2 -12  -5  362.65   39.97
  -2 -12  -5  402.19   69.53
  -2  12   5  462.04   47.78
   2  12   5  411.59   28.94
  -2  12  -5  407.99   23.90
   2  12  -5  421.24   17.67
  -2 -12  -6  263.27   13.04
 -12   2  -6  236.06   32.64
 -12  -2  -6  233.07   37.04
 -12  -2   6  257.80   48.30
 -12   2   6  290.21   17.47
  -2 -12   6  275.70   15.91
  12   2  -6  220.80   23.54
   2 -12  -6  267.67   31.82
  -2 -12  -6  245.44   42.39
  -2  12   6  299.36   51.51
   2  12   6  273.49   47.05
  -2  12  -6  289.17   48.01
   2  12  -6  273.58   45.54
  -2 -12  -7   89.93   20.62
 -12   2  -7  131.92   26.97
 -12  -2  -7  145.18   26.80
 -12  -2   7  103.53   34.82
 -12   2   7  133.96   27.45
  -2 -12   7  100.86   28.85
  12   2  -7  115.55   23.33
   2 -12  -7  151.96   29.47
  -2 -12  -7  136.45   21.28
  -2  12   7  143.42   38.82
   2  12   7  156.03   30.61
  -2  12  -7  131.68   29.75
   2  12  -7  122.61   25.58
  -2 -12  -8   -0.63    3.52
 -12   2  -8   -0.63    4.91
 -12  -2  -8   10.47    6.70
 -12  -2   8   10.91    5.60
 -12   2   8   11.02    5.39
  -2 -12   8    4.98    5.70
  12   2  -8    3.09    2.91
   2 -12  -8    1.09    4.89
  -2 -12  -8    3.92    3.68
  -2  12   8    8.16    5.57
   2  12   8    7.32    5.27
  -2  12  -8    6.25    3.80
   2  12  -8    7.49    5.48
  -2 -12  -9    5.63    4.90
 -12   2  -9    6.60    4.08
 -12  -2  -9   17.05    5.42
 -12  -2   9    6.94    5.64
 -12   2   9   11.23    5.31
  -2 -12   9    4.48    4.70
  12   2  -9    6.95    4.08
  12  -2  -9   17.59    6.14
   2 -12  -9   17.77    9.24
  -2 -12  -9   14.79   11.25
   2  12   9   10.31   13.42
   2  12  -9    4.51    5.72
  -2 -12 -10  114.85   31.76
 -12   2 -10  155.48   29.96
 -12  -2 -10  173.29   41.16
 -12  -2  10  145.40   30.74
 -12   2  10  147.38   35.13
  -2 -12  10  135.87   31.68
  12   2 -10  157.41   23.46
  12  -2 -10  166.56   18.57
   2 -12 -10  137.84   44.37
  -2 -12 -10  147.62   31.83
   2  12  10  133.93   24.24
  -2  12 -10  178.73   38.07
   2  12 -10  155.63   21.92
  -2 -12 -11   52.86   21.95
 -12   2 -11   98.90   24.81
 -12  -2 -11  121.05   30.05
 -12  -2  11  100.27   24.82
 -12   2  11  125.94   30.53
  -2 -12  11   88.95   25.22
  12   2 -11  111.51   20.78
  12  -2 -11  109.92   22.34
   2 -12 -11  125.69   16.65
  -2 -12 -11   80.56   23.60
  -2  12 -11  115.75   28.55
   2  12 -11  120.64   25.63
  -2 -12 -12   13.58    7.38
 -12   2 -12   21.21    8.97
 -12  -2 -12   24.65    9.14
 -12  -2  12   34.40   10.84
 -12   2  12   17.62    6.09
  -2 -12  12   22.48   10.27
  12   2 -12   24.89    7.49
  12  -2 -12   14.77    5.62
   2 -12 -12   31.91   11.62
  -2 -12 -12   23.38   12.32
  -2  12 -12   10.89    7.86
   2  12 -12   27.26   10.62
  -2 -12 -13   49.16   15.61
 -12   2 -13   40.36   16.22
 -12  -2 -13   59.65   22.75
 -12  -2  13   64.62   28.42
  -2 -12  13   32.89   14.36
  12   2 -13   50.76   11.98
  12  -2 -13   57.63   11.64
   2 -12 -13   39.06   20.64
  -2 -12 -13   36.17   19.09
  -2  12 -13   45.74   13.11
   2  12 -13   54.12   23.08
 -12   2 -14   38.93   16.52
 -12  -2 -14   41.51   11.12
 -12  -2  14   52.16   14.47
 -12   2  14   26.91   13.52
  -2 -12  14   47.26   10.41
   2  12  14   21.71   10.97
  12   2 -14   32.91   10.37
  12  -2 -14   41.71    9.55
   2 -12 -14   32.61   11.88
  -2 -12 -14   37.95   12.79
  -2  12 -14   39.04   10.55
   2  12 -14   36.76   11.98
 -12   2 -15   32.88   12.06
 -12  -2 -15   41.36   14.55
 -12  -2  15   46.88   16.00
 -12   2  15   22.81   10.85
  -2 -12  15   28.71    7.55
   2  12  15   20.82   11.64
  12   2 -15   19.30    8.22
  12  -2 -15   40.43    9.88
   2 -12 -15   33.90    9.94
  -2 -12 -15   31.31   13.20
  -2  12 -15   22.97    7.86
   2  12 -15   28.30   15.49
  -3 -12   0  234.42   11.89
 -12   3   0  239.43   36.70
 -12  -3   0  248.25   18.26
   3 -12   0  287.04   30.47
  -3  12   0  279.91   48.09
   3  12   0  250.03   49.40
  -3 -12  -1   25.85   13.16
 -12   3  -1   36.67    9.38
  -3 -12   1   39.50    9.95
 -12  -3  -1   33.34   11.26
 -12   3   1   29.50    6.61
 -12  -3   1   25.42    7.28
   3 -12  -1   34.54    8.66
  -3 -12  -1   30.73    8.14
   3 -12   1   41.57   11.44
  -3  12   1   41.62   10.55
  -3  12  -1   33.05   11.18
   3  12   1   28.11    7.60
   3  12  -1   39.45   13.46
  -3 -12  -2  538.72   14.93
 -12   3  -2  570.31   17.77
 -12  -3  -2  569.70   22.69
  -3 -12   2  513.22   15.39
 -12   3   2  538.26   17.44
 -12  -3   2  586.39   62.73
   3 -12  -2  518.89   49.98
  -3 -12  -2  551.79   22.29
  -3  12   2  604.80   52.97
  -3  12  -2  529.12   30.41
   3  12   2  553.80   26.40
  -3 -12  -3  375.92   14.33
 -12   3  -3  346.04   18.17
 -12  -3  -3  373.21   17.75
  -3 -12   3  360.93   12.41
 -12   3   3  316.35   15.21
 -12  -3   3  307.98   46.14
   3 -12  -3  360.13   31.49
  -3 -12  -3  331.75   39.32
  -3  12   3  390.91   21.74
  -3  12  -3  378.16   17.11
   3  12   3  386.02   19.59
   3  12  -3  358.50   20.17
  -3 -12  -4   50.21   14.61
 -12   3  -4   61.40   12.99
 -12  -3  -4   65.48   19.92
  -3 -12   4   65.29   19.13
 -12   3   4   70.01   19.81
 -12  -3   4   47.86    9.98
   3 -12  -4   81.34   17.78
  -3 -12  -4   54.90   18.09
  -3  12   4   58.57   15.71
  -3  12  -4   85.98   20.94
   3  12   4   96.87   27.64
   3  12  -4   76.58   18.46
  -3 -12  -5  197.38   23.58
 -12   3  -5  227.96   43.94
 -12  -3  -5  230.07   33.55
  -3 -12   5  255.15   16.73
 -12   3   5  254.48   38.54
 -12  -3   5  196.05   31.50
   3 -12  -5  250.82   28.94
  -3 -12  -5  189.18   41.14
  -3  12   5  246.63   44.16
  -3  12  -5  223.13   50.35
   3  12   5  240.27   22.12
   3  12  -5  187.66   43.02
  -3 -12  -6   53.04   16.24
 -12   3  -6   44.01   11.45
 -12  -3  -6   39.13   10.04
 -12  -3   6   40.42   20.04
 -12   3   6   71.54   15.44
  -3 -12   6   46.46   13.38
   3 -12  -6   58.27   14.70
  -3 -12  -6   43.84   13.32
  -3  12   6   51.74   13.54
  -3  12  -6   59.55   12.20
   3  12   6   82.47   15.77
   3  12  -6   30.91   10.78
  -3 -12  -7   38.98   14.43
 -12   3  -7   44.52    9.46
 -12  -3  -7   51.40   18.73
 -12  -3   7   41.32   12.59
 -12   3   7   67.76   14.05
  -3 -12   7   57.12   16.19
  12   3  -7   36.90   11.94
   3 -12  -7   53.44   14.84
  -3 -12  -7   41.32   15.48
  -3  12   7   59.43   11.85
   3  12   7   62.65   12.60
  -3  12  -7   70.57   18.09
   3  12  -7   40.51   10.72
  -3 -12  -8    8.50    4.44
 -12   3  -8   15.97    7.39
 -12  -3  -8    7.26    5.06
 -12  -3   8   13.87    8.35
 -12   3   8    6.09    5.01
  -3 -12   8    8.50    6.42
  12   3  -8    6.46    5.51
   3 -12  -8   12.39    7.31
  -3 -12  -8    5.15    3.96
   3  12   8    2.39    4.15
  -3  12  -8    9.72    6.88
   3  12  -8   -1.26    5.25
  -3 -12  -9  321.18   13.82
 -12   3  -9  325.76   45.71
 -12  -3  -9  274.00   54.74
 -12  -3   9  289.62   52.30
 -12   3   9  311.67   16.14
  -3 -12   9  287.83   34.06
  12   3  -9  318.13   14.98
   3 -12  -9  283.72   46.31
  -3 -12  -9  244.69   61.00
   3  12   9  300.21   13.91
  -3  12  -9  333.83   25.88
   3  12  -9  331.43   60.04
  -3 -12 -10   81.53   30.81
 -12   3 -10  124.45   29.62
 -12  -3 -10  132.75   25.34
 -12  -3  10  103.47   33.69
 -12   3  10  158.38   30.04
  -3 -12  10   88.47   28.95
  12   3 -10   96.34   22.86
  12  -3 -10  130.39   17.72
   3 -12 -10   96.28   32.85
  -3 -12 -10   82.48   29.64
   3  12  10   70.30   24.36
  -3  12 -10  157.56   26.18
   3  12 -10  123.80   27.46
  -3 -12 -11   30.30    9.66
 -12   3 -11   43.77   16.84
 -12  -3 -11   77.02   15.75
 -12  -3  11   48.58   15.65
 -12   3  11   40.69   10.20
  -3 -12  11   44.35   11.12
  12   3 -11   43.23    9.98
  12  -3 -11   42.12    7.87
   3 -12 -11   48.04   13.77
  -3 -12 -11   37.58   15.11
  -3  12 -11   58.45   12.09
   3  12 -11   62.07   20.25
  -3 -12 -12   26.80   14.72
 -12  -3 -12   66.87   13.51
  -3 -12  12   40.74   10.99
  12   3 -12   33.75   11.07
  12  -3 -12   40.74    6.66
   3 -12 -12   48.43   15.37
  -3 -12 -12   52.93   17.85
  -3  12 -12   45.24   16.40
   3  12 -12   63.25   20.25
  -3 -12 -13   28.15   10.40
 -12   3 -13   22.40    5.88
 -12  -3 -13   33.28   23.00
 -12  -3  13   26.54    7.96
 -12   3  13   32.04   10.62
  -3 -12  13   40.26   16.22
  12   3 -13   20.11    8.81
  12  -3 -13   24.64    5.60
   3 -12 -13   50.37   13.47
  -3 -12 -13   34.34   16.90
   3  12 -13   27.31    9.99
  -3 -12 -14  212.11   28.84
 -12   3 -14  169.78   54.50
 -12  -3 -14  201.82   39.65
 -12  -3  14  223.16   41.58
 -12   3  14  190.12   48.22
  -3 -12  14  135.54   55.08
  12   3 -14  200.08   20.27
  12  -3 -14  225.07   39.05
   3 -12 -14  144.82   46.52
  -3 -12 -14  125.90   52.86
  -3  12 -14  192.66   38.75
   3  12 -14  201.35   41.97
 -12   4   0   61.85   11.86
 -12  -4   0   41.61    9.07
   4 -12   0   52.58   19.31
  -4  12   0   72.30   17.57
   4  12   0   74.50   13.88
  -4 -12  -1  178.66   10.56
 -12   4  -1  158.67   23.88
 -12  -4  -1  199.53   37.70
  -4 -12   1  171.08   23.41
 -12   4   1  160.89   22.71
 -12  -4   1  179.63   25.76
   4 -12  -1  170.48   23.20
  -4 -12  -1  178.82   21.25
   4 -12   1  176.06   20.90
  -4  12   1  162.58   40.66
  -4  12  -1  184.80   31.52
   4  12   1  166.14   41.36
   4  12  -1  186.01   21.22
  -4 -12  -2   10.23    5.39
 -12   4  -2    8.01    6.15
 -12  -4  -2   19.91   11.51
  -4 -12   2    9.74    7.25
 -12   4   2    8.53    3.86
 -12  -4   2   14.10    6.56
   4 -12  -2    7.08    6.42
  -4 -12  -2   15.38    6.23
  -4  12   2   12.55    6.34
  -4  12  -2   13.49    7.30
   4  12   2   16.15    6.50
   4  12  -2    6.82    8.65
 -12   4  -3  140.87   22.97
 -12  -4  -3  110.94   32.29
 -12   4   3  157.90   31.30
 -12  -4   3  115.46   27.50
   4 -12  -3  163.95   35.18
  -4 -12  -3  127.11   24.13
  -4  12   3  146.60   30.75
  -4  12  -3  159.63   35.25
   4  12   3  148.84   22.92
   4  12  -3  151.81   31.51
 -12   4  -4  155.04   24.94
 -12  -4  -4  101.16   28.97
 -12   4   4  106.68   28.35
 -12  -4   4  128.70   36.44
   4 -12  -4  151.76   22.67
  -4 -12  -4  126.00   31.54
  -4  12   4  169.33   35.16
  -4  12  -4  117.89   25.61
   4  12   4  133.13   29.35
   4  12  -4  140.14   33.78
  -4 -12  -5  130.11   25.95
 -12   4  -5  131.36   27.11
 -12  -4  -5  150.36   15.25
 -12   4   5  123.17   25.59
  -4 -12   5  120.57   13.90
 -12  -4   5  113.45   25.89
   4 -12  -5  106.30   28.51
  -4 -12  -5  120.85   24.36
  -4  12   5  155.74   23.99
  -4  12  -5  131.42   24.48
   4  12   5  154.09   31.84
   4  12  -5  140.57   24.21
 -12   4  -6   10.53    5.88
 -12  -4  -6    8.95    7.52
 -12   4   6   15.39    5.46
 -12  -4   6   17.36    8.23
   4 -12  -6    8.27    7.41
  -4 -12  -6    7.59    6.22
  -4  12   6   12.35    7.50
  -4  12  -6   11.88    5.85
   4  12   6   15.13    6.98
   4  12  -6   23.16    8.31
  -4 -12  -7   38.35   11.80
 -12   4  -7   23.45    6.30
 -12  -4  -7   42.24   14.98
 -12  -4   7   37.35   10.60
 -12   4   7   43.10   10.70
  -4 -12   7   30.35    9.81
   4 -12  -7   30.77   12.27
  -4 -12  -7   36.33   13.81
  -4  12  -7   42.01   10.71
   4  12   7   40.38   11.28
   4  12  -7   33.60    8.61
  -4 -12  -8  111.03   25.52
 -12   4  -8  122.52   21.27
 -12  -4  -8  153.07   26.86
 -12  -4   8  125.29   31.91
 -12   4   8   92.30   28.44
  -4 -12   8  103.48   27.90
  12   4  -8  105.33   16.31
   4 -12  -8  118.50   30.24
  -4 -12  -8  105.01   24.77
   4  12   8  126.50   25.89
   4  12  -8  155.63   30.69
  -4 -12  -9   27.94    8.16
 -12   4  -9   26.45    7.65
 -12  -4  -9   49.97   13.97
 -12   4   9   27.68   10.18
  -4 -12   9   34.81   12.76
  12   4  -9   29.96    9.94
   4 -12  -9   40.00   20.03
  -4 -12  -9   36.21   14.20
   4  12   9   31.45    7.91
  -4  12  -9   60.82   14.18
   4  12  -9   49.04   14.57
  -4 -12 -10   25.11    6.45
 -12   4 -10   25.44    8.38
 -12  -4 -10   30.33    9.95
 -12  -4  10   30.48    9.42
 -12   4  10   19.02    7.31
  -4 -12  10   24.32    9.01
  12   4 -10   24.86   10.22
  12  -4 -10   14.89    6.98
   4 -12 -10   38.82   11.91
  -4 -12 -10   31.64   11.65
  -4  12 -10   36.67   11.43
   4  12 -10   23.19    8.78
  -4 -12 -11  106.97   35.31
 -12   4 -11  133.70   33.45
 -12  -4 -11  121.57   25.85
 -12  -4  11  110.37   26.98
 -12   4  11  101.45   27.88
  -4 -12  11  100.03   35.21
  12   4 -11   93.18   28.68
  12  -4 -11   72.48   31.04
   4 -12 -11   82.81   36.29
  -4 -12 -11   99.15   38.18
  -4  12 -11  120.69   27.24
   4  12 -11  119.11   45.13
  -4 -12 -12   77.30   30.90
 -12   4 -12   81.95   22.66
 -12  -4 -12   59.34   14.55
 -12  -4  12  108.26   40.96
 -12   4  12   88.57   21.82
  -4 -12  12   60.83   23.67
  12   4 -12   61.04   20.63
  12  -4 -12   54.76   22.23
   4 -12 -12   84.49   26.28
  -4 -12 -12   88.64   31.24
  -4  12 -12   87.40   26.40
   4  12 -12   90.49   17.28
  -4 -12 -13   53.43   19.96
 -12   4 -13   58.59   14.39
 -12  -4 -13   62.97   15.41
 -12  -4  13   64.35   19.79
 -12   4  13   81.30   20.81
  -4 -12  13   44.88   21.60
  12   4 -13   32.85   11.82
  12  -4 -13   28.34   17.99
   4 -12 -13   74.40   23.75
  -4 -12 -13   38.39   23.98
  -4  12 -13   73.26   23.82
   4  12 -13   68.89   21.45
  -4 -12 -14    8.73    7.29
 -12   4 -14   22.43    6.83
 -12  -4  14   24.58   10.66
 -12   4  14   21.77    6.50
  -4 -12  14   13.02    4.93
  12   4 -14   25.41   10.28
  12  -4 -14   15.01   10.83
   4 -12 -14   27.50   11.63
  -4 -12 -14   26.27   11.20
  -4  12 -14   16.94    6.70
   4  12 -14   24.06   16.05
 -12   5   0   81.49   20.77
  -5 -12   0  109.71   20.60
 -12  -5   0  113.34   12.82
   5 -12   0  104.60   10.40
  -5 -12   0   86.59   23.59
  -5  12   0  118.52   30.85
   5  12   0  125.88   32.55
 -12   5  -1   80.61   25.19
  -5 -12  -1   65.60   24.69
 -12   5   1   76.60   21.18
 -12  -5  -1  102.17   33.23
  -5 -12   1   88.32    9.78
 -12  -5   1   99.16   21.82
   5 -12  -1   86.45   20.27
   5 -12   1  115.46   25.80
  -5 -12  -1   93.22   23.53
  -5  12   1  118.23   22.14
  -5  12  -1  120.00   29.01
   5  12   1  108.49   19.51
   5  12  -1   95.23   30.11
 -12   5  -2   46.10   10.62
  -5 -12  -2   74.45   10.05
 -12  -5  -2   65.72   12.52
 -12   5   2   55.78   11.09
  -5 -12   2   50.47   22.77
 -12  -5   2   61.89   13.90
   5 -12  -2   73.67    9.66
  -5 -12  -2   49.74   12.48
   5 -12   2   58.61   16.45
  -5  12   2   75.26   18.22
  -5  12  -2   79.08   18.18
   5  12   2   54.19   14.02
   5  12  -2   40.09   12.63
 -12   5  -3    8.40    3.16
  -5 -12  -3    5.98    4.60
 -12  -5  -3   21.48   11.56
 -12   5   3   10.38    2.99
  -5 -12   3   13.31    6.82
 -12  -5   3    5.89    8.38
   5 -12  -3    7.45    6.50
  -5 -12  -3    5.24    6.66
  -5  12   3   12.85    6.19
  -5  12  -3   20.29    5.75
   5  12   3    9.65    9.26
   5  12  -3    0.72    6.07
 -12   5  -4  107.70   20.66
  -5 -12  -4   92.59   21.32
 -12  -5  -4   87.53   28.66
 -12   5   4   96.30   22.88
  -5 -12   4   82.28   32.27
 -12  -5   4  117.37   22.94
   5 -12  -4  134.47   37.42
  -5 -12  -4  113.20   25.62
  -5  12   4  139.83   24.10
  -5  12  -4   87.39   20.58
   5  12   4  143.30   25.87
   5  12  -4  119.50   34.58
 -12   5  -5   10.83    6.29
  -5 -12  -5   12.19    5.92
 -12  -5  -5    0.73    5.64
 -12   5   5    7.38    6.96
  -5 -12   5   13.17    6.47
 -12  -5   5   32.45   11.48
   5 -12  -5    9.20    7.49
  -5 -12  -5    7.15    5.28
  -5  12  -5    7.97    8.08
   5  12   5   21.87    7.97
   5  12  -5    8.29    9.30
 -12   5  -6  244.08   17.44
  -5 -12  -6  270.94   30.71
 -12  -5  -6  238.71   46.93
 -12   5   6  250.46   39.94
 -12  -5   6  252.48   36.65
  -5 -12   6  247.66   31.76
   5 -12  -6  280.39   32.15
  -5 -12  -6  240.90   41.82
  -5  12  -6  296.52   42.42
   5  12   6  278.85   31.35
   5  12  -6  251.20   27.06
 -12   5  -7   46.27   10.28
  -5 -12  -7   14.70    6.79
 -12  -5  -7   41.47   11.04
 -12  -5   7   51.91   13.89
 -12   5   7   39.42   10.44
  -5 -12   7   15.67    6.06
   5 -12  -7   30.43    8.29
  -5 -12  -7   32.65   11.42
  -5  12  -7   36.20   14.24
   5  12   7   32.93    7.81
   5  12  -7   27.11    8.29
 -12   5  -8  272.08   16.95
  -5 -12  -8  279.06   13.63
 -12  -5  -8  288.67   64.11
 -12  -5   8  194.79   37.72
  -5 -12   8  283.24   24.17
 -12   5   8  301.45   14.76
   5 -12  -8  294.19   38.44
  -5 -12  -8  192.00   58.05
  -5  12  -8  296.08   42.26
   5  12   8  296.49   37.16
   5  12  -8  235.41   44.78
 -12   5  -9   28.89    9.23
  -5 -12  -9   24.62    8.50
 -12  -5  -9   33.68   12.54
 -12  -5   9   36.01   13.38
  -5 -12   9   13.52    4.19
 -12   5   9   18.51    6.93
  12   5  -9    6.89    4.88
   5 -12  -9   23.43   11.42
  -5 -12  -9   11.40   11.67
  -5  12  -9   24.84    8.81
   5  12   9    6.02    4.21
   5  12  -9   23.94   10.75
 -12   5 -10   39.29    9.89
  -5 -12 -10   57.98   17.03
 -12  -5 -10   25.51   13.59
 -12  -5  10   48.56   13.35
  -5 -12  10   30.44   12.83
 -12   5  10   42.01   12.99
  12   5 -10   30.19    9.36
   5 -12 -10   30.70   12.94
  -5 -12 -10   56.02   19.46
  -5  12 -10   52.44   13.15
   5  12 -10   53.58   20.73
 -12   5 -11   98.29   31.64
  -5 -12 -11  143.69   38.15
 -12  -5 -11  138.41   35.48
 -12  -5  11  112.11   42.77
  -5 -12  11   85.18   34.91
 -12   5  11  112.98   37.27
  12   5 -11  120.43   34.14
   5 -12 -11  128.22   38.52
  -5 -12 -11  111.84   38.37
  -5  12 -11  141.07   35.67
   5  12 -11  139.36   35.80
 -12   5 -12   69.77   18.48
  -5 -12 -12   70.05   25.53
 -12  -5 -12   78.96   20.16
 -12  -5  12   62.81   24.68
  -5 -12  12   63.17   24.71
 -12   5  12   93.56   39.51
  12   5 -12   80.38   26.67
  12  -5 -12   53.28   12.49
   5 -12 -12   93.94   24.72
  -5 -12 -12   41.29   19.28
  -5  12 -12   66.77   18.43
   5  12 -12   68.37   34.96
 -12   5 -13   27.08    8.94
  -5 -12 -13   20.81   10.36
 -12  -5 -13    4.51    7.01
 -12  -5  13   16.23    6.54
  -5 -12  13   23.65   10.28
 -12   5  13    9.92    6.12
  12   5 -13   10.63    5.20
  12  -5 -13    9.69    5.27
   5 -12 -13   25.20   11.34
  -5 -12 -13   12.75    7.08
   5  12 -13   27.85   10.23
 -12   5 -14   25.06    8.49
  -5 -12 -14   12.90    5.72
 -12  -5 -14   50.58   14.97
 -12  -5  14   23.33   11.33
  -5 -12  14   22.39   16.60
 -12   5  14   38.79   11.84
  12   5 -14   28.32   10.76
  12  -5 -14   19.41   10.86
   5 -12 -14   35.33   14.80
  -5 -12 -14   44.49   11.56
  -5  12 -14   28.00   14.83
   5  12 -14   25.04    9.56
 -12   6   0   28.81   11.44
  -6 -12   0   24.23    7.52
 -12  -6   0   58.60   11.80
   6 -12   0   36.25   11.71
  -6 -12   0   24.96   12.73
  -6  12   0   45.79   13.37
   6  12   0   34.81    9.72
 -12   6  -1    4.52    5.86
  -6 -12  -1   14.11    6.86
 -12   6   1    5.38    2.54
 -12  -6  -1   29.48   14.86
  -6 -12   1   23.17    8.61
 -12  -6   1   12.86   13.50
   6 -12  -1   19.49    7.25
   6 -12   1   27.55    8.58
  -6 -12  -1   12.88    8.74
  -6  12   1   23.67   10.10
  -6  12  -1   23.66    8.48
   6  12   1   15.76   10.70
   6  12  -1    7.44    6.25
 -12   6  -2  387.64   15.83
  -6 -12  -2  461.59   19.70
 -12  -6  -2  444.31   57.54
 -12   6   2  422.02   15.92
  -6 -12   2  468.53   19.53
 -12  -6   2  425.65   25.14
   6 -12  -2  421.33   40.14
  -6 -12  -2  427.07   23.21
   6 -12   2  461.86   54.80
  -6  12   2  397.88   22.78
  -6  12  -2  433.11   41.79
   6  12   2  430.91   22.52
   6  12  -2  436.04   24.79
 -12   6  -3   42.53   10.03
  -6 -12  -3   20.96    6.80
 -12  -6  -3   34.15   10.98
 -12   6   3   23.13    9.62
  -6 -12   3   12.09    8.12
 -12  -6   3   37.16   10.52
   6 -12  -3   20.02    9.83
  -6 -12  -3   23.20   10.67
  -6  12  -3   35.91   10.89
   6  12   3   19.25    6.35
   6  12  -3   35.46   10.39
 -12   6  -4   48.79   10.25
  -6 -12  -4   41.25   14.18
 -12  -6  -4   30.71   11.62
 -12   6   4   33.57    9.38
  -6 -12   4   29.18    7.93
 -12  -6   4   45.59    9.84
   6 -12  -4   36.72   10.53
  -6 -12  -4   42.87   15.87
  -6  12  -4   39.85   10.57
   6  12   4   21.33    7.92
   6  12  -4   38.41   13.77
 -12   6  -5  155.91   28.67
  -6 -12  -5  151.84   36.49
 -12  -6  -5  131.21   13.44
 -12   6   5  125.99   23.79
  -6 -12   5  124.96   34.36
 -12  -6   5  127.46   13.76
   6 -12  -5  167.05   21.21
  -6 -12  -5  137.37   33.15
  -6  12  -5  189.37   25.21
   6  12   5  174.97   34.59
   6  12  -5  176.50   36.35
 -12   6  -6   69.06   15.67
  -6 -12  -6   73.66   15.77
 -12  -6  -6   59.07   16.45
 -12   6   6   49.57   13.46
  -6 -12   6   54.95   12.94
 -12  -6   6   74.42   27.24
   6 -12  -6   49.44   13.87
  -6  12  -6   78.01   16.51
   6  12   6   66.53   16.87
   6  12  -6   63.18   21.27
  -6 -12  -7  261.75   37.13
 -12  -6  -7  259.23   15.73
 -12  -6   7  246.59   35.31
  -6 -12   7  238.81   18.67
   6 -12  -7  222.48   27.98
  -6 -12  -7  197.09   38.04
  -6  12  -7  271.05   52.49
   6  12   7  237.21   37.93
   6  12  -7  251.05   56.27
 -12   6  -8    7.25    6.83
  -6 -12  -8   24.43   13.84
 -12  -6  -8   10.62    9.76
 -12  -6   8   15.48    8.76
  -6 -12   8   14.68   11.10
 -12   6   8    3.78    3.91
   6 -12  -8   10.95    5.88
  -6 -12  -8   12.03    9.64
  -6  12  -8   16.26    7.87
   6  12   8   13.21    5.28
   6  12  -8   16.06    8.42
 -12   6  -9   84.98   25.07
  -6 -12  -9  110.22   33.52
 -12  -6  -9  133.24   36.75
 -12  -6   9  119.87   29.40
  -6 -12   9   90.71   28.97
 -12   6   9   79.05   19.90
   6 -12  -9  121.84   14.46
  -6 -12  -9   75.97   23.27
  -6  12  -9  100.53   29.36
   6  12  -9  100.19   28.02
 -12   6 -10   50.39   19.34
  -6 -12 -10   70.48   20.23
 -12  -6 -10   59.74   16.97
 -12  -6  10   65.12   22.74
  -6 -12  10   74.86   27.65
 -12   6  10   58.14   18.47
   6 -12 -10   46.98   20.36
  -6 -12 -10   74.38   24.14
   6  12 -10   93.00   32.58
 -12   6 -11   33.91   10.28
  -6 -12 -11   22.41    8.23
 -12  -6 -11   46.42   11.78
 -12  -6  11   12.46    6.60
  -6 -12  11   35.74   10.94
 -12   6  11   34.50    8.60
  12   6 -11   19.19   12.49
   6 -12 -11   19.61    6.28
  -6 -12 -11   10.96    5.36
  -6  12 -11   42.35   17.15
   6  12 -11    7.49   10.86
 -12   6 -12   20.45   11.73
  -6 -12 -12   18.67    6.59
 -12  -6 -12   27.06   15.30
 -12  -6  12   32.10   12.38
  -6 -12  12   22.55    9.96
 -12   6  12   16.90    5.83
  12   6 -12   23.93    9.81
   6 -12 -12   12.51    8.04
  -6 -12 -12   14.97   10.85
  -6  12 -12   28.59    9.55
   6  12 -12   15.22    7.09
 -12   6 -13    8.72    4.01
  -6 -12 -13    4.30    5.66
 -12  -6 -13   11.62    9.89
 -12  -6  13    9.52   14.67
  -6 -12  13   -0.05    4.30
 -12   6  13    4.75    4.25
  12   6 -13    2.85    5.55
   6 -12 -13   12.00    7.05
  -6 -12 -13   11.64   11.59
  -6  12 -13    7.79    3.62
   6  12 -13    2.21    4.98
  -7 -12   0   42.82   16.73
 -12  -7   0   35.62    9.08
   7 -12   0   62.42   14.88
  -7 -12   0   47.12   11.87
  -7  12   0   58.15   14.44
   7  12   0   48.91   13.97
  -7 -12  -1  135.94   30.20
 -12  -7  -1   97.02   27.65
  -7 -12   1   94.23   20.90
 -12  -7   1  139.67   13.66
   7 -12  -1   88.80   18.74
   7 -12   1  123.21   16.88
  -7 -12  -1   90.85   21.95
  -7  12  -1  109.70   21.78
   7  12   1  105.52   30.20
   7  12  -1  149.65   32.44
  -7 -12  -2   62.62   24.54
 -12  -7  -2  130.63   16.43
  -7 -12   2  127.54   12.68
 -12  -7   2  101.69   20.63
   7 -12  -2   93.25   21.86
  -7 -12  -2   72.47   26.09
   7 -12   2   96.85   11.70
  -7  12  -2  107.56   23.33
   7  12   2  109.31   25.15
   7  12  -2   84.65   22.44
  -7 -12  -3  108.87   34.77
 -12  -7  -3   98.94   34.94
  -7 -12   3  120.70   25.05
 -12  -7   3  148.24   21.52
   7 -12  -3  137.60   14.27
  -7 -12  -3   85.87   26.95
   7 -12   3  129.21   24.21
  -7  12  -3  126.04   29.26
   7  12   3  104.67   31.67
   7  12  -3  151.01   38.62
  -7 -12  -4   76.93   12.28
 -12  -7  -4   74.88   32.86
  -7 -12   4  101.23    9.79
 -12  -7   4   76.44   24.06
   7 -12  -4   94.68   29.63
  -7 -12  -4   82.49   26.45
  -7  12  -4  102.56   23.03
   7  12   4   88.30   29.82
   7  12  -4   85.45   26.91
  -7 -12  -5   29.10    8.54
 -12  -7  -5   21.98    7.21
  -7 -12   5   29.10    9.71
 -12  -7   5   27.08   14.40
   7 -12  -5   22.75    7.46
  -7 -12  -5   21.56   14.06
  -7  12  -5   38.86    9.09
   7  12   5   33.94    8.62
   7  12  -5   30.29    9.15
  -7 -12  -6  137.93   35.72
 -12  -7  -6  121.34   38.08
  -7 -12   6  116.68   34.81
 -12  -7   6  124.27   42.29
   7 -12  -6  101.29   27.56
  -7 -12  -6  106.06   24.05
  -7  12  -6  164.92   31.09
   7  12   6  159.85   23.82
   7  12  -6  158.00   30.88
  12   7   6  104.84   22.40
  -7 -12  -7    2.05    4.66
 -12  -7  -7    5.51    8.38
 -12  -7   7    9.52    7.72
  -7 -12   7    4.84    6.18
   7 -12  -7    5.31    3.10
  -7 -12  -7    7.35    5.19
  -7  12  -7   11.78    8.07
   7  12   7    1.40    2.79
   7  12  -7    9.61    6.11
  -7 -12  -8   78.43   19.57
 -12  -7  -8   55.78   16.05
 -12  -7   8   85.59   22.93
  -7 -12   8   61.08   15.37
   7 -12  -8   56.30   18.52
  -7 -12  -8   57.58   19.87
  -7  12  -8   71.49   20.01
   7  12   8   56.04   15.48
   7  12  -8   75.98   33.00
  -7 -12  -9   10.56    8.98
 -12  -7  -9   47.22   10.45
 -12  -7   9   35.75    9.71
  -7 -12   9   19.01    7.72
   7 -12  -9   20.98    7.46
  -7 -12  -9   16.39    7.48
  -7  12  -9   34.63   13.10
   7  12  -9   24.81   10.17
  -7 -12 -10   95.27   28.81
 -12  -7 -10   97.38   33.77
 -12  -7  10   79.93   31.98
  -7 -12  10  126.83   26.54
   7 -12 -10  108.85   23.56
  -7 -12 -10   65.56   33.25
  -7  12 -10  123.85   26.13
   7  12 -10  112.17   28.90
  -7 -12 -11   33.60   15.91
 -12  -7 -11   54.31   16.22
 -12  -7  11   23.80   19.56
  -7 -12  11   40.74   11.43
  -7 -12 -11   34.99   12.58
  -7  12 -11   37.98   11.43
   7  12 -11   30.88   13.94
  -7 -12 -12   10.18    4.38
 -12  -7 -12    8.04    9.90
 -12  -7  12   15.97    8.51
  -7 -12  12    8.85    7.04
   7 -12 -12    9.82    9.43
  -7 -12 -12   21.99   10.61
  -7  12 -12   12.69    7.83
   7  12 -12    2.26    5.92
  -8 -12   0   78.97   27.68
 -12  -8   0  121.93   13.44
   8 -12   0   93.01   21.39
  -8 -12   0   76.99   29.95
   8  12   0  126.22   35.06
  -8 -12  -1   21.19    7.46
 -12  -8  -1   21.43    8.43
  -8 -12   1   28.33    8.51
 -12  -8   1   26.74   10.68
   8 -12  -1   33.66    9.92
   8 -12   1   18.64    7.48
  -8 -12  -1   24.00    6.97
 -12  -8   1   26.67   10.33
   8  12   1   18.55   10.10
   8  12  -1   18.19    8.99
  -8 -12  -2  102.02   38.43
 -12  -8  -2  126.35   41.48
  -8 -12   2  112.86   34.50
 -12  -8   2  113.04   27.32
   8 -12  -2  129.65   16.72
  -8 -12  -2  101.66   25.77
   8 -12   2  125.14   24.61
   8  12   2  120.69   36.40
   8  12  -2  142.59   37.09
  -8 -12  -3  157.27   35.97
 -12  -8  -3  202.22   23.83
  -8 -12   3  198.11   15.40
 -12  -8   3  173.99   53.76
   8 -12  -3  180.90   32.11
  -8 -12  -3  176.41   17.72
   8 -12   3  175.49   20.54
  -8  12  -3  214.18   43.88
   8  12   3  220.21   15.03
   8  12  -3  196.17   21.65
  12   8   3  165.90   24.76
  -8 -12  -4  103.86   25.57
 -12  -8  -4  101.24   18.12
  -8 -12   4   76.16   30.97
 -12  -8   4   77.49   23.52
   8 -12  -4   72.23   26.89
  -8 -12  -4   67.68   30.14
   8 -12   4   97.16   13.76
  -8  12  -4  130.01   18.68
   8  12   4   90.51   25.88
   8  12  -4  105.88   21.57
  12   8   4   98.75   29.09
  -8 -12  -5   89.28   29.88
 -12  -8  -5   88.02   37.24
  -8 -12   5  101.10   23.44
   8 -12  -5  107.19   18.67
  -8 -12  -5   78.36   24.72
  -8  12  -5  134.41   24.27
   8  12   5   79.15   28.53
   8  12  -5  105.81   23.13
  12   8   5  122.41   17.94
  -8 -12  -6   81.89   22.71
  -8 -12   6   53.55   19.00
   8 -12  -6   65.21   26.40
  -8 -12  -6   49.73   18.08
  -8  12  -6   67.93   20.04
   8  12   6   64.87   24.66
   8  12  -6   76.49   22.98
  12   8   6   62.17   18.06
  -8 -12  -7   71.47   21.75
 -12  -8  -7   74.20   12.98
 -12  -8   7   59.71   22.48
  -8 -12   7   44.32   21.47
   8 -12  -7   53.77   14.81
  -8 -12  -7   54.68   14.21
  -8  12  -7   82.98   20.68
   8  12   7   59.90   15.08
   8  12  -7   50.39   18.69
  -8 -12  -8   87.24   22.60
 -12  -8  -8   61.84   17.57
  -8 -12   8   71.43   29.15
 -12  -8   8   63.82   24.39
   8 -12  -8   73.98   26.47
  -8  12  -8  107.23   27.77
   8  12  -8   87.97   33.06
  -8 -12  -9   14.96    6.15
 -12  -8  -9   36.07   10.78
 -12  -8   9   27.08   14.11
  -8 -12   9   12.22    7.64
   8 -12  -9   21.02    7.92
  -8 -12  -9   31.44    8.89
  -8  12  -9   30.30    7.10
   8  12  -9   39.93   14.90
  -8 -12 -10   44.65   13.01
 -12  -8 -10   37.07   11.09
 -12  -8  10   33.72   11.60
  -8 -12  10   36.50   11.43
   8 -12 -10   32.96   16.18
  -8 -12 -10   26.79   11.39
  -8  12 -10   33.90   10.24
   8  12 -10   20.15   14.95
  -8 -12 -11   28.86   13.43
 -12  -8 -11   16.09    7.61
 -12  -8  11   11.76    7.61
  -8 -12  11   21.98   11.06
   8 -12 -11   17.66    8.60
  -8 -12 -11   15.92    6.59
  -8  12 -11   18.33    8.12
   8  12 -11   11.88    8.78
  -8 -12 -12   21.62   23.22
 -12  -8 -12   50.32   14.95
 -12  -8  12   23.93   17.89
  -8 -12  12   35.08    9.98
   8 -12 -12   56.85   22.00
  -8 -12 -12   20.80   12.31
  -8  12 -12   62.32   21.96
  -9 -12   0  288.21   17.51
 -12  -9   0  249.69   24.23
   9 -12   0  231.61   34.80
  -9 -12   0  210.34   50.68
   9  12   0  320.77   21.69
  12   9   0  267.82   42.91
  -9 -12  -1   14.57    9.55
 -12  -9  -1   29.86   12.82
  -9 -12   1   12.59    8.61
 -12  -9   1   28.56   11.01
   9 -12  -1   31.16   10.04
   9 -12   1   19.45    5.08
  -9 -12  -1    8.19    7.66
 -12  -9   1   23.74    6.88
  -9 -12   1   14.92    9.38
   9  12   1   13.79   10.45
   9  12  -1   21.33    7.62
  12   9   1   25.97   13.03
  -9 -12  -2    5.14    6.00
 -12  -9  -2    5.49    5.86
  -9 -12   2    4.99    5.63
 -12  -9   2    8.60    9.38
   9 -12  -2    7.91    4.23
   9 -12   2    6.56    3.51
  -9 -12  -2   14.62    9.04
   9  12   2   13.20   10.00
   9  12  -2    3.38    6.59
  12   9   2    2.76    6.86
  -9 -12  -3   80.42   10.42
 -12  -9  -3   64.82   28.81
  -9 -12   3   77.84   26.79
 -12  -9   3   77.33   22.82
   9 -12  -3   88.10   22.74
  -9 -12  -3   54.90   23.98
   9 -12   3   87.40   13.82
   9  12   3   86.36   20.95
   9  12  -3   86.73   30.51
  12   9   3   74.61   20.61
  -9 -12  -4   23.07    8.15
 -12  -9  -4   33.07   10.07
  -9 -12   4   23.73    7.60
 -12  -9   4   23.41   11.55
   9 -12  -4   20.01    6.77
  -9 -12  -4   22.79   10.03
   9 -12   4   22.73    9.01
   9  12   4   21.15    8.21
   9  12  -4   31.70   11.95
  12   9   4   10.82    6.74
  -9 -12  -5   99.96   26.23
 -12  -9  -5  178.34   17.29
  -9 -12   5   90.86   34.39
 -12  -9   5  134.91   36.85
   9 -12  -5  133.70   22.23
  -9 -12  -5   95.31   34.32
   9 -12   5  117.66   18.87
   9  12   5  145.76   34.86
   9  12  -5  122.37   44.07
  12   9   5  121.14   22.80
  -9 -12  -6   36.20   12.82
 -12  -9  -6   33.06   12.27
  -9 -12   6   21.69    8.62
 -12  -9   6   28.90   11.67
   9 -12  -6   26.54   11.75
  -9 -12  -6   15.96    8.00
   9  12   6    7.55    8.57
  12   9   6    2.59    5.29
   9  12  -6   21.05   10.66
  -9 -12  -7  245.39   38.98
 -12  -9  -7  259.06   28.44
  -9 -12   7  242.80   22.22
 -12  -9   7  205.38   56.62
   9 -12  -7  190.60   43.01
  -9 -12  -7  189.75   17.89
   9  12  -7  195.14   63.96
  -9 -12  -8    6.89    7.94
 -12  -9  -8   20.18   13.10
  -9 -12   8   11.75    6.79
 -12  -9   8   19.05    9.08
   9 -12  -8   20.08    6.93
  -9 -12  -8    9.29    4.10
   9  12  -8   10.93    7.32
  -9 -12  -9   77.28   29.08
 -12  -9  -9  111.08   21.79
 -12  -9   9   75.75   27.63
  -9 -12   9   68.61   13.59
   9 -12  -9   84.55   25.99
  -9 -12  -9   63.84   27.22
   9  12  -9   94.06   37.12
  -9 -12 -10   30.41   12.46
 -12  -9 -10   23.67    9.28
 -12  -9  10   33.11   11.28
  -9 -12  10   21.56   10.10
   9 -12 -10   25.35   12.09
  -9 -12 -10   15.32    8.23
   9  12 -10   43.26   14.06
 -10 -12   0   11.40    5.88
 -12 -10   0   12.06   11.64
  10 -12   0    4.26    2.76
 -12 -10   0    6.53    2.45
 -10 -12   0    8.24    5.19
  10  12   0    4.44    4.78
  12  10   0    2.82    5.77
 -10 -12  -1   45.45   22.65
 -12 -10  -1   50.86   18.33
 -10 -12   1   64.29   24.12
 -12 -10   1   38.58    9.01
  10 -12  -1   61.59   19.63
 -10 -12  -1   41.52   19.63
 -10 -12   1   43.35   16.88
  10  12   1   52.26   18.70
  10  12  -1   57.55   22.27
  12  10   1   64.46   17.77
  12  10  -1   60.99   18.11
 -10 -12  -2   36.31   12.98
 -12 -10  -2   23.00    8.49
 -10 -12   2   34.33    9.58
 -12 -10   2   42.94   11.38
  10 -12  -2   28.70   12.84
 -10 -12  -2   16.80    9.10
  10  12   2   36.83   11.19
  10  12  -2   30.47   17.48
  12  10   2   31.55   10.13
  12  10  -2   33.90   14.96
 -10 -12  -3   17.19    8.11
 -12 -10  -3   37.09   14.42
 -10 -12   3   12.86    9.22
 -12 -10   3   15.02    7.02
  10 -12  -3   22.63    6.06
 -10 -12  -3   15.61    5.32
  10  12   3   12.84    7.24
  10  12  -3   20.95   10.24
  12  10   3   24.51    9.48
  12  10  -3   26.42   11.00
 -10 -12  -4   12.17    8.79
 -12 -10  -4   24.01   11.80
 -10 -12   4   20.07    8.88
 -12 -10   4   15.11    8.24
  10 -12  -4   19.87    7.74
  10  12   4   12.87    5.59
  10  12  -4   29.47   12.27
  12  10   4   23.79    9.69
  12  10  -4   23.67   10.16
 -10 -12  -5   10.94    6.56
 -12 -10  -5    9.98    8.71
 -10 -12   5   18.79    6.08
 -12 -10   5    9.19    6.60
  10 -12  -5    6.59    5.85
 -10 -12  -5    4.64    4.08
  10  12   5    5.28    4.78
  12  10   5    7.03    3.92
  10  12  -5   10.61    8.09
  12  10  -5   16.27    7.44
 -10 -12  -6   30.12   16.45
 -12 -10  -6   30.85    8.17
 -10 -12   6   48.91   16.72
 -12 -10   6   50.55   16.30
  10 -12  -6   22.10   13.61
 -10 -12  -6   31.89    7.56
  10  12   6   33.72   14.88
  10  12  -6   56.24   17.16
  12  10  -6   30.81   12.09
 -10 -12  -7   17.70    7.38
 -12 -10  -7   12.72   11.46
 -10 -12   7   12.26   11.15
 -12 -10   7   25.50    9.17
  10 -12  -7   31.22    6.42
 -10 -12  -7   25.13   10.86
  10  12  -7    7.00    4.91
  12  10  -7    9.70    9.04
 -10 -12  -8   12.97   10.06
 -12 -10  -8   25.85   14.18
 -10 -12   8   22.90    9.49
 -12 -10   8   21.34    8.91
  10 -12  -8    8.05    7.16
 -10 -12  -8   13.63    6.77
  10  12  -8    8.78    8.06
  12  10  -8    9.59   13.57
 -10 -12  -9   11.88    6.80
 -12 -10  -9    9.93    8.50
 -10 -12   9   22.85    9.43
 -12 -10   9    9.44    7.16
  10 -12  -9    8.43    4.63
 -10 -12  -9   11.56    8.31
  10  12  -9   16.87   16.23
  12  10  -9   18.22   12.32
 -11 -12   0   -5.72    6.42
 -12 -11   0    5.15    8.07
 -12 -11   0   -1.38    4.63
 -11 -12   0    9.52    6.24
  11  12   0    1.62    5.86
  12  11   0    3.15    2.27
 -11 -12  -1   68.37   22.01
 -12 -11  -1   57.74   18.32
 -11 -12   1   84.60   31.43
 -12 -11   1   68.94   20.42
 -11 -12  -1   43.49   21.01
 -11 -12   1   40.22   17.35
  11  12   1   95.01   25.45
  11  12  -1   65.58   26.09
  12  11   1   98.63   21.82
  12  11  -1   95.71   28.76
 -11 -12  -2   52.15   19.14
 -12 -11  -2   60.81   33.78
 -11 -12   2   58.41   15.56
 -12 -11   2  110.99   14.75
 -12 -11   2   49.17   28.01
 -11 -12   2   59.78   16.15
  11  12   2   78.84   27.11
  11  12  -2   94.10   26.25
  12  11   2  104.88   34.58
  12  11  -2   91.24   31.97
 -11 -12  -3   99.29   31.87
 -12 -11  -3  110.75   13.68
 -11 -12   3  108.03   24.22
 -12 -11   3   49.67   25.25
 -11 -12  -3   74.99   27.31
  11  12   3   91.10   43.03
  12  11   3   94.30   34.04
  11  12  -3  121.43   41.47
  12  11  -3  125.59   31.53
 -11 -12  -4   11.09   10.72
 -12 -11  -4   14.40    8.06
 -11 -12   4   20.30    8.96
 -12 -11   4    6.23    9.59
 -11 -12  -4    9.16    4.93
  11  12   4    9.88    5.13
  12  11   4    1.50    3.23
  11  12  -4   25.40   10.10
  12  11  -4   13.50    5.01
 -11 -12  -5   21.54    9.44
 -12 -11  -5   34.02   13.09
 -11 -12   5   19.01    8.85
 -12 -11   5    4.57    6.35
 -11 -12  -5    9.38    7.27
  11  12   5    5.63    4.43
  12  11   5   17.30   10.74
  11  12  -5   17.46    8.03
  12  11  -5   23.66    9.91
 -11 -12  -6   32.08   15.06
 -12 -11  -6   34.85   12.81
 -12 -11   6   51.17   22.72
 -11 -12  -6   42.31   14.50
  11  12  -6   59.40   15.92
  12  11  -6   48.71   21.15
 -11 -12  -7    5.94    4.42
 -12 -11  -7    8.41    5.95
 -11 -12   7   12.33    9.59
 -12 -11   7   16.95    6.92
 -11 -12  -7    1.19    3.18
  11  12  -7    0.15    5.07
  12  11  -7   11.46    6.55
 -12 -12   0   41.73   17.34
  12  12   0   36.49   18.68
 -12 -12  -1   17.89    9.36
 -12 -12   1   16.53   11.04
 -12 -12   1   20.03    9.06
  12  12   1   14.46   11.44
  12  12  -1    6.69    6.17
 -12 -12  -2    5.85    8.53
 -12 -12   2   12.44    8.93
 -12 -12   2    5.43    3.96
  12  12   2   10.46    7.83
  12  12  -2    3.19    5.73
 -12 -12  -3   16.10    7.83
 -12 -12   3   26.87   10.38
  12  12  -3   21.90   21.22
 -12 -12  -4  100.01   15.28
 -12 -12   4   53.56   19.11
  12  12   4   48.04   23.08
  12  12  -4   74.41   26.83
 -12 -12  -5   64.11   14.50
 -12 -12   5   72.56   20.23
  12  12   5   48.56   25.78
  12  12  -5   58.03   20.54
 -13   0   0   12.00    9.26
   0 -13   0    2.10    4.72
   0  13   0    9.80    5.04
 -13   0  -1    6.35    6.63
 -13   0   1   12.20    9.27
   0 -13  -1    8.51    4.86
   0  13   1    3.55    5.37
   0  13  -1    6.71    4.35
 -13   0  -2   11.91    8.08
 -13   0   2   21.18    6.65
   0 -13  -2    5.21    7.87
   0  13   2   12.42    7.76
   0  13  -2   14.58    7.66
 -13   0  -3   10.35    9.61
 -13   0   3   13.81    4.86
   0 -13  -3    7.03    5.55
   0  13   3   12.23    8.54
   0  13  -3   12.35    8.07
 -13   0  -4  442.58   22.81
 -13   0   4  447.16   22.84
   0 -13  -4  441.52   23.54
   0  13   4  420.86   30.24
   0  13  -4  403.68   58.28
 -13   0  -5   22.48   11.03
 -13   0   5   21.23    8.18
   0 -13  -5   29.34   10.39
   0  13   5   33.25   11.96
   0  13  -5   23.25    9.76
 -13   0  -6   68.41   19.58
 -13   0   6   71.06   14.97
   0 -13  -6   60.11   19.33
   0  13   6   77.32   20.40
   0  13  -6   75.47   14.61
   0 -13  -7   12.10   10.73
   0  13   7   19.83    9.38
   0  13  -7    7.85    4.69
 -13   0  -8  503.24   22.19
 -13   0   8  506.54   21.17
   0 -13  -8  438.91   68.22
   0  13   8  519.25   29.27
   0  13  -8  546.37   53.87
 -13   0  -9    5.97    6.28
 -13   0   9    4.46    7.54
   0 -13  -9   -0.05    7.23
   0  13   9   10.62    6.90
   0  13  -9   10.43    5.43
 -13   0 -10   12.94    8.83
 -13   0  10   12.43    7.92
   0 -13 -10   11.90    8.49
   0  13  10    3.00    4.19
   0  13 -10    7.90    8.63
 -13   0 -11   27.48   16.82
 -13   0  11   30.73   11.70
   0 -13 -11   29.56    9.91
   0  13 -11   41.40   10.04
 -13   0 -12   71.27   19.15
 -13   0  12   64.88   19.60
   0 -13 -12   65.49   26.01
   0  13 -12   61.39   22.80
 -13   0 -13    9.72    9.43
 -13   0  13    3.03    5.37
   0 -13 -13    9.02    8.36
   0  13 -13    6.23    4.72
 -13   0 -14    5.66    8.37
 -13   0  14   19.45   16.33
   0 -13 -14    3.65    7.30
   0  13 -14   12.66    7.57
 -13   1   0  325.28   60.50
 -13  -1   0  294.00   48.95
   1 -13   0  358.70   45.00
  -1 -13   0  384.81   42.70
  -1  13   0  370.11   50.63
   1  13   0  340.12   39.78
 -13   1  -1  201.13   44.42
 -13  -1  -1  159.46   37.23
 -13   1   1  181.99   14.83
 -13  -1   1  174.63   40.53
  -1 -13  -1  194.70   43.06
  -1  13   1  172.96   37.55
  -1  13  -1  194.94   32.17
   1  13   1  210.45   35.69
   1  13  -1  215.32   40.97
 -13   1  -2   70.02    9.88
 -13  -1  -2   53.65   23.72
 -13   1   2   60.20    9.12
 -13  -1   2   87.35   15.56
   1 -13  -2   76.62   18.92
  -1 -13  -2   79.28   15.74
  -1  13   2  106.22   21.22
  -1  13  -2   55.02   16.28
   1  13   2   80.32   20.73
   1  13  -2   79.71   20.33
 -13   1  -3    9.70    8.51
 -13  -1  -3   18.13    8.85
 -13   1   3    5.43    6.17
 -13  -1   3    7.66    5.20
   1 -13  -3    3.62    8.33
  -1 -13  -3    2.72    5.60
  -1  13   3    7.72    4.28
   1  13   3   17.02    8.27
  -1  13  -3   10.07    7.22
   1  13  -3   12.18    7.39
 -13   1  -4  190.88   29.52
 -13  -1  -4  198.30   13.77
 -13   1   4  174.89   45.31
 -13  -1   4  187.80   44.37
   1 -13  -4  195.58   39.03
  -1 -13  -4  180.89   35.01
  -1  13   4  237.95   45.98
   1  13   4  215.46   32.93
  -1  13  -4  173.30   33.61
   1  13  -4  224.37   50.83
 -13   1  -5  320.50   29.16
 -13  -1  -5  319.60   38.39
 -13   1   5  367.66   19.95
 -13  -1   5  274.54   55.14
   1 -13  -5  351.83   19.67
  -1 -13  -5  315.93   53.72
  -1  13   5  335.15   43.32
   1  13   5  365.03   59.11
  -1  13  -5  380.02   64.24
   1  13  -5  294.17   62.27
 -13   1  -6   35.10   17.01
 -13  -1  -6   48.42   12.20
 -13   1   6   56.05   13.96
 -13  -1   6   46.72   14.06
   1 -13  -6   26.47   11.08
  -1 -13  -6   25.71    6.72
  -1  13   6   48.84   19.61
   1  13   6   40.66    9.19
  -1  13  -6   43.39   12.93
   1  13  -6   54.93   13.49
 -13   1  -7  229.90   37.62
 -13  -1  -7  245.39   54.12
 -13   1   7  235.48   42.50
 -13  -1   7  227.58   64.09
   1 -13  -7  198.06   44.92
  -1 -13  -7  212.33   42.22
  -1  13   7  219.28   44.12
   1  13   7  285.39   33.52
  -1  13  -7  288.35   50.28
   1  13  -7  250.35   53.53
 -13   1  -8   48.80   11.28
 -13  -1  -8   29.35   10.30
 -13  -1   8   27.42    7.52
 -13   1   8   37.12   10.98
   1 -13  -8   25.81   13.36
  -1 -13  -8   29.81   10.02
  -1  13   8   22.03    6.96
   1  13   8   26.76   11.42
  -1  13  -8   34.27    8.06
   1  13  -8   37.69   12.11
 -13   1  -9   24.12    9.39
 -13  -1  -9   53.14   14.43
 -13  -1   9   17.10    8.79
 -13   1   9   43.40   16.61
   1 -13  -9   33.26   13.47
  -1 -13  -9   50.76   18.97
  -1  13   9   33.09    9.82
   1  13   9   29.97   10.98
  -1  13  -9   49.48   14.50
   1  13  -9   37.79    8.44
 -13   1 -10  135.13   30.80
 -13  -1 -10  152.54   34.01
 -13  -1  10  141.91   37.85
 -13   1  10  134.92   36.18
   1 -13 -10  130.32   42.51
  -1 -13 -10  112.82   33.23
   1  13  10  126.89   31.91
  -1  13 -10  184.31   51.95
   1  13 -10  177.02   39.67
 -13   1 -11   86.83   25.32
 -13  -1 -11  112.34   25.57
 -13  -1  11   93.47   33.10
 -13   1  11   85.45   25.26
   1 -13 -11   71.76   22.45
  -1 -13 -11   79.65   29.84
  -1  13 -11  124.54   27.25
   1  13 -11  114.34   27.76
 -13   1 -12   86.37   26.67
 -13  -1 -12   74.49   32.09
 -13  -1  12   96.07   38.12
 -13   1  12  118.97   25.51
   1 -13 -12   90.25   35.07
  -1 -13 -12  138.72   20.16
   1  13 -12  121.55   27.34
 -13   1 -13    4.69    5.10
 -13  -1 -13    7.40    4.72
 -13  -1  13    3.32    6.69
 -13   1  13   11.54    8.39
   1 -13 -13    6.17    6.51
  -1 -13 -13   14.97   12.10
  -1  13 -13    5.71    4.97
   1  13 -13    4.73    4.40
 -13   1 -14    5.61    5.72
 -13  -1 -14    4.32    7.26
 -13  -1  14   10.00    6.53
 -13   1  14   10.88    6.32
   1 -13 -14    7.49   11.74
  -1 -13 -14    8.40    7.98
  -1  13 -14   -1.45    4.90
   1  13 -14   11.99    7.77
  -2 -13   0    9.64    3.04
 -13   2   0   24.41    7.51
 -13  -2   0   20.94    6.93
   2 -13   0   24.29   10.26
  -2 -13   0   11.95    7.85
  -2  13   0   16.26    7.04
   2  13   0   14.66    6.19
  -2 -13  -1  143.55   22.64
  -2 -13   1  111.12    9.82
 -13   2  -1  131.99   29.82
 -13  -2  -1  133.91   40.20
 -13   2   1  125.77   27.69
 -13  -2   1  133.60   38.38
   2 -13  -1  124.14   32.24
  -2 -13  -1  139.78   30.47
   2 -13   1  167.08   26.57
  -2  13   1  158.09   29.80
  -2  13  -1  137.98   31.84
   2  13   1  146.80   35.14
   2  13  -1  155.70   29.29
  -2 -13  -2  473.84   18.57
 -13   2  -2  540.79   25.32
 -13  -2  -2  511.58   25.25
  -2 -13   2  489.31   19.32
 -13   2   2  496.57   29.21
 -13  -2   2  558.68   25.73
   2 -13  -2  504.48   57.15
  -2 -13  -2  558.32   27.87
  -2  13   2  536.35   35.49
  -2  13  -2  414.84   63.15
   2  13   2  504.86   29.66
   2  13  -2  601.78   35.19
  -2 -13  -3   82.79   16.87
 -13   2  -3  105.14   11.79
 -13  -2  -3  124.40   35.17
  -2 -13   3   92.52   15.05
 -13   2   3  136.67   31.05
 -13  -2   3  101.48   21.15
   2 -13  -3  111.06   23.14
  -2 -13  -3   75.49   16.92
  -2  13   3  123.42   26.47
  -2  13  -3  113.41   26.57
   2  13   3  134.24   29.83
   2  13  -3  119.05   28.79
  -2 -13  -4   56.16   15.55
 -13   2  -4   52.25   18.19
 -13  -2  -4   71.56   15.47
  -2 -13   4   44.76   12.96
 -13   2   4   54.59   15.98
 -13  -2   4   56.14   19.01
   2 -13  -4   67.44   12.64
  -2 -13  -4   55.99   16.70
  -2  13   4   95.23   23.41
  -2  13  -4   76.40   16.00
   2  13   4   78.75   20.25
   2  13  -4   77.50   16.40
  -2 -13  -5   45.61   13.58
 -13   2  -5   49.68   15.04
 -13  -2  -5   75.78   17.02
  -2 -13   5   58.97   19.20
 -13   2   5   62.29    9.04
 -13  -2   5   59.88   17.88
   2 -13  -5   45.04   14.13
  -2 -13  -5   69.21   20.81
  -2  13   5   84.63   17.94
   2  13   5   75.17   21.21
  -2  13  -5   72.78   16.49
   2  13  -5   69.63   16.90
  -2 -13  -6   43.45   15.71
 -13   2  -6   68.98   13.67
 -13  -2  -6   66.95   20.46
  -2 -13   6   35.23    9.44
 -13   2   6   54.31   15.77
 -13  -2   6   94.31   25.43
   2 -13  -6   59.96   12.83
  -2 -13  -6   69.43   21.38
  -2  13   6   78.16   22.39
   2  13   6   59.86   13.76
  -2  13  -6   81.75   21.22
   2  13  -6   68.68   22.74
  -2 -13  -7    3.33    3.94
 -13   2  -7    5.60    4.30
 -13  -2  -7   10.62    4.85
 -13   2   7   19.72    8.16
 -13  -2   7   20.17    9.96
  -2 -13   7    3.54    2.48
   2 -13  -7    2.00    7.07
  -2 -13  -7    6.31    7.08
  -2  13   7    9.58    5.21
   2  13   7    4.48    3.52
  -2  13  -7   10.69    3.90
   2  13  -7    8.66    3.26
  -2 -13  -8   14.21   13.66
 -13   2  -8   37.44   18.05
 -13  -2  -8   29.97   12.72
 -13  -2   8   32.42    8.53
 -13   2   8   28.85    8.29
  -2 -13   8   20.88    5.50
   2 -13  -8   33.62   14.56
  -2 -13  -8   21.82   10.61
  -2  13   8   28.65   11.59
   2  13   8   40.12    6.76
  -2  13  -8   37.49   13.57
   2  13  -8   14.95    7.52
  -2 -13  -9   31.66   12.44
 -13   2  -9   59.35   18.15
 -13  -2  -9   52.24   11.82
 -13  -2   9   49.42   19.90
 -13   2   9   47.70   18.60
  -2 -13   9   35.75    8.76
  -2 -13  -9   50.68   20.18
   2  13   9   48.68   17.40
  -2  13  -9   59.74   17.40
   2  13  -9   63.76   19.74
  -2 -13 -10   62.32   17.86
 -13   2 -10   68.91   28.25
 -13  -2 -10   76.44   17.12
 -13  -2  10   77.42   17.60
 -13   2  10   74.16   17.77
  -2 -13  10   43.79   16.96
   2 -13 -10   50.03   15.82
  -2 -13 -10   74.09   21.83
   2  13  10   53.02   18.70
  -2  13 -10   85.03   21.98
   2  13 -10   84.53   23.56
  -2 -13 -11   22.38    6.52
 -13   2 -11   25.19   10.85
 -13  -2 -11   43.80   19.71
 -13  -2  11   33.64    9.88
 -13   2  11   38.55   15.70
  -2 -13  11   35.80    7.73
   2 -13 -11   30.54   12.08
  -2 -13 -11   20.35   10.28
  -2  13 -11   28.25    9.50
   2  13 -11   21.21   10.62
  -2 -13 -12    2.43    2.45
 -13  -2 -12    9.57    5.38
 -13  -2  12   11.95    7.38
 -13   2  12    8.98    7.18
   2 -13 -12    2.63    5.92
  -2 -13 -12    6.32    8.43
  -2  13 -12   10.07    4.62
   2  13 -12    6.96    4.41
 -13   2 -13   42.24   12.58
 -13  -2 -13   43.49   16.91
 -13  -2  13   46.62   12.00
 -13   2  13   41.36   13.45
   2 -13 -13   32.74   15.99
  -2 -13 -13   37.03   18.18
  -2  13 -13   35.42   11.28
   2  13 -13   40.84   14.47
  -3 -13   0    5.71    4.51
 -13   3   0   26.42    8.70
 -13  -3   0   33.00   10.03
   3 -13   0   24.25    9.82
  -3 -13   0   25.61    7.97
  -3  13   0   18.21    8.04
   3  13   0   25.84   12.38
  -3 -13  -1   87.02   19.35
 -13   3  -1   97.12   27.14
  -3 -13   1   88.45    7.24
 -13  -3  -1   78.37   33.06
 -13   3   1   89.13   21.69
 -13  -3   1   78.55   31.87
   3 -13  -1   90.12   17.84
  -3 -13  -1  100.88   21.13
   3 -13   1  118.98   22.57
  -3  13   1  104.57   22.40
  -3  13  -1   93.34   18.33
   3  13   1  123.27   29.04
   3  13  -1  113.60   28.47
  -3 -13  -2   43.72   16.09
 -13   3  -2   89.55   28.98
 -13  -3  -2   86.90   11.03
  -3 -13   2   45.55   14.55
 -13   3   2   71.23   22.62
 -13  -3   2   60.83   13.99
   3 -13  -2   59.09   18.49
  -3 -13  -2   99.56   13.20
  -3  13   2   87.44   19.79
  -3  13  -2   73.75   21.22
   3  13   2   83.70   16.89
   3  13  -2   79.52   26.29
  -3 -13  -3   59.50   15.23
 -13   3  -3   43.03   17.83
 -13  -3  -3   49.50   12.08
  -3 -13   3   44.55   11.89
 -13   3   3   46.84   14.58
 -13  -3   3   60.66   17.24
   3 -13  -3   61.12   17.83
  -3 -13  -3   55.07   18.55
  -3  13   3   74.37   17.52
  -3  13  -3   45.98   18.20
   3  13   3   55.03   13.80
   3  13  -3   57.36   18.20
  -3 -13  -4   37.53   11.76
 -13   3  -4   39.64   11.11
 -13  -3  -4   39.24    8.77
  -3 -13   4   32.37   12.54
 -13   3   4   50.20   11.67
 -13  -3   4   54.99   13.48
   3 -13  -4   66.11   18.41
  -3 -13  -4   28.41    9.96
  -3  13   4   46.46   13.37
  -3  13  -4   54.55   11.63
   3  13   4   47.47   14.40
   3  13  -4   41.81   11.62
  -3 -13  -5   10.43    7.01
 -13   3  -5   34.82    9.71
 -13  -3  -5   40.93   11.48
  -3 -13   5   20.46    4.88
 -13   3   5   26.56   10.65
 -13  -3   5   34.59   11.41
   3 -13  -5   13.81    5.39
  -3 -13  -5   19.79    6.85
  -3  13   5   33.02    9.95
  -3  13  -5   31.23    9.68
   3  13   5   33.35   12.27
   3  13  -5   21.22   11.84
  -3 -13  -6  157.95   29.71
 -13   3  -6  216.64   36.81
 -13  -3  -6  209.95   14.28
  -3 -13   6  136.23   31.11
 -13   3   6  138.74   41.12
 -13  -3   6  159.97   51.20
   3 -13  -6  185.76   33.57
  -3 -13  -6  147.63   37.73
  -3  13   6  193.35   43.67
  -3  13  -6  192.48   37.14
   3  13   6  207.51   37.56
   3  13  -6  197.52   37.51
  -3 -13  -7    5.47    3.59
 -13   3  -7   27.12    6.88
 -13  -3  -7   27.34   11.84
 -13   3   7   21.23    6.72
 -13  -3   7   18.85    5.30
  -3 -13   7   13.55    6.84
   3 -13  -7   13.00    7.60
  -3 -13  -7   32.45   10.83
  -3  13   7   14.92    4.23
   3  13   7   21.17    7.56
  -3  13  -7   19.79    7.12
   3  13  -7   25.42    9.99
  -3 -13  -8   10.79    5.93
 -13   3  -8    3.70    4.59
 -13  -3  -8   -1.00    7.14
 -13  -3   8   14.53    7.96
 -13   3   8   20.65    8.34
  -3 -13   8   11.19    4.59
   3 -13  -8   11.43    6.87
  -3 -13  -8    7.93    6.54
   3  13   8   12.79    5.43
  -3  13  -8   13.19    6.97
   3  13  -8    6.38    4.52
  -3 -13  -9    2.68    3.48
 -13   3  -9    2.46    5.95
 -13  -3  -9   18.84    7.04
 -13  -3   9   11.03    5.52
 -13   3   9   12.27    8.21
  -3 -13   9   11.01    4.45
   3 -13  -9   16.99   10.53
  -3 -13  -9   22.47    7.33
   3  13   9    9.69    4.93
  -3  13  -9   10.60    5.07
   3  13  -9    9.80    7.26
  -3 -13 -10  220.50   27.46
 -13   3 -10  186.79   42.07
 -13  -3 -10  200.52   54.24
 -13  -3  10  152.73   57.94
 -13   3  10  179.26   47.25
  -3 -13  10  154.31   45.43
   3 -13 -10  179.29   53.39
  -3 -13 -10  179.81   42.66
  -3  13 -10  194.05   34.84
   3  13 -10  231.66   54.81
  -3 -13 -11   37.50   13.46
 -13   3 -11   46.97   16.58
 -13  -3 -11   59.78   12.93
 -13  -3  11   26.66   11.49
 -13   3  11   59.33   15.78
  -3 -13  11   24.34   11.64
   3 -13 -11   64.67   13.54
  -3 -13 -11   20.26   15.70
  -3  13 -11   60.26   15.53
   3  13 -11   55.95   16.94
  -3 -13 -12    3.21    3.06
 -13   3 -12   14.77    5.64
 -13  -3 -12   20.68    9.05
 -13  -3  12   11.95    6.91
 -13   3  12   21.52    8.60
  -3 -13  12    6.91    4.76
   3 -13 -12   13.53   12.69
  -3 -13 -12   35.31   13.48
  -3  13 -12   19.93    8.39
   3  13 -12   14.51    8.41
  -3 -13 -13   22.73   13.14
 -13   3 -13   29.55   14.68
 -13  -3 -13   50.25   16.11
 -13  -3  13   53.41   22.54
 -13   3  13   29.63   13.49
  -3 -13  13   28.16    9.63
   3 -13 -13   50.90   11.92
  -3 -13 -13   30.41   20.35
  -3  13 -13   50.42   14.57
   3  13 -13   56.67   22.31
  -4 -13   0    5.00    4.24
 -13   4   0    8.58    7.06
 -13  -4   0   17.91   11.71
   4 -13   0    9.76    8.18
  -4 -13   0   17.11    8.86
  -4  13   0   -1.18    6.62
   4  13   0   14.17    7.35
  -4 -13  -1   24.98    8.90
 -13   4  -1   30.15    9.16
 -13  -4  -1   34.15   13.68
 -13   4   1   57.45   17.62
 -13  -4   1   33.83   16.54
   4 -13  -1   51.05   12.25
  -4 -13  -1   39.73   17.82
   4 -13   1   68.70   17.57
  -4  13   1   60.79   21.50
  -4  13  -1   65.54   13.47
   4  13   1   56.20   14.63
   4  13  -1   47.05   12.97
  -4 -13  -2   49.81   19.77
 -13   4  -2  111.34   20.70
 -13  -4  -2   86.10   27.72
  -4 -13   2   72.74   12.10
 -13   4   2   92.84   21.61
 -13  -4   2  140.03   29.35
   4 -13  -2   92.18   15.51
  -4 -13  -2  105.13   12.65
   4 -13   2  111.21   25.10
  -4  13   2   96.06   22.18
  -4  13  -2  103.27   22.17
   4  13   2   91.75   19.37
   4  13  -2   83.31   18.71
  -4 -13  -3    5.23    4.24
 -13   4  -3   15.74    7.84
 -13  -4  -3   29.29   10.64
  -4 -13   3   24.17    7.40
 -13   4   3   41.60    7.72
 -13  -4   3   15.10    8.82
   4 -13  -3   22.46    7.10
  -4 -13  -3   10.92    8.31
  -4  13   3   13.61    5.69
  -4  13  -3   44.67   10.49
   4  13   3   30.30    9.16
   4  13  -3   16.83   10.35
  -4 -13  -4   69.48   22.35
 -13   4  -4   58.48   19.51
 -13  -4  -4   75.72   22.97
  -4 -13   4   54.00   23.43
 -13   4   4   86.45   13.05
 -13  -4   4   50.25   14.97
   4 -13  -4   84.64   14.77
  -4 -13  -4   51.33   17.99
  -4  13   4   69.74   14.76
  -4  13  -4  116.53   18.93
   4  13   4   69.66   21.24
   4  13  -4   68.36   16.06
  -4 -13  -5  106.01   32.86
 -13   4  -5  139.01   26.05
 -13  -4  -5  146.61   33.17
  -4 -13   5   72.44   22.50
 -13   4   5  111.61   24.71
 -13  -4   5  122.06   19.50
   4 -13  -5   85.39   23.92
  -4 -13  -5  110.43   25.40
  -4  13   5  164.31   23.68
  -4  13  -5  149.83   29.95
   4  13   5  142.83   27.19
   4  13  -5  161.46   28.40
  -4 -13  -6    3.17    2.67
 -13   4  -6    8.26    7.90
 -13  -4  -6   26.74   10.34
 -13   4   6    8.13    5.02
  -4 -13   6    4.79    5.26
 -13  -4   6    7.64    4.59
   4 -13  -6   12.61    7.71
  -4 -13  -6    9.04    3.89
  -4  13   6    4.86    6.25
  -4  13  -6    6.08    6.27
   4  13   6   13.45    4.79
   4  13  -6   10.98    7.91
  -4 -13  -7  207.65   36.54
 -13   4  -7  193.62   24.99
 -13  -4  -7  234.09   18.28
 -13  -4   7  179.18   30.98
 -13   4   7  187.51   40.91
  -4 -13   7  171.95   32.44
   4 -13  -7  213.73   33.19
  -4 -13  -7  187.84   45.58
  -4  13  -7  192.12   43.02
   4  13   7  270.10   41.05
   4  13  -7  195.34   44.59
  -4 -13  -8   80.61   19.72
 -13   4  -8   72.38   26.21
 -13  -4  -8   92.24   21.92
 -13  -4   8   72.59   20.57
 -13   4   8   65.82   21.56
  -4 -13   8   80.62   23.41
   4 -13  -8   92.39   25.10
  -4 -13  -8   71.27   29.49
  -4  13  -8  114.21   25.51
   4  13   8   84.29   20.07
   4  13  -8   97.56   23.09
  -4 -13  -9   84.73   24.47
 -13   4  -9   95.67   27.96
 -13  -4  -9  120.39   40.72
 -13  -4   9   92.55   30.22
 -13   4   9   90.38   27.77
  -4 -13   9  128.67   24.83
   4 -13  -9  115.32   38.87
  -4 -13  -9   99.98   27.08
   4  13   9  113.68   26.29
  -4  13  -9  108.47   37.54
   4  13  -9  141.68   29.14
  -4 -13 -10   19.40    7.15
 -13   4 -10   31.26    8.36
 -13  -4  10   33.98   10.53
 -13   4  10   26.65   10.51
  -4 -13  10   27.61   10.94
   4 -13 -10   11.38    9.37
  -4 -13 -10    9.26    6.18
  -4  13 -10   39.62   14.05
   4  13 -10   20.88   10.92
  -4 -13 -11   95.58   36.86
 -13   4 -11  125.53   36.51
 -13  -4 -11  111.68   38.31
 -13  -4  11  122.31   49.27
 -13   4  11  132.98   34.17
  -4 -13  11  107.60   32.62
   4 -13 -11   95.88   39.96
  -4 -13 -11   97.49   36.66
  -4  13 -11  154.36   37.97
   4  13 -11  131.81   38.20
  -4 -13 -12   22.88    7.73
 -13   4 -12   39.38   14.25
 -13  -4 -12   61.20   23.65
 -13  -4  12   41.43   19.86
 -13   4  12   25.71   10.58
  -4 -13  12   14.19    6.60
   4 -13 -12   37.48   10.33
  -4 -13 -12   15.09    7.88
  -4  13 -12   31.76   12.52
   4  13 -12   39.74   15.18
  -4 -13 -13   21.99    8.88
 -13   4 -13   48.80   14.42
 -13  -4 -13   24.56   12.52
 -13  -4  13   35.12   11.26
 -13   4  13   39.59   19.98
  -4 -13  13   25.79    6.93
   4 -13 -13   69.15   13.20
  -4 -13 -13   39.23   13.52
  -4  13 -13   36.93   10.49
   4  13 -13   34.43   16.66
 -13   5   0  235.99   17.34
  -5 -13   0  225.20   11.95
 -13  -5   0  257.97   39.00
   5 -13   0  240.29   29.67
  -5 -13   0  227.60   50.51
  -5  13   0  263.45   39.58
   5  13   0  296.07   17.34
 -13   5  -1   90.53   19.54
  -5 -13  -1   77.83   24.14
 -13   5   1   71.94   22.72
  -5 -13   1   75.62   14.87
 -13  -5  -1   58.36   22.94
 -13  -5   1   55.91   28.80
   5 -13  -1   75.48   14.32
   5 -13   1   88.29   12.79
  -5 -13  -1   65.92   19.98
  -5  13   1   99.76   25.23
  -5  13  -1   87.54   21.57
   5  13   1   65.68   17.02
   5  13  -1   84.90   19.45
 -13   5  -2   33.17   13.17
  -5 -13  -2   16.83    9.89
 -13  -5  -2   29.05   14.55
 -13   5   2   22.00    5.71
  -5 -13   2   26.56    7.56
 -13  -5   2   34.01    8.70
   5 -13  -2   10.90    6.02
   5 -13   2   25.06   11.04
  -5  13   2   37.75   12.74
  -5  13  -2   33.08   10.48
   5  13   2   37.11   12.07
   5  13  -2   34.80    9.08
 -13   5  -3  107.38   26.13
  -5 -13  -3  116.97   19.00
 -13  -5  -3   82.71   34.91
 -13   5   3   72.50   21.68
  -5 -13   3   80.39   32.59
 -13  -5   3  115.62   28.08
   5 -13  -3  103.70   20.81
  -5 -13  -3   88.52   32.52
  -5  13   3  136.37   19.44
  -5  13  -3  107.21   23.86
   5  13   3  108.98   25.39
   5  13  -3  120.44   25.58
 -13   5  -4  338.63   37.98
  -5 -13  -4  344.43   35.59
 -13  -5  -4  399.24   22.50
 -13   5   4  324.46   40.24
  -5 -13   4  347.79   13.82
 -13  -5   4  286.96   60.22
   5 -13  -4  355.07   41.35
  -5 -13  -4  277.36   46.34
  -5  13   4  394.62   43.32
  -5  13  -4  336.97   44.62
   5  13   4  376.94   39.90
   5  13  -4  302.50   49.85
 -13   5  -5    8.74    5.52
  -5 -13  -5    9.39    6.56
 -13  -5  -5    4.28    7.56
 -13   5   5   10.49    3.97
  -5 -13   5   15.49    6.88
 -13  -5   5   13.30    8.69
   5 -13  -5    6.75    5.94
  -5 -13  -5   13.45    5.95
  -5  13  -5    3.88    3.87
   5  13   5   10.87    6.36
   5  13  -5   14.51   12.48
 -13   5  -6   96.88   18.26
  -5 -13  -6   79.78   20.16
 -13  -5  -6   90.41   27.37
 -13   5   6   88.51    8.90
  -5 -13   6   73.50   16.84
 -13  -5   6  119.29   31.07
   5 -13  -6  101.03   13.31
  -5 -13  -6   93.84   21.29
  -5  13  -6  119.72   22.45
   5  13   6  116.47   24.44
   5  13  -6  138.04   18.60
 -13   5  -7   53.36   12.33
  -5 -13  -7   56.61   15.10
 -13  -5  -7   63.62   21.14
  -5 -13   7   56.59   13.24
 -13  -5   7   50.38   13.48
 -13   5   7   36.52   15.85
   5 -13  -7   43.29   21.10
  -5 -13  -7   47.78   17.00
  -5  13  -7   60.19   14.08
   5  13   7   57.85   12.95
   5  13  -7   63.65   22.90
 -13   5  -8   40.37    9.20
  -5 -13  -8   36.55    8.81
 -13  -5  -8   53.41   17.31
 -13  -5   8   57.52   13.95
 -13   5   8   48.67   13.13
  -5 -13   8   37.37   10.27
   5 -13  -8   47.95   13.80
  -5 -13  -8   39.47   13.37
  -5  13  -8   36.92   14.93
   5  13   8   43.64   12.99
   5  13  -8   40.88    9.06
 -13   5  -9   33.17   13.11
  -5 -13  -9   40.20    9.54
 -13  -5  -9   33.38    9.85
 -13  -5   9   44.45   18.49
 -13   5   9   28.47   12.49
  -5 -13   9   33.65    8.54
   5 -13  -9   31.20   18.22
  -5 -13  -9   37.08   18.95
  -5  13  -9   37.21   10.90
 -13   5 -10   10.09    6.20
  -5 -13 -10    4.31    3.71
 -13  -5 -10   25.10   10.20
 -13  -5  10   10.14    7.53
  -5 -13  10   17.50    6.54
 -13   5  10    3.22    4.69
   5 -13 -10    8.70    6.98
  -5 -13 -10   18.02    8.98
  -5  13 -10   12.84   11.12
   5  13 -10   24.58   13.30
 -13   5 -11   15.75    8.52
  -5 -13 -11   13.58    4.86
 -13  -5 -11   25.49    9.28
 -13  -5  11   18.02   13.37
 -13   5  11   12.76    4.32
  -5 -13  11    9.21    5.33
  -5 -13 -11    6.59    8.52
  -5  13 -11    8.86    6.68
   5  13 -11    9.34   11.26
 -13   5 -12   33.19   16.31
  -5 -13 -12   38.09   11.55
 -13  -5 -12   48.44   18.50
 -13  -5  12   38.73   15.50
  -5 -13  12   32.69   15.73
 -13   5  12   31.26    8.41
   5 -13 -12   47.52   15.96
  -5 -13 -12   59.76   14.91
  -5  13 -12   43.50   14.74
   5  13 -12   80.27   16.82
 -13   6   0   43.73   13.05
  -6 -13   0   43.95   19.12
 -13  -6   0   59.69   14.95
  -6 -13   0   36.85   14.46
  -6  13   0   68.47   19.79
   6  13   0   56.07   22.61
 -13   6  -1  127.86   27.33
  -6 -13  -1  136.27   27.26
 -13   6   1  116.17   21.44
  -6 -13   1  102.98   40.49
 -13  -6  -1  151.53   13.60
 -13  -6   1  145.91   48.39
   6 -13   1  166.31   15.06
  -6 -13  -1  159.96   29.33
  -6  13   1  199.31   40.73
  -6  13  -1  194.31   38.56
   6  13   1  155.25   33.66
   6  13  -1  173.65   44.05
 -13   6  -2    5.60    4.35
  -6 -13  -2    9.75    6.50
 -13  -6  -2   20.72    8.89
 -13   6   2    3.00    4.19
  -6 -13   2    6.00    6.48
 -13  -6   2   12.16   10.08
   6 -13  -2    9.11    7.41
  -6 -13  -2    9.69    4.92
   6 -13   2   -0.15    5.67
  -6  13   2   11.01    7.28
  -6  13  -2   15.76    8.28
   6  13   2    3.92    5.71
   6  13  -2    0.63    6.18
 -13   6  -3  168.68   33.91
  -6 -13  -3  183.30   34.51
 -13  -6  -3  171.20   26.61
 -13   6   3  186.22   23.75
  -6 -13   3  158.02   42.89
 -13  -6   3  164.19   49.35
   6 -13  -3  205.82   26.75
  -6 -13  -3  141.60   51.00
   6 -13   3  161.07   35.61
  -6  13   3  241.09   30.40
  -6  13  -3  241.34   41.95
   6  13   3  187.04   39.79
   6  13  -3  214.72   48.38
 -13   6  -4   26.09    6.30
  -6 -13  -4   11.78    5.75
 -13  -6  -4   19.41    8.62
 -13   6   4   10.73    5.34
  -6 -13   4   13.25    7.95
 -13  -6   4   11.59    9.36
   6 -13  -4    9.65    6.30
  -6 -13  -4   24.25   13.81
  -6  13  -4   18.82    6.25
   6  13   4   10.97    5.27
 -13   6  -5   55.19   14.61
  -6 -13  -5   62.71   16.59
 -13  -6  -5   64.51   15.49
 -13   6   5   34.18    9.28
  -6 -13   5   35.68   17.80
 -13  -6   5   54.56   16.54
   6 -13  -5   54.77   10.19
  -6 -13  -5   56.30   19.96
  -6  13  -5   60.96   15.32
   6  13   5   74.75   14.35
   6  13  -5   67.65   23.29
 -13   6  -6    9.91    5.07
  -6 -13  -6   12.20    6.19
 -13  -6  -6   16.69   11.44
 -13   6   6    7.88    5.96
  -6 -13   6    6.04    4.53
 -13  -6   6   18.50   10.96
   6 -13  -6   -3.42    5.70
  -6 -13  -6   10.92    7.54
  -6  13  -6   16.62    6.03
   6  13   6    4.19    4.10
   6  13  -6   19.01   10.07
 -13   6  -7    6.11    4.28
  -6 -13  -7   -0.17    5.33
 -13  -6  -7    8.77    9.79
 -13   6   7    7.21    5.74
  -6 -13   7   14.08   10.07
 -13  -6   7   13.44   10.54
   6 -13  -7    8.03    3.83
  -6 -13  -7   10.24    5.23
  -6  13  -7    5.46    4.13
   6  13   7    5.93    4.65
   6  13  -7    9.26    4.26
  -6 -13  -8   68.51   17.20
 -13  -6  -8   64.05   18.31
 -13  -6   8   64.80   16.89
  -6 -13   8   57.03   13.05
   6 -13  -8   46.73   19.15
  -6 -13  -8   47.85   11.05
  -6  13  -8   73.05   20.14
   6  13  -8   68.45   22.87
  -6 -13  -9   27.68   10.15
 -13  -6  -9   45.02   14.81
 -13  -6   9   43.88   13.98
  -6 -13   9   23.88    9.88
   6 -13  -9   38.53   13.40
  -6 -13  -9   46.16   15.91
  -6  13  -9   40.93   15.97
   6  13  -9   41.85   13.72
  -6 -13 -10   10.88    4.40
 -13  -6 -10   10.69    6.98
 -13  -6  10    0.69    7.08
  -6 -13  10   10.72    5.00
   6 -13 -10    4.69    6.46
  -6 -13 -10   25.56    9.71
  -6  13 -10   14.34    7.47
   6  13 -10   10.08    9.16
  -6 -13 -11   73.97   29.41
 -13  -6 -11   76.65   28.42
 -13  -6  11   62.62   32.04
  -6 -13  11   43.66   26.77
   6 -13 -11  118.91   20.90
  -6 -13 -11   83.52   25.22
  -6  13 -11   97.69   30.29
   6  13 -11   80.94   32.09
 -13  -6 -12   38.44   14.96
 -13  -6  12   20.11    8.25
  -6 -13  12    7.97    6.48
   6 -13 -12   21.07   14.34
  -6 -13 -12    9.57    7.15
  -6  13 -12   13.72    5.26
   6  13 -12   22.32   13.80
  -7 -13   0   36.38   12.68
 -13  -7   0   52.04   13.16
   7 -13   0   47.91    7.45
  -7 -13   0   43.06   15.12
  -7  13   0   48.44   11.29
   7  13   0   49.11   15.22
  -7 -13  -1   23.65    7.99
 -13  -7  -1   19.06   14.19
  -7 -13   1   11.29    6.36
 -13  -7   1   23.57    8.92
   7 -13  -1   34.91   11.13
   7 -13   1   24.49    6.76
  -7 -13  -1   16.75    9.24
  -7  13   1   26.58    7.40
  -7  13  -1   31.90   10.78
   7  13   1   13.68    9.57
   7  13  -1   23.27   11.77
  -7 -13  -2   15.85    6.97
 -13  -7  -2    9.32   10.39
  -7 -13   2   14.88    6.85
 -13  -7   2   12.02    7.30
   7 -13  -2    7.05    3.82
  -7 -13  -2   26.48   10.00
   7 -13   2   15.11    5.65
  -7  13  -2   15.38    8.30
   7  13   2    7.22    5.95
   7  13  -2   12.96    6.19
  -7 -13  -3   87.89   22.37
 -13  -7  -3  111.21   12.87
  -7 -13   3   87.82   22.82
 -13  -7   3  128.15   13.89
   7 -13  -3  138.20   17.10
  -7 -13  -3   85.16   18.17
   7 -13   3  123.52   26.62
  -7  13  -3  134.26   23.58
   7  13   3  124.09   26.12
   7  13  -3  117.42   37.30
  -7 -13  -4   18.79    7.91
 -13  -7  -4   44.10   11.68
  -7 -13   4    9.60    7.85
 -13  -7   4   42.59    9.45
   7 -13  -4   28.92   10.46
  -7 -13  -4   17.36    7.13
   7 -13   4   30.78   11.72
  -7  13  -4   40.10    9.85
   7  13   4    8.99   10.37
  -7 -13  -5  139.32   31.86
 -13  -7  -5  125.56   46.88
  -7 -13   5  116.67   35.70
 -13  -7   5  121.53   46.16
   7 -13  -5  147.71   18.16
  -7 -13  -5  128.86   41.66
  -7  13  -5  163.95   33.44
   7  13   5  201.47   30.63
   7  13  -5  160.29   38.64
  -7 -13  -6   49.98   13.78
 -13  -7  -6   54.89   14.47
  -7 -13   6   38.14   10.55
 -13  -7   6   35.21   14.98
   7 -13  -6   33.92    7.22
  -7 -13  -6   35.61   11.42
  -7  13  -6   60.20   18.75
   7  13   6   46.20   11.22
   7  13  -6   46.25   15.97
  13   7   6   31.97   14.42
  -7 -13  -7  193.67   37.97
 -13  -7  -7  225.68   32.20
  -7 -13   7  273.72   27.89
 -13  -7   7  168.01   61.97
   7 -13  -7  169.20   27.35
  -7 -13  -7  128.90   57.83
  -7  13  -7  233.92   40.12
   7  13   7  211.73   47.01
   7  13  -7  244.32   60.25
  -7 -13  -8   14.08    5.86
  -7 -13   8    2.61    5.32
 -13  -7   8   18.73    7.53
   7 -13  -8   11.94    8.28
  -7 -13  -8   12.78    7.48
  -7  13  -8    6.81    3.99
   7  13  -8   42.46   18.23
  -7 -13  -9   81.97   24.48
 -13  -7  -9  108.56   32.44
 -13  -7   9   79.89   24.84
  -7 -13   9   68.47   23.08
   7 -13  -9   75.99   31.76
  -7 -13  -9   64.20   21.80
  -7  13  -9   96.79   24.65
   7  13  -9  112.92   32.47
  -7 -13 -10   25.62    6.69
 -13  -7 -10   18.91   11.41
 -13  -7  10   13.46    5.74
  -7 -13  10   19.62    9.61
   7 -13 -10   18.47   12.84
  -7 -13 -10   20.93    8.21
  -7  13 -10   27.71    9.59
   7  13 -10   13.64   12.54
  -7 -13 -11   32.67   18.79
 -13  -7 -11   68.63   13.86
 -13  -7  11   34.69   21.24
  -7 -13  11   29.06   12.24
   7 -13 -11   41.75   16.91
  -7 -13 -11   24.66   20.60
  -7  13 -11   50.94   15.37
   7  13 -11   32.91   15.22
  -8 -13   0   45.02    8.49
 -13  -8   0   17.34    9.71
   8 -13   0   26.10   12.09
  -8 -13   0   35.65    9.26
   8  13   0   38.27   11.90
  -8 -13  -1   45.52   13.72
 -13  -8  -1   25.65    8.03
  -8 -13   1   33.07   15.18
 -13  -8   1   48.51   11.09
   8 -13  -1   22.90   10.19
   8 -13   1   29.24   10.12
  -8 -13  -1   29.06   12.51
  -8 -13   1   19.79    8.42
   8  13   1   41.65   14.23
   8  13  -1   33.21   12.36
  -8 -13  -2   59.73   11.88
 -13  -8  -2   43.84   18.41
  -8 -13   2   37.60    8.16
 -13  -8   2   59.85   25.37
   8 -13  -2   65.52   15.61
  -8 -13  -2   26.39   11.96
   8 -13   2   46.92   15.03
  -8  13  -2   53.87   13.74
   8  13   2   45.80   17.14
   8  13  -2   64.13   21.04
  -8 -13  -3   27.29    9.10
 -13  -8  -3   30.24   12.24
  -8 -13   3   17.15    7.77
 -13  -8   3   26.53    7.91
   8 -13  -3   13.44    7.04
  -8 -13  -3   20.84    9.28
   8 -13   3   15.78    7.75
  -8  13  -3   11.28    7.12
   8  13   3   35.06    9.77
   8  13  -3   27.45   11.30
  -8 -13  -4   80.71   20.70
 -13  -8  -4  126.24   32.69
  -8 -13   4  121.86   38.13
 -13  -8   4  117.19   35.43
   8 -13  -4  117.07   30.25
  -8 -13  -4   65.79   36.46
   8 -13   4   94.60   33.16
  -8  13  -4  145.34   36.40
   8  13   4  125.49   21.07
   8  13  -4  111.78   31.22
  13   8   4  113.90   23.07
  -8 -13  -5   55.51   25.39
 -13  -8  -5   79.68   32.20
  -8 -13   5   95.04   24.21
 -13  -8   5   65.79   30.98
   8 -13  -5   93.45   26.96
  -8 -13  -5   90.93   18.71
   8 -13   5   96.57   17.49
  -8  13  -5  116.29   32.46
   8  13   5   69.99   31.24
   8  13  -5   94.32   24.56
  13   8   5   68.20   20.55
  -8 -13  -6   47.61   14.12
 -13  -8  -6   64.52   11.20
  -8 -13   6   28.34   12.01
 -13  -8   6   52.76   17.75
   8 -13  -6   48.35   16.53
  -8 -13  -6   43.58   12.12
  -8  13  -6   40.69   14.18
   8  13   6   64.45   13.29
   8  13  -6   59.59   16.40
  -8 -13  -7  105.36   41.60
 -13  -8  -7  100.81   15.50
  -8 -13   7   82.53   33.09
 -13  -8   7  110.20   12.72
   8 -13  -7   93.05   29.47
  -8 -13  -7   90.34   22.12
  -8  13  -7  106.45   27.75
   8  13   7  104.89   25.94
   8  13  -7  151.57   41.21
  -8 -13  -8   32.61   12.07
 -13  -8  -8   56.94   25.33
  -8 -13   8   84.34   28.67
 -13  -8   8   61.03   14.45
   8 -13  -8   99.62   14.85
  -8 -13  -8   28.49   14.97
  -8  13  -8   95.55   23.60
   8  13  -8   54.05   20.87
  -8 -13  -9   38.13   14.02
 -13  -8  -9   54.29   21.13
  -8 -13   9   32.38   12.26
 -13  -8   9   39.97   18.02
   8 -13  -9   39.21   16.66
  -8 -13  -9   38.65   15.79
  -8  13  -9   50.98   20.25
   8  13  -9   67.95   16.47
  -8 -13 -10   12.10    5.57
 -13  -8 -10    7.59    7.90
 -13  -8  10   19.62   10.55
  -8 -13  10   10.87    7.62
   8 -13 -10    9.51    6.29
  -8 -13 -10    4.27    6.09
  -8  13 -10   12.84    5.51
   8  13 -10    8.45    7.29
  -9 -13   0   69.31   14.06
 -13  -9   0   98.58   38.20
   9 -13   0   66.77   26.78
  -9 -13   0   62.19   25.18
   9  13   0  102.89   26.95
  -9 -13  -1   76.92   37.72
 -13  -9  -1   77.49   28.60
  -9 -13   1   72.04   29.71
 -13  -9   1  104.45   28.82
   9 -13  -1   96.15   15.68
   9 -13   1   94.10   31.54
  -9 -13   1   84.55   26.15
   9  13   1  116.72   34.98
   9  13  -1  117.12   31.61
  13   9   1  133.51   20.40
  -9 -13  -2   17.22    7.64
 -13  -9  -2   10.83    7.16
  -9 -13   2    6.57    5.90
 -13  -9   2    8.10    7.19
   9 -13  -2   13.07    6.93
   9 -13   2    6.62    5.55
   9  13   2   16.46    6.03
   9  13  -2   15.37    8.01
  13   9   2    7.71    5.89
  -9 -13  -3   39.35   16.52
 -13  -9  -3   34.89   24.03
  -9 -13   3   56.45   17.76
 -13  -9   3   36.10   10.83
   9 -13  -3   50.87   18.98
  -9 -13  -3   41.88   13.37
   9 -13   3   41.27   15.42
   9  13   3   46.25   22.55
   9  13  -3   47.23    9.15
  13   9   3   30.68   17.33
  -9 -13  -4    1.64    5.58
 -13  -9  -4    0.49    7.27
  -9 -13   4    9.85    7.34
 -13  -9   4   10.66    7.29
   9 -13  -4    2.28    4.03
  -9 -13  -4   13.43    9.91
   9 -13   4    5.37    4.86
   9  13   4    1.17    3.88
   9  13  -4   11.58    6.47
  13   9   4    1.77    5.05
  -9 -13  -5   66.67   27.73
 -13  -9  -5   89.62   18.18
  -9 -13   5   68.77   27.45
 -13  -9   5  141.96   27.44
   9 -13  -5   96.87   23.37
  -9 -13  -5   91.24   22.85
   9 -13   5   81.47   26.50
   9  13   5   69.22   21.81
   9  13  -5  103.94   25.61
  13   9   5   73.95   27.40
  -9 -13  -6   35.43   13.52
 -13  -9  -6   18.83    8.18
  -9 -13   6   20.75   12.87
 -13  -9   6   12.91    5.07
   9 -13  -6   23.91    8.67
  -9 -13  -6   23.27    9.25
   9 -13   6   14.79    7.30
   9  13   6   25.85    7.63
   9  13  -6   23.58    9.41
  -9 -13  -7   10.32    6.38
 -13  -9  -7    8.28    5.47
  -9 -13   7    8.15    6.52
 -13  -9   7   -8.28    6.70
   9 -13  -7   11.41    8.28
  -9 -13  -7   11.23    8.31
   9  13  -7   10.62    7.73
  -9 -13  -8    5.07    5.29
 -13  -9  -8    8.01    4.35
  -9 -13   8    3.45    6.39
 -13  -9   8   -0.28    7.45
   9 -13  -8    5.45    3.65
  -9 -13  -8    8.25    5.77
   9  13  -8   12.15    8.22
  -9 -13  -9    4.27    5.28
 -13  -9  -9    6.36    4.87
  -9 -13   9    5.90    4.96
 -13  -9   9   11.26    8.10
   9 -13  -9    7.51    4.02
  -9 -13  -9    1.82    4.91
   9  13  -9    9.17    4.83
 -10 -13   0   26.08   12.74
 -13 -10   0   58.85   22.35
 -10 -13   0   37.41   13.77
  10  13   0   76.25   27.07
  13  10   0   67.39   28.63
 -10 -13  -1   53.86   23.70
 -13 -10  -1   59.13   29.57
 -10 -13   1   62.26   10.62
 -13 -10   1   73.20   14.64
 -10 -13   1   51.39   17.03
  10  13   1   71.62   29.89
  10  13  -1   73.61   30.78
  13  10   1   57.99   21.15
  13  10  -1   50.13   24.66
 -10 -13  -2   60.14   33.96
 -13 -10  -2   84.45   38.05
 -10 -13   2  174.73   16.19
 -13 -10   2  135.57   17.50
  10 -13  -2   80.87   20.82
 -10 -13  -2   59.20   19.59
 -10 -13   2   86.60   28.59
  10  13   2   94.89   37.02
  10  13  -2   85.27   24.70
  13  10   2  114.12   31.95
  13  10  -2  100.14   35.60
 -10 -13  -3    8.82    7.90
 -13 -10  -3    0.23    6.24
 -10 -13   3    6.20    8.59
 -13 -10   3    6.51    4.53
  10 -13  -3    8.36    4.78
 -10 -13  -3   11.87    7.17
  10  13   3    4.85    6.53
  10  13  -3    6.50    5.90
  13  10   3    8.54    6.27
  13  10  -3   15.75    8.01
 -10 -13  -4   17.25   12.57
 -13 -10  -4   11.99    8.71
 -10 -13   4    8.68   11.87
 -13 -10   4   29.72    9.90
  10 -13  -4   22.64    8.15
 -10 -13  -4   13.52    8.40
  10  13   4   19.90    8.98
  10  13  -4   19.49   10.45
  13  10   4   12.02    9.11
  13  10  -4   21.94   10.40
 -10 -13  -5   44.24   24.26
 -13 -10  -5   59.88   31.60
 -10 -13   5   89.50   28.94
 -13 -10   5   58.85   19.90
  10 -13  -5   58.24   32.46
 -10 -13  -5   61.66   15.18
  10  13   5   50.49   22.59
  10  13  -5   65.23   24.84
  13  10   5   66.70   23.65
  13  10  -5   73.14   32.32
 -10 -13  -6    4.61    7.47
 -13 -10  -6   12.20    8.14
 -10 -13   6   18.16    9.33
 -13 -10   6   11.05    7.74
  10 -13  -6   19.23    9.50
 -10 -13  -6   13.61    5.45
  10  13  -6    3.61    7.82
  13  10  -6   13.32   10.44
 -10 -13  -7   29.78   11.26
 -13 -10  -7   26.63   21.03
 -10 -13   7   36.84   13.97
 -13 -10   7   43.60   14.66
  10 -13  -7   18.76    8.43
 -10 -13  -7   16.63   14.64
  10  13  -7   47.02   19.96
  13  10  -7   61.34   25.15
 -11 -13   0   -0.83    6.68
 -13 -11   0   10.07    9.09
 -11 -13   0    5.75    5.40
  11  13   0    8.63    9.01
  13  11   0    7.29    5.97
 -11 -13  -1   14.17    9.35
 -13 -11  -1   19.35    9.83
 -11 -13   1    2.83   10.19
 -13 -11   1   17.30   11.84
 -11 -13  -1   12.47    5.70
 -11 -13   1    5.54    5.69
  11  13   1   22.33   10.81
  11  13  -1   11.38    8.72
  13  11   1   11.28    4.33
  13  11  -1   17.35    9.33
 -11 -13  -2   20.14   11.13
 -13 -11  -2   26.81   12.23
 -11 -13   2   19.04    8.87
 -13 -11   2   15.06    6.32
 -11 -13   2   14.72    8.48
  11  13   2   24.48   10.46
  11  13  -2   37.64   17.88
  13  11   2   39.21   10.71
  13  11  -2   23.19   10.81
 -11 -13  -3    6.32    9.19
 -13 -11  -3   10.82    9.93
 -11 -13   3   20.35   11.75
 -13 -11   3    6.79    5.38
 -11 -13  -3    6.07    3.33
  11  13   3    5.27    7.57
  11  13  -3    6.28    4.54
  13  11   3    5.64    6.95
  13  11  -3    2.91    6.63
 -11 -13  -4   16.74    9.47
 -13 -11  -4   22.90   10.77
 -11 -13   4   27.18    9.37
 -13 -11   4   21.47   11.74
 -11 -13  -4    6.75    5.10
  11  13   4   16.50   10.29
  13  11   4   24.18   13.24
  11  13  -4   21.53   10.34
  13  11  -4   26.62   17.73
 -11 -13  -5   61.31   15.47
 -13 -11  -5   32.71   21.50
 -11 -13   5   64.51   13.02
  11  13   5   26.66   17.55
  11  13  -5   72.36   22.89
  13  11  -5   63.96   25.42
 -14   0   0  154.81   36.42
   0 -14   0  198.81   37.84
   0  14   0  190.29   43.19
 -14   0  -1  327.07   33.02
 -14   0   1  322.36   16.86
   0 -14  -1  295.04   38.71
   0 -14   1  261.70   41.61
   0  14   1  327.25   50.66
   0  14  -1  331.86   27.42
 -14   0  -2   12.14    7.76
 -14   0   2    2.54    6.88
   0 -14  -2   11.25    6.86
   0  14   2   16.13    9.18
   0  14  -2   -1.45    5.60
 -14   0  -3    9.61    8.22
 -14   0   3   16.17   10.04
   0 -14  -3   25.35    8.75
   0  14   3   30.81   10.22
   0  14  -3   50.27   12.13
 -14   0  -4  254.89   29.80
 -14   0   4  233.94   48.24
   0 -14  -4  249.81   31.11
   0  14   4  270.14   50.65
   0  14  -4  286.62   45.54
 -14   0  -5  288.35   19.30
 -14   0   5  244.91   41.21
   0 -14  -5  198.65   48.01
   0  14   5  276.03   40.41
   0  14  -5  258.38   50.22
 -14   0  -6  269.24   21.47
 -14   0   6  210.58   42.59
   0 -14  -6  196.97   39.54
   0  14   6  230.61   27.79
   0  14  -6  254.65   45.83
 -14   0  -7   86.57   25.89
 -14   0   7   62.27   21.15
   0 -14  -7   81.11   26.09
   0  14   7   59.89   21.31
   0  14  -7  105.48   20.82
 -14   0  -8   75.02   19.41
 -14   0   8   44.16   10.34
   0 -14  -8   56.51   18.01
   0  14   8   76.21   20.12
   0  14  -8   75.62   18.64
 -14   0  -9   25.51   10.79
 -14   0   9   11.98    8.31
   0 -14  -9    8.25    5.44
   0  14   9   13.16    8.18
   0  14  -9   14.11   11.68
 -14   0 -10   43.83   11.84
 -14   0  10   42.12   16.86
   0 -14 -10   27.52   15.74
   0  14 -10   48.74   11.34
 -14   0 -11   83.56   20.01
 -14   0  11   70.98   30.20
   0 -14 -11   65.24   23.90
   0  14 -11  100.38   22.51
 -14   0 -12   82.96   32.20
 -14   0  12   69.03   30.19
   0 -14 -12   99.36   18.15
   0  14 -12   97.49   22.01
 -14   1   0    4.81    4.79
 -14  -1   0   17.87   10.81
   1 -14   0   22.92   12.18
  -1 -14   0   21.32   12.43
  -1  14   0   11.68    6.41
   1  14   0    7.18    8.43
 -14   1  -1  139.26   29.08
 -14  -1  -1  110.29   36.60
 -14   1   1  133.52   13.64
 -14  -1   1  145.01   14.53
   1 -14  -1  137.86   36.99
  -1 -14  -1  124.72   37.46
   1 -14   1  161.31   20.08
  -1 -14   1  159.90   27.04
  -1  14   1  158.83   27.20
  -1  14  -1  145.76   26.22
   1  14   1  146.66   32.11
   1  14  -1  160.11   28.48
 -14   1  -2   26.04    6.79
 -14  -1  -2   34.99   11.38
 -14   1   2   29.07    9.55
 -14  -1   2   28.10    9.35
   1 -14  -2   17.19    9.40
  -1 -14  -2   14.16    9.93
  -1  14   2   19.49    8.27
  -1  14  -2   20.95    8.13
   1  14  -2   35.00    9.90
 -14   1  -3  396.70   17.33
 -14  -1  -3  376.83   17.45
 -14   1   3  356.63   55.97
 -14  -1   3  332.91   59.36
   1 -14  -3  324.19   70.84
  -1 -14  -3  350.73   46.05
  -1  14   3  417.15   53.55
   1  14   3  425.21   52.51
  -1  14  -3  359.10   26.38
   1  14  -3  406.79   30.03
 -14   1  -4   17.92    9.31
 -14  -1  -4   20.65    8.72
 -14   1   4   21.48    6.97
 -14  -1   4    9.79   12.08
   1 -14  -4   26.16   10.86
  -1 -14  -4    9.07    6.50
  -1  14   4    9.93    4.27
   1  14   4   29.51   11.43
  -1  14  -4   35.82   10.04
   1  14  -4   12.26    8.53
 -14   1  -5   11.75    7.50
 -14  -1  -5    7.65    5.78
 -14   1   5    2.76    5.92
 -14  -1   5    3.34    7.92
  -1 -14  -5    7.21    9.94
  -1  14   5    3.84    4.94
   1  14   5    7.45    7.41
  -1  14  -5    7.24    4.11
   1  14  -5   11.14    8.00
 -14   1  -6   33.06   11.38
 -14  -1  -6   41.07   12.42
 -14  -1   6   37.74   11.69
 -14   1   6   24.60    6.99
   1 -14  -6   20.85    8.98
  -1 -14  -6   21.76    7.73
  -1  14   6   29.70    7.83
   1  14   6   42.63   12.08
  -1  14  -6   31.90    8.06
   1  14  -6   23.60   10.14
 -14   1  -7   82.74   22.74
 -14  -1  -7   64.20   14.66
 -14  -1   7   71.57   22.12
 -14   1   7   43.07   19.75
   1 -14  -7   75.15   19.42
  -1 -14  -7   61.57   18.39
  -1  14   7   65.18   21.39
   1  14   7   66.53   21.72
  -1  14  -7   97.24   19.96
   1  14  -7   90.40   18.08
 -14   1  -8   25.11   10.77
 -14  -1  -8   25.34    9.79
 -14   1   8   22.69    6.24
 -14  -1   8   42.23   11.86
   1 -14  -8   44.19   16.62
  -1 -14  -8   39.32   12.71
  -1  14   8   35.34    9.15
   1  14   8   37.68   12.73
  -1  14  -8   48.17   15.31
   1  14  -8   48.09   10.41
 -14   1  -9  187.06   40.48
 -14  -1  -9  180.12   44.35
 -14   1   9  164.32   52.72
 -14  -1   9  154.39   57.54
   1 -14  -9  184.59   21.58
  -1 -14  -9  131.92   26.31
  -1  14   9  140.93   37.17
   1  14   9  178.73   33.70
  -1  14  -9  178.36   39.93
   1  14  -9  189.33   39.13
 -14   1 -10    5.46    4.35
 -14  -1 -10   15.69    9.11
 -14  -1  10   14.99    7.90
   1 -14 -10    4.28    8.05
  -1 -14 -10   14.75   10.64
   1  14  10    9.26    4.01
  -1  14 -10   14.60    8.94
   1  14 -10    7.45    7.39
 -14   1 -11    1.20    5.23
 -14  -1 -11    7.96    5.82
 -14  -1  11   11.28    7.53
 -14   1  11    3.73    5.98
   1 -14 -11    3.82    7.36
  -1 -14 -11    2.25    6.77
  -1  14 -11   14.86   10.39
   1  14 -11   -0.45    2.91
 -14   1 -12    8.38    4.59
 -14  -1 -12    7.88    5.08
 -14  -1  12    9.55    6.21
 -14   1  12   12.44    5.38
   1 -14 -12   25.97   13.95
  -1 -14 -12   11.67    8.28
  -1  14 -12   14.80    7.82
   1  14 -12   10.92    7.34
 -14   2   0  101.89   37.26
 -14  -2   0  116.96   22.86
   2 -14   0  127.32   14.54
  -2 -14   0  118.39   16.49
  -2  14   0  129.07   24.16
   2  14   0  134.78   28.56
 -14   2  -1   45.00   22.54
 -14  -2  -1   80.12   20.46
 -14   2   1   69.40   10.11
 -14  -2   1   72.44   11.93
   2 -14  -1   73.12   24.19
  -2 -14  -1   59.44   19.38
   2 -14   1   97.92   19.55
  -2  14   1   80.21   19.56
  -2  14  -1   95.04   20.18
   2  14   1   90.24   20.20
   2  14  -1   68.80   22.12
 -14   2  -2   28.97    8.41
 -14  -2  -2   11.38    9.22
 -14   2   2   23.97    8.12
 -14  -2   2   48.03   12.99
   2 -14  -2   22.23    9.67
  -2 -14  -2   25.09   10.38
  -2  14   2   32.00    7.83
  -2  14  -2   39.07   11.02
   2  14   2   29.21   10.09
   2  14  -2   39.32   12.98
 -14   2  -3    9.38   12.10
 -14  -2  -3    8.90    8.55
 -14   2   3   22.74    7.58
 -14  -2   3   39.63   10.58
   2 -14  -3   23.20   10.06
  -2 -14  -3   12.87    7.53
  -2  14   3    4.08    5.52
  -2  14  -3   12.48    9.61
   2  14   3    4.56    4.92
   2  14  -3   20.24    7.97
 -14   2  -4  130.96   21.33
 -14  -2  -4  119.35   15.28
 -14   2   4  116.85   22.81
 -14  -2   4  103.50   31.60
   2 -14  -4  133.25   34.66
  -2 -14  -4   85.37   22.84
  -2  14   4  115.80   27.97
  -2  14  -4  122.03   31.55
   2  14   4  131.88   24.88
   2  14  -4  136.84   33.73
 -14   2  -5   54.61   24.00
 -14  -2  -5   76.82   22.62
 -14   2   5   65.15   19.19
 -14  -2   5   69.65   16.06
   2 -14  -5   68.88   14.63
  -2 -14  -5   69.21   16.51
  -2  14   5   87.49   19.77
   2  14   5  120.55   24.37
  -2  14  -5  106.63   25.53
   2  14  -5  111.87   27.17
 -14   2  -6   21.92   12.72
 -14  -2  -6    5.67    8.79
 -14   2   6   15.23    6.57
 -14  -2   6   15.69    8.52
   2 -14  -6   24.40   11.08
  -2 -14  -6   42.18   11.41
  -2  14   6   16.72   10.89
   2  14   6   26.36    7.28
  -2  14  -6   31.55    7.44
   2  14  -6   33.17    8.34
 -14   2  -7   75.05   26.39
 -14  -2  -7   44.27   16.63
 -14   2   7   70.21   18.70
 -14  -2   7   56.92   18.20
   2 -14  -7   63.21   13.39
  -2 -14  -7   68.50   23.77
  -2  14   7   68.37   18.22
   2  14   7   66.65   18.02
  -2  14  -7   87.76   21.75
   2  14  -7   91.70   17.90
 -14   2  -8   56.73   15.46
 -14  -2  -8   60.63   16.35
 -14  -2   8   39.04   20.31
 -14   2   8   37.79   12.45
   2 -14  -8   31.35   15.45
  -2 -14  -8   31.85   13.31
  -2  14   8   28.23    7.97
   2  14   8   36.23   11.26
  -2  14  -8   65.95   18.55
   2  14  -8   38.99   15.25
 -14   2  -9   45.20   13.11
 -14  -2  -9   48.17   16.28
 -14  -2   9   39.78   12.89
 -14   2   9   37.25   13.83
   2 -14  -9   43.92   15.70
  -2 -14  -9   53.21   15.70
   2  14   9   50.02   12.47
  -2  14  -9   50.58   15.73
   2  14  -9   60.53   15.69
 -14   2 -10   87.90   34.29
 -14  -2 -10   95.29   24.39
 -14  -2  10  117.30   33.99
 -14   2  10   89.37   22.90
   2 -14 -10   85.79   29.70
  -2 -14 -10   80.52   27.34
   2  14  10   71.48   19.37
  -2  14 -10  115.79   30.68
   2  14 -10  121.09   28.65
 -14   2 -11   42.45   21.40
 -14  -2 -11   61.03   23.38
 -14  -2  11   72.04   19.04
 -14   2  11   41.65   22.97
   2 -14 -11   60.73   17.28
  -2 -14 -11   46.07   28.87
  -2  14 -11   78.09   20.20
   2  14 -11   94.62   29.17
 -14   2 -12   73.23   19.79
 -14  -2 -12   50.93   36.04
 -14  -2  12   77.57   20.30
 -14   2  12   50.90   30.16
   2 -14 -12   51.20   22.79
  -2 -14 -12   58.49   19.04
  -2  14 -12   50.05   14.91
   2  14 -12   70.00   16.83
 -14   3   0   73.66   25.05
 -14  -3   0  100.34   14.07
   3 -14   0  101.11   28.52
  -3 -14   0  126.82   15.61
  -3  14   0  141.14   25.14
   3  14   0  114.23   30.06
 -14   3  -1   44.55   14.41
 -14  -3  -1   63.10   19.34
 -14   3   1   54.09   14.54
 -14  -3   1   26.23   15.02
   3 -14  -1   51.10   12.52
  -3 -14  -1   48.78   16.30
   3 -14   1   46.78   13.70
  -3  14   1   66.84   18.71
  -3  14  -1   49.96   12.90
   3  14   1   62.69   15.82
   3  14  -1   49.36   12.11
 -14   3  -2   33.01    9.82
 -14  -3  -2   23.36    6.07
 -14   3   2   25.11    6.47
 -14  -3   2   27.38   11.50
   3 -14  -2   27.38    7.57
  -3 -14  -2   30.51   10.45
   3 -14   2   43.52   11.15
  -3  14   2   35.05   11.06
  -3  14  -2   25.74   11.00
   3  14   2   40.98   13.39
   3  14  -2   47.39   13.06
 -14   3  -3  119.94   17.81
 -14  -3  -3   97.82   16.35
 -14   3   3   75.00   20.92
 -14  -3   3  101.17   27.62
   3 -14  -3   76.39   18.63
  -3 -14  -3   65.95   28.53
  -3  14   3  116.74   24.29
  -3  14  -3   98.16   16.96
   3  14   3  100.75   24.17
   3  14  -3  112.62   23.75
 -14   3  -4   39.13   10.56
 -14  -3  -4   27.24    8.71
 -14   3   4   21.84    6.22
 -14  -3   4   43.27   18.65
   3 -14  -4   21.26    9.42
  -3 -14  -4   30.30    8.04
  -3  14   4   33.63    8.52
  -3  14  -4   29.65    8.47
   3  14   4   31.38    7.34
   3  14  -4   46.80   11.71
 -14   3  -5   11.38    6.94
 -14  -3  -5    9.44    9.46
 -14   3   5   22.19    7.10
 -14  -3   5   12.02   10.04
   3 -14  -5    9.61    7.18
  -3 -14  -5   22.97    9.09
  -3  14   5   21.54   10.79
  -3  14  -5   18.32    6.64
   3  14   5   19.97    6.48
   3  14  -5    8.80    7.33
 -14   3  -6  200.55   42.29
 -14  -3  -6  185.15   22.39
 -14   3   6  122.58   38.73
 -14  -3   6  149.59   48.94
   3 -14  -6  143.76   32.92
  -3 -14  -6  194.96   44.57
  -3  14   6  204.90   24.66
  -3  14  -6  182.50   39.86
   3  14   6  170.39   37.34
   3  14  -6  168.15   47.70
 -14   3  -7   89.31   23.45
 -14  -3  -7   66.17   36.20
 -14   3   7  101.15   33.43
 -14  -3   7   84.39   27.09
   3 -14  -7   66.76   23.14
  -3 -14  -7   88.46   25.17
  -3  14   7   86.83   20.21
   3  14   7  104.23   21.39
  -3  14  -7  118.19   23.42
   3  14  -7   95.98   24.63
 -14   3  -8   69.10   15.53
 -14  -3  -8   47.49   15.17
 -14  -3   8   44.26   15.04
 -14   3   8   22.15    9.75
   3 -14  -8   14.16    8.23
   3  14   8   25.73   10.03
  -3  14  -8   52.17   15.76
   3  14  -8   17.65    9.59
 -14   3  -9  107.87   26.06
 -14  -3  -9  110.65   32.60
 -14  -3   9   89.31   30.96
 -14   3   9   80.03   33.23
   3 -14  -9  116.41   23.48
  -3 -14  -9  101.56   28.38
   3  14   9   99.14   22.96
  -3  14  -9  107.26   22.11
   3  14  -9   95.49   33.18
 -14   3 -10    2.36    3.63
 -14  -3 -10   18.85    8.58
 -14  -3  10   11.63   10.15
 -14   3  10   15.61    7.96
   3 -14 -10   18.27    9.55
  -3 -14 -10    8.71   10.43
  -3  14 -10    7.83    6.72
   3  14 -10    7.96    8.41
 -14   3 -11   16.68    9.98
 -14  -3 -11    9.95    6.22
 -14  -3  11    5.52    6.79
 -14   3  11    6.04    6.33
   3 -14 -11    5.83    7.76
  -3 -14 -11    9.95    9.19
  -3  14 -11    5.40    5.79
   3  14 -11   19.95   10.12
 -14   3 -12   28.19   19.26
 -14  -3 -12   43.82   15.77
 -14  -3  12   24.67   11.42
 -14   3  12   47.05   17.62
   3 -14 -12   33.89   21.79
  -3 -14 -12   37.09   20.89
  -3  14 -12   45.80   18.65
   3  14 -12   43.63   22.46
  -4 -14   0    2.74    2.28
 -14   4   0   11.45    5.82
 -14  -4   0    8.90    6.73
   4 -14   0   -0.76    6.90
  -4 -14   0    3.57    7.22
  -4  14   0   19.01   11.36
   4  14   0    8.50    5.42
 -14   4  -1   83.49   18.13
  -4 -14   1   42.62   19.41
 -14   4   1   56.23   15.63
 -14  -4  -1   75.58   22.90
 -14  -4   1   96.50   12.35
   4 -14  -1   69.60   26.72
  -4 -14  -1   81.07   22.14
   4 -14   1   98.85   10.88
  -4  14  -1  109.95   21.93
   4  14   1  112.93   20.80
   4  14  -1   97.29   23.52
 -14   4  -2   57.76   18.06
 -14  -4  -2   53.20   16.91
  -4 -14   2   32.72   14.88
 -14   4   2   54.25   13.51
 -14  -4   2   81.24   25.81
   4 -14  -2   65.97   20.40
  -4 -14  -2   50.96   20.65
   4 -14   2   85.47   22.08
  -4  14   2   79.73   16.62
  -4  14  -2   80.85   19.38
   4  14   2   51.51   14.19
   4  14  -2  108.43   30.37
  -4 -14  -3   25.48    8.59
 -14   4  -3   20.58    7.34
 -14  -4  -3   18.50    9.78
  -4 -14   3   19.75    5.60
 -14   4   3   16.23    6.74
 -14  -4   3   25.14    9.42
   4 -14  -3   26.96   10.66
  -4 -14  -3   29.26    9.45
  -4  14   3   29.66    9.74
  -4  14  -3   30.89   10.70
   4  14   3   49.86   12.31
   4  14  -3   28.25   11.13
  -4 -14  -4   11.58    4.05
 -14   4  -4    9.00   11.19
  -4 -14   4   -0.30    3.69
 -14   4   4    6.44    7.28
 -14  -4   4    4.54    3.70
   4 -14  -4    7.76    6.64
  -4 -14  -4   17.87    7.37
  -4  14   4    7.50    7.42
  -4  14  -4   19.60    8.08
   4  14   4    7.73    3.81
   4  14  -4   11.81   10.79
 -14   4  -5  166.45   30.80
 -14  -4  -5  125.74   41.15
 -14   4   5  132.21   33.37
 -14  -4   5  119.34   43.84
   4 -14  -5  115.94   31.68
  -4 -14  -5  153.88   35.22
  -4  14   5  169.34   43.23
  -4  14  -5  148.76   31.65
   4  14   5  184.42   35.56
   4  14  -5  165.85   45.45
  -4 -14  -6    7.86    3.08
 -14   4  -6    5.95    4.86
 -14  -4  -6   19.39    9.88
  -4 -14   6    8.80    4.50
 -14   4   6   10.77    5.91
 -14  -4   6   10.65    6.79
   4 -14  -6   13.73    9.66
  -4 -14  -6   11.05    7.01
  -4  14   6    8.60    6.96
  -4  14  -6   17.91    8.88
   4  14   6   12.89    7.99
   4  14  -6   13.46    8.71
 -14   4  -7   88.27   17.27
 -14  -4  -7  123.87   15.64
 -14   4   7   84.40   29.32
 -14  -4   7   74.00   22.30
   4 -14  -7   81.69   29.95
  -4 -14  -7   63.25   24.84
  -4  14  -7  102.05   32.00
   4  14   7   83.47   26.32
   4  14  -7  101.00   26.18
 -14   4  -8   50.84   16.75
 -14  -4  -8   51.44   19.09
 -14  -4   8   70.62   20.88
 -14   4   8   48.93   14.41
   4 -14  -8   53.46   15.58
  -4 -14  -8   48.68   17.78
  -4  14  -8   64.05   21.22
   4  14   8   72.11   23.05
   4  14  -8   73.05   18.19
 -14   4  -9   38.20   13.61
 -14  -4   9   44.09   10.84
 -14   4   9   40.04   10.88
   4 -14  -9   37.29   20.24
  -4 -14  -9   32.76   15.28
   4  14   9   41.65   12.53
  -4  14  -9   48.46   10.57
   4  14  -9   45.12   16.13
 -14   4 -10   16.74    5.46
 -14  -4 -10    9.94    8.85
 -14  -4  10    6.62    6.78
 -14   4  10    2.58    4.60
   4 -14 -10    9.31    8.40
  -4 -14 -10   11.26    8.80
  -4  14 -10   12.89    6.71
   4  14 -10    6.26    7.35
 -14   4 -11   57.10   20.51
 -14  -4 -11   52.74   12.91
 -14  -4  11   51.80   24.94
 -14   4  11   62.48   19.00
   4 -14 -11   55.64   26.47
  -4 -14 -11   48.40   25.85
  -4  14 -11   83.76   21.81
   4  14 -11   92.75   27.03
  -5 -14   0   69.18   24.90
 -14   5   0  107.69    9.74
 -14  -5   0  107.81   21.15
   5 -14   0  108.49   27.67
  -5 -14   0   74.70   25.35
  -5  14   0  115.60   28.21
   5  14   0   91.98   24.43
  -5 -14  -1    4.94    3.82
 -14   5  -1    6.89    5.93
  -5 -14   1    2.92    3.41
 -14   5   1    8.49    5.08
 -14  -5  -1    9.60    7.37
 -14  -5   1   10.19    7.19
   5 -14  -1    5.08    4.72
   5 -14   1    8.79    6.06
  -5 -14  -1    7.26    7.11
  -5 -14   1   10.86    4.87
  -5  14   1    0.96    6.65
  -5  14  -1   10.26    6.74
   5  14   1    6.17    4.95
   5  14  -1   -0.20    6.05
  -5 -14  -2   81.00   28.10
 -14   5  -2   79.65   27.05
 -14  -5  -2   86.28   43.36
  -5 -14   2   64.08   30.41
 -14   5   2  108.01   34.92
 -14  -5   2  109.42   31.31
   5 -14  -2  128.37   26.72
  -5 -14  -2  105.27   32.05
   5 -14   2  114.65   28.96
  -5  14   2  130.05   34.42
  -5  14  -2  161.08   38.88
   5  14   2  153.26   30.46
   5  14  -2  128.95   24.71
  -5 -14  -3   21.11   13.42
 -14   5  -3   34.49   12.94
 -14  -5  -3   19.14    7.54
  -5 -14   3   19.45    5.56
 -14   5   3   15.30    6.50
 -14  -5   3   40.55    8.58
   5 -14  -3   31.24   14.40
  -5 -14  -3   39.29   16.04
  -5  14   3   56.07   12.29
  -5  14  -3   39.83   12.86
   5  14   3   55.60   13.23
  -5 -14  -4  115.24   33.59
 -14   5  -4  106.46   27.63
 -14  -5  -4  126.83   27.45
  -5 -14   4   87.82   31.06
 -14   5   4  114.54   29.48
 -14  -5   4  110.19   24.11
   5 -14  -4  122.51   33.46
  -5 -14  -4  108.30   40.09
  -5  14   4  136.91   28.79
  -5  14  -4  163.96   23.81
   5  14   4  141.12   29.81
   5  14  -4  102.86   35.83
  -5 -14  -5    9.55    4.05
 -14   5  -5    8.58    5.49
 -14  -5  -5   14.61    5.80
 -14   5   5    7.45    5.13
  -5 -14   5    8.17    5.52
 -14  -5   5    5.62    6.32
   5 -14  -5   13.87    6.50
  -5 -14  -5   10.56   10.15
  -5  14   5   15.06    8.33
  -5  14  -5   17.10    5.88
   5  14   5    4.85    5.03
   5  14  -5   11.56    7.84
  -5 -14  -6   35.40   12.74
 -14   5  -6   43.00   14.25
 -14  -5  -6   56.17   12.20
  -5 -14   6   21.90   10.35
 -14   5   6   33.45   15.32
 -14  -5   6   49.99   15.55
   5 -14  -6   39.72   11.15
  -5 -14  -6   35.21   18.56
  -5  14  -6   49.71   14.55
   5  14   6   37.58   12.04
   5  14  -6   46.88   17.11
  -5 -14  -7   11.08    4.73
 -14   5  -7   17.51    5.89
 -14  -5  -7   15.70    7.91
  -5 -14   7    9.91    5.28
 -14   5   7   13.67    5.73
   5 -14  -7   10.40    6.77
  -5 -14  -7    8.36    6.47
  -5  14  -7   15.76    7.35
   5  14   7   16.15    7.15
   5  14  -7   11.32    5.39
  -5 -14  -8   29.19    9.68
 -14   5  -8   29.36    9.00
 -14  -5  -8   50.45   13.15
  -5 -14   8   44.55   11.74
 -14   5   8   39.68   14.56
 -14  -5   8   32.83   11.26
   5 -14  -8   61.75   14.42
  -5 -14  -8   42.12   16.79
  -5  14  -8   53.95   18.02
   5  14   8   39.61   12.55
   5  14  -8   57.11   21.93
 -14   5  -9   34.46   11.25
 -14  -5  -9   55.49   18.76
 -14  -5   9   42.53   13.08
 -14   5   9   49.21   15.61
  -5 -14   9   35.38   12.42
   5 -14  -9   37.76   13.79
  -5 -14  -9   30.43   13.80
  -5  14  -9   49.84   17.30
   5  14  -9   52.23   17.77
  -5 -14 -10   36.64   15.29
 -14   5 -10   42.67   18.14
  -5 -14  10   57.84   17.09
 -14   5  10   45.20   11.02
   5 -14 -10   52.87   19.15
  -5 -14 -10   54.16   20.60
  -5  14 -10   61.82   19.09
   5  14 -10   75.22   16.73
  -5 -14 -11    2.97    2.78
 -14   5 -11    6.89    4.50
 -14  -5 -11   12.87    9.00
 -14  -5  11    2.49    5.04
 -14   5  11    9.36    4.68
  -5 -14  11   12.19    8.07
   5 -14 -11   10.11    7.81
  -5 -14 -11    4.99    8.71
  -5  14 -11    6.42    7.18
   5  14 -11   10.65   10.03
 -14  -6   0   27.25    7.76
   6 -14   0   18.60    8.10
  -6 -14   0   27.08   12.67
  -6  14   0   34.67   13.04
   6  14   0   23.00   10.23
  -6 -14  -1   55.59   17.39
  -6 -14   1   35.12   14.46
 -14  -6  -1   56.97   15.27
 -14  -6   1   70.44   10.67
   6 -14  -1   38.70   16.35
   6 -14   1   65.49   17.48
  -6 -14  -1   54.68   19.92
  -6 -14   1   38.22   18.76
  -6  14   1   70.10   20.94
  -6  14  -1   47.76   12.14
   6  14   1   54.95   20.75
   6  14  -1   62.27   20.53
  -6 -14  -2  185.31   15.40
 -14  -6  -2  157.10   47.54
  -6 -14   2  138.56   45.71
 -14  -6   2  122.81   47.07
   6 -14  -2  155.34   40.38
  -6 -14  -2  151.45   44.41
   6 -14   2  139.78   35.30
  -6  14   2  166.79   31.37
  -6  14  -2  184.10   32.02
   6  14   2  169.23   41.96
   6  14  -2  177.54   43.12
  -6 -14  -3    6.23    7.47
 -14  -6  -3    4.62    7.90
  -6 -14   3    3.40    4.33
 -14  -6   3    5.33    6.06
   6 -14  -3    2.99    4.04
  -6 -14  -3   10.59    6.33
  -6  14   3    6.20    7.23
  -6  14  -3   12.41    5.33
   6  14   3    8.47    3.21
   6  14  -3    7.92    6.21
  -6 -14  -4   88.19   24.50
 -14  -6  -4   91.08   33.46
  -6 -14   4   85.61   25.70
 -14  -6   4  101.82   31.59
   6 -14  -4  103.48   28.63
  -6 -14  -4   74.22   29.65
   6 -14   4  112.92   16.92
  -6  14  -4  137.86   28.96
   6  14   4  161.85   29.30
   6  14  -4  100.53   27.28
  -6 -14  -5  103.63   30.81
 -14  -6  -5   85.43   37.14
  -6 -14   5   58.67   23.43
 -14  -6   5   96.24   33.99
   6 -14  -5   72.26   27.71
  -6 -14  -5   89.78   29.83
  -6  14  -5   96.07   19.78
   6  14   5  118.05   23.20
   6  14  -5  103.43   27.68
  -6 -14  -6   26.98    7.10
 -14  -6  -6   69.55   12.19
  -6 -14   6   25.86    9.55
 -14  -6   6   48.08   15.07
   6 -14  -6   40.98   13.09
  -6 -14  -6   34.15   17.44
  -6  14  -6   45.55   13.31
   6  14   6   54.33   14.05
   6  14  -6   56.59   18.62
  -6 -14  -7   50.92   13.28
 -14  -6  -7   43.05   13.98
  -6 -14   7   44.63   15.44
 -14  -6   7   53.41   10.88
   6 -14  -7   55.62   20.07
  -6 -14  -7   72.03   23.65
  -6  14  -7   57.71   16.91
   6  14   7   56.13   16.04
   6  14  -7   61.22   16.47
  -6 -14  -8   37.20   14.07
 -14  -6  -8   38.40   14.47
  -6 -14   8   28.37   18.63
 -14  -6   8   45.21   17.22
   6 -14  -8   41.49   19.17
  -6 -14  -8   37.01   14.40
  -6  14  -8   51.60   16.41
   6  14  -8   85.83   12.84
  -6 -14  -9    2.93    2.23
 -14  -6  -9    4.55    5.95
 -14  -6   9    7.60    8.08
  -6 -14   9   11.47    6.65
   6 -14  -9    4.19    7.70
  -6 -14  -9   13.32    7.82
  -6  14  -9   13.06   10.57
   6  14  -9   18.54    9.30
  -6 -14 -10   24.09    8.79
 -14  -6 -10   25.86   10.69
 -14  -6  10   50.44   17.40
  -6 -14  10   33.63    9.86
   6 -14 -10   45.08   19.31
  -6 -14 -10   34.67   15.89
  -6  14 -10   39.12   15.88
   6  14 -10   42.37   17.22
  -7 -14   0   57.93    9.14
 -14  -7   0   57.15   12.87
   7 -14   0   54.16   24.28
  -7 -14   0   55.49   20.86
  -7  14   0   49.26   12.57
   7  14   0   54.56   18.89
  -7 -14  -1    6.62    5.85
  -7 -14   1    9.60    6.12
 -14  -7  -1   11.83    7.97
 -14  -7   1   19.03   11.41
   7 -14  -1   16.03    8.55
   7 -14   1   15.24    8.72
  -7 -14  -1   14.43    8.07
  -7 -14   1   22.91    9.96
  -7  14   1   25.48    9.09
  -7  14  -1   23.39    7.03
   7  14   1   20.23    7.57
   7  14  -1   31.95   13.17
  -7 -14  -2   44.81   13.18
 -14  -7  -2   54.54   12.93
  -7 -14   2   57.13   19.52
 -14  -7   2   40.10   11.90
   7 -14  -2   73.35   12.78
   7 -14   2   72.98   11.81
  -7  14  -2   78.97   19.16
   7  14   2   69.52   24.74
   7  14  -2   63.06   20.45
  -7 -14  -3   69.36   10.66
 -14  -7  -3   40.67   23.22
  -7 -14   3   33.91   19.29
 -14  -7   3   45.62   14.99
   7 -14  -3   66.56   15.53
  -7 -14  -3   58.94   13.16
   7 -14   3   58.87   20.85
   7  14   3   57.53   19.32
   7  14  -3   67.49   19.49
  -7 -14  -4   48.28   21.96
 -14  -7  -4   85.99   27.52
  -7 -14   4   52.22   20.19
 -14  -7   4   62.78   23.65
   7 -14  -4   95.56   29.30
  -7 -14  -4   41.76   19.42
   7 -14   4   84.04   21.41
  -7  14  -4   83.62   23.31
   7  14   4  106.37   23.90
   7  14  -4   82.77   21.33
  -7 -14  -5    9.08    5.82
 -14  -7  -5   23.96   12.13
  -7 -14   5   12.36    4.91
 -14  -7   5   18.33    9.80
   7 -14  -5   21.27    7.53
  -7 -14  -5   11.84    9.32
  -7  14  -5   25.72    9.05
   7  14   5   15.56    8.12
   7  14  -5    6.80    6.25
  -7 -14  -6  106.95   35.61
 -14  -7  -6  183.39   20.16
  -7 -14   6   71.34   31.05
 -14  -7   6  105.79   40.01
   7 -14  -6   91.51   38.12
  -7 -14  -6  103.59   24.63
  -7  14  -6  126.04   34.52
   7  14   6  161.00   35.49
   7  14  -6  135.39   20.22
  -7 -14  -7   21.03    9.86
 -14  -7  -7   21.12    8.86
  -7 -14   7   10.64    6.00
 -14  -7   7   24.66   10.20
   7 -14  -7   20.98   10.30
  -7 -14  -7    8.82    7.37
  -7  14  -7   22.95    6.62
   7  14   7    5.32    3.57
   7  14  -7   24.06   11.82
  -7 -14  -8   28.78    9.62
 -14  -7  -8   38.35    9.36
  -7 -14   8   17.07    7.99
 -14  -7   8   44.67   12.37
   7 -14  -8    8.41   10.89
  -7 -14  -8   24.16   14.48
  -7  14  -8   40.29   18.71
   7  14  -8   40.49   18.35
  -7 -14  -9   22.20    9.36
 -14  -7  -9   27.81   14.27
  -7 -14   9   24.55    9.43
 -14  -7   9   19.51   11.80
   7 -14  -9   23.85    9.59
  -7 -14  -9   20.96   10.12
  -7  14  -9   44.27   19.59
   7  14  -9   13.29    8.77
  -8 -14   0   88.63   35.33
 -14  -8   0  110.72   34.17
   8 -14   0  136.05   31.83
  -8 -14   0  144.09   15.05
   8  14   0  172.21   44.00
  -8 -14  -1    4.87    5.33
 -14  -8  -1   18.57    7.34
  -8 -14   1    7.91    7.78
 -14  -8   1   12.71    7.66
   8 -14  -1   15.83    8.68
   8 -14   1   10.54    7.38
  -8 -14  -1   -1.11    7.09
  -8 -14   1    6.06    5.83
   8  14   1    2.63    5.76
   8  14  -1   25.93    7.76
 -14  -8  -2   41.60   10.11
  -8 -14   2   34.19   10.63
 -14  -8   2   30.87   16.19
   8 -14  -2   35.58   14.18
  -8 -14  -2   20.70   10.86
   8 -14   2   41.29   10.75
  -8  14  -2   50.14   18.64
   8  14   2   29.89   22.70
   8  14  -2   29.11    8.69
  -8 -14  -3   11.78    7.72
 -14  -8  -3    5.91    4.50
  -8 -14   3    6.03    5.52
 -14  -8   3   10.94    7.49
   8 -14  -3   10.84    8.00
  -8 -14  -3    4.30    6.92
   8 -14   3   -3.76    4.47
  -8  14  -3   13.04    8.78
   8  14   3    3.55    5.52
   8  14  -3   11.98    6.03
  -8 -14  -4   28.19   11.61
 -14  -8  -4   45.71    9.92
  -8 -14   4   31.27   11.50
 -14  -8   4   48.35   11.39
   8 -14  -4   34.73   15.04
   8 -14   4   35.90   12.70
  -8  14  -4   40.50   12.74
   8  14   4   47.44   15.80
   8  14  -4   50.87   13.15
  14   8   4   33.74   13.26
  -8 -14  -5    7.07    4.95
 -14  -8  -5   24.65   10.73
  -8 -14   5   11.28    7.59
 -14  -8   5   21.66    7.00
  -8 -14  -5   10.03    7.91
   8 -14   5   15.16    5.34
  -8  14  -5   15.86    9.89
   8  14   5   36.52    8.24
   8  14  -5   14.25    6.22
  14   8   5    4.98    7.13
  -8 -14  -6  103.79   28.28
 -14  -8  -6   93.91   12.64
  -8 -14   6   76.36   22.88
 -14  -8   6   83.70   30.65
   8 -14  -6   98.52   31.71
  -8 -14  -6   80.98   27.52
  -8  14  -6  132.87   24.72
   8  14   6  128.86   23.63
   8  14  -6  112.97   41.61
  -8 -14  -7   -0.11    4.04
 -14  -8  -7    6.07    7.91
  -8 -14   7    3.15    4.88
 -14  -8   7   13.37    7.48
   8 -14  -7   -1.07    5.25
  -8 -14  -7   10.73    8.77
  -8  14  -7   14.19    6.89
   8  14  -7    7.74    7.58
 -14  -8  -8   31.93   14.94
 -14  -8   8   34.27   12.52
   8 -14  -8   47.63   21.30
  -8 -14  -8   48.73   15.64
  -8  14  -8   36.43   11.55
   8  14  -8   37.06   18.62
  -9 -14   0   28.27   13.99
 -14  -9   0   67.27   17.68
   9 -14   0   55.67   21.28
  -9 -14   0   41.34   20.10
   9  14   0   73.48   27.15
  -9 -14  -1    3.52    6.82
 -14  -9  -1   34.86   13.21
  -9 -14   1   12.91    7.67
 -14  -9   1   27.22   14.45
   9 -14  -1   10.70   11.04
   9 -14   1   10.77    6.86
  -9 -14  -1   16.96    8.46
  -9 -14   1   25.52    9.39
   9  14  -1    8.81    7.70
  14   9   1   19.87   15.97
  -9 -14  -2   16.59    7.92
 -14  -9  -2   15.71    7.44
  -9 -14   2   18.35    8.64
 -14  -9   2   15.70    7.35
   9 -14  -2   13.91    5.74
   9 -14   2    9.00    4.47
  -9 -14  -2   13.53    6.12
  -9 -14   2   18.67    7.02
   9  14   2   16.14   11.79
   9  14  -2   31.21   12.97
  14   9   2   14.58    8.08
  -9 -14  -3   51.43   29.72
 -14  -9  -3   60.18   21.49
  -9 -14   3   79.99   13.17
 -14  -9   3   51.09   28.49
   9 -14  -3   73.39   23.16
  -9 -14  -3   49.83   16.06
   9 -14   3   80.39   27.40
   9  14   3   68.72   31.12
   9  14  -3   91.99   35.42
  14   9   3   62.68   22.41
  -9 -14  -4   30.56   15.14
 -14  -9  -4   29.56   11.91
 -14  -9   4   14.41    7.40
   9 -14  -4   31.52   14.01
  -9 -14  -4   32.03   11.28
   9 -14   4   27.06    6.85
   9  14   4   25.11   14.78
   9  14  -4   46.37   15.38
  14   9   4   18.95   12.17
  -9 -14  -5   12.14    5.33
 -14  -9  -5    2.22    6.52
  -9 -14   5   14.19    5.86
 -14  -9   5   12.47    8.07
   9 -14  -5    5.73    4.51
  -9 -14  -5   10.29    7.50
   9 -14   5   -0.17    4.46
   9  14   5    1.35    2.95
   9  14  -5   12.20    9.19
  -9 -14  -6  114.55   38.16
 -14  -9  -6   85.48   40.99
  -9 -14   6   84.07   37.69
 -14  -9   6   96.75   12.41
   9 -14  -6   84.39   30.90
  -9 -14  -6  114.87   46.95
   9  14   6  132.67   31.06
   9  14  -6  149.37   34.00
 -10 -14   0   25.83    8.58
 -14 -10   0   34.99   10.94
  10  14   0   35.74   14.68
  14  10   0   27.26   16.46
 -10 -14  -1   12.25    7.15
 -14 -10  -1   30.03   16.00
 -10 -14   1   13.04    6.23
 -14 -10   1   36.48   14.05
 -10 -14   1   16.74    5.16
  10  14   1   24.69   10.16
  10  14  -1    5.00    7.44
  14  10   1   11.46    8.49
  14  10  -1   31.91   13.33
 -14 -10  -2   21.75   10.54
 -10 -14   2   20.34    7.63
 -14 -10   2   21.52   12.02
 -10 -14  -2   12.54    6.37
 -10 -14   2   17.45   10.48
  10  14   2   12.62    8.79
  10  14  -2   18.65    9.04
  14  10   2   13.22    7.40
  14  10  -2   19.81   13.73
 -10 -14  -3    8.30    5.69
 -14 -10  -3   12.13   10.72
 -10 -14   3   11.15    8.05
 -14 -10   3   16.15    9.06
  10 -14  -3    4.08    2.81
 -10 -14  -3    7.50    5.19
  10  14   3   14.16    5.12
  10  14  -3    0.97    7.54
  14  10   3    7.67    5.40
  14  10  -3    9.55    8.87
 -10 -14  -4   16.44    9.57
 -14 -10  -4   20.56   11.00
 -14 -10   4   26.12   15.99
  10 -14  -4   26.47    8.60
  10  14   4    5.67    9.83
  10  14  -4   10.95   12.97
  14  10   4   30.03   10.03
  14  10  -4   20.32   13.17
 -15   0   0   14.35   10.05
   0 -15   0    5.16    7.60
   0  15   0   10.05    7.50
 -15   0  -1   47.74   17.23
 -15   0   1   57.63   16.78
   0 -15  -1   22.61    8.58
   0 -15   1   49.47    9.65
   0  15   1   63.73   21.99
   0  15  -1   41.53   12.50
 -15   0  -2  338.46   19.12
 -15   0   2  370.11   18.79
   0 -15  -2  238.82   56.85
   0  15   2  283.83   59.39
   0  15  -2  355.49   59.27
 -15   0  -3   30.13   10.81
 -15   0   3   30.72    8.90
   0 -15  -3   28.53    9.70
   0  15   3   52.17   15.22
   0  15  -3   63.44   16.72
 -15   0  -4    6.31    4.87
 -15   0   4   15.74    8.19
   0 -15  -4    7.49    8.61
   0  15   4   18.04    5.53
   0  15  -4   10.71    6.14
 -15   0  -5    2.65   11.82
 -15   0   5   11.21    8.80
   0 -15  -5   28.31   11.49
   0  15   5   14.21    5.52
   0  15  -5   13.88    7.49
 -15   0  -6   55.10   25.38
 -15   0   6   61.57   17.42
   0 -15  -6   60.71   19.55
   0  15   6   52.94   20.73
   0  15  -6   53.74   10.89
 -15   0  -7    5.53    4.96
 -15   0   7    4.34    4.40
   0 -15  -7    2.58    8.46
   0  15   7    6.91    4.27
   0  15  -7    4.42    5.94
 -15   0  -8   16.94    9.60
 -15   0   8   11.29    5.02
   0 -15  -8   27.41   11.93
   0  15   8    3.00    5.55
   0  15  -8   20.56   10.31
 -15   0  -9   21.98   12.59
 -15   0   9    6.01    6.69
   0 -15  -9   15.13    7.23
   0  15   9   38.81    9.82
   0  15  -9   25.82    9.73
 -15   0 -10  166.16   42.62
 -15   0  10  127.02   55.58
   0 -15 -10  149.25   46.87
   0  15  10   93.56   40.52
   0  15 -10  201.36   44.50
 -15   1   0   32.36   10.49
 -15  -1   0   17.14    8.06
   1 -15   0   51.09   17.76
  -1 -15   0   31.74   13.06
  -1  15   0   41.07   15.25
   1  15   0   48.96   15.90
 -15   1  -1  109.24   44.47
 -15  -1  -1  146.36   14.24
 -15   1   1  121.26   19.94
 -15  -1   1  143.77   25.68
  -1 -15  -1  119.64   41.91
   1 -15   1  132.35   31.09
  -1 -15   1  141.89   33.82
  -1  15   1  168.68   30.28
  -1  15  -1  139.58   30.83
   1  15   1  136.08   27.74
 -15   1  -2   22.30   16.25
 -15  -1  -2   15.45   11.12
 -15   1   2   38.74   10.14
 -15  -1   2   24.83    9.57
  -1 -15  -2   30.84   14.62
   1 -15   2   39.58   18.01
  -1  15   2   51.41   13.57
  -1  15  -2   36.32   10.01
   1  15   2   34.35   10.56
   1  15  -2   35.62    8.18
 -15   1  -3   65.20   15.04
 -15  -1  -3   68.28   26.64
 -15   1   3   59.17   18.83
 -15  -1   3   92.44   16.71
  -1 -15  -3   71.20   14.79
  -1  15   3   84.63   18.58
   1  15   3   84.75   21.22
  -1  15  -3   69.31   17.49
   1  15  -3   91.72   21.76
 -15   1  -4   30.14   14.63
 -15  -1  -4   16.30    9.71
 -15   1   4   23.61   10.05
 -15  -1   4   27.88   10.85
   1 -15  -4   12.85    8.12
  -1 -15  -4   35.49   15.91
  -1  15   4   25.58    8.94
   1  15   4   14.52    8.24
  -1  15  -4   20.04    9.77
   1  15  -4   15.80    7.11
 -15   1  -5   68.07   12.85
 -15  -1  -5   72.59   15.54
 -15   1   5   53.51   24.02
 -15  -1   5   68.66   24.46
   1 -15  -5   85.25   20.29
  -1 -15  -5   57.48   28.35
  -1  15   5   71.50   21.73
   1  15   5   78.87   24.00
  -1  15  -5   70.81   21.46
   1  15  -5   84.09   19.82
 -15   1  -6  186.88   32.91
 -15  -1  -6  165.27   31.70
 -15   1   6  168.96   45.32
 -15  -1   6  161.10   33.60
   1 -15  -6  140.02   38.84
  -1 -15  -6  138.38   36.23
  -1  15   6  148.94   43.96
   1  15   6  196.52   34.20
  -1  15  -6  198.75   35.32
   1  15  -6  165.84   37.78
 -15   1  -7   30.65   12.91
 -15  -1  -7   27.25   10.82
 -15  -1   7   35.64   13.94
 -15   1   7   14.90    7.27
   1 -15  -7   15.75    6.40
  -1 -15  -7   15.41    8.55
  -1  15   7   15.47    4.85
   1  15   7   18.77    7.51
  -1  15  -7   20.77   10.37
   1  15  -7   30.21    7.71
 -15   1  -8    9.04    7.57
 -15  -1  -8   12.30    7.27
 -15  -1   8    7.18    7.98
 -15   1   8   14.53   10.34
   1 -15  -8   -0.70    7.55
  -1 -15  -8    2.92    8.45
  -1  15   8    3.10    3.24
   1  15   8    5.31    3.64
  -1  15  -8   18.12    6.08
   1  15  -8   -0.42    6.48
 -15   1  -9   15.37    8.43
 -15  -1  -9   12.32    7.26
 -15   1   9    6.86    4.24
 -15  -1   9   12.00    8.10
   1 -15  -9   10.86    7.91
  -1 -15  -9   11.40    9.45
  -1  15   9    3.87    4.79
   1  15   9    5.88    3.68
  -1  15  -9   13.36    6.45
 -15   1 -10  111.32   35.30
 -15  -1 -10  135.06   32.28
 -15   1  10  117.59   38.42
 -15  -1  10  111.07   37.44
   1 -15 -10   96.77   36.55
  -1 -15 -10  126.63   32.00
   1  15  10   76.75   32.34
  -1  15 -10  132.49   38.77
   1  15 -10  186.21   40.56
 -15   2   0    6.72    6.04
 -15  -2   0   23.24   12.22
   2 -15   0   17.90   10.72
  -2 -15   0    7.70    6.26
  -2  15   0    5.09    6.22
   2  15   0   12.52    5.60
 -15   2  -1   18.06    8.33
 -15  -2  -1   12.79    6.61
 -15   2   1   -1.13    6.77
 -15  -2   1   24.27   13.70
   2 -15  -1   11.45    8.29
  -2 -15  -1    8.52    7.22
   2 -15   1    7.37    5.15
  -2 -15   1   47.84   26.88
  -2  15   1   11.09    4.88
  -2  15  -1    7.87    6.05
   2  15   1    7.20    6.90
   2  15  -1   19.11    8.65
 -15   2  -2   25.97    9.48
 -15  -2  -2   19.47    9.62
 -15   2   2   19.23    8.22
 -15  -2   2   31.92    9.47
   2 -15  -2   13.69    6.37
  -2 -15  -2   17.07    9.13
   2 -15   2   16.44    8.03
  -2  15  -2   23.87    9.86
   2  15   2   14.88    5.19
   2  15  -2   25.90    8.07
 -15   2  -3   35.11   10.82
 -15  -2  -3   62.84   15.14
 -15   2   3   27.70   18.51
 -15  -2   3   38.77   10.85
   2 -15  -3   71.11   23.63
  -2 -15  -3   51.43   15.20
  -2  15   3   58.77   12.48
  -2  15  -3   61.32   15.96
   2  15   3   75.03   19.79
   2  15  -3   51.89   12.32
 -15   2  -4  106.30   13.88
 -15  -2  -4   92.86   24.19
 -15   2   4   88.97   24.98
 -15  -2   4  116.24   28.85
   2 -15  -4   76.27   21.22
  -2 -15  -4  130.68   33.98
  -2  15   4  101.23   24.96
  -2  15  -4  115.10   33.87
   2  15   4  114.94   20.99
   2  15  -4  111.79   27.71
 -15   2  -5  117.45   24.68
 -15  -2  -5   86.65   31.02
 -15   2   5  121.17   19.42
 -15  -2   5  106.31   24.86
   2 -15  -5   80.77   21.15
  -2 -15  -5   84.92   25.96
  -2  15   5   96.61   28.45
   2  15   5   85.77   30.46
  -2  15  -5  102.82   20.60
   2  15  -5  108.08   26.14
 -15   2  -6   25.04    7.85
 -15  -2  -6   17.00    8.88
 -15   2   6   35.85   11.08
 -15  -2   6   14.10   10.22
   2 -15  -6   19.19   12.81
  -2 -15  -6   29.18   11.60
  -2  15   6   21.32    9.83
   2  15  -6   42.54   11.78
 -15   2  -7   23.27    9.24
 -15  -2  -7   35.90   18.57
 -15   2   7   21.01    6.96
 -15  -2   7   38.76   13.15
   2 -15  -7   25.76   14.08
  -2 -15  -7   38.35   15.19
  -2  15   7   27.48    8.84
   2  15   7   14.95   11.84
  -2  15  -7   29.48   11.86
   2  15  -7   52.57   16.18
 -15   2  -8  219.64   40.34
 -15  -2  -8  249.33   61.25
 -15  -2   8  193.99   62.35
 -15   2   8  222.88   40.58
   2 -15  -8  175.53   61.52
  -2 -15  -8  187.79   52.59
  -2  15   8  177.42   49.93
   2  15   8  228.67   41.58
  -2  15  -8  260.08   62.20
   2  15  -8  256.23   41.49
 -15   2  -9   29.95   10.00
 -15  -2  -9   28.68    9.03
 -15   2   9   23.71   12.20
   2 -15  -9   32.67   14.65
  -2 -15  -9   35.03   18.00
   2  15   9   35.66   14.98
  -2  15  -9   46.00   13.18
   2  15  -9   62.76   18.71
 -15   2 -10    7.32    4.63
 -15  -2 -10    4.83    8.38
 -15  -2  10    8.08    6.55
 -15   2  10    7.69    9.14
   2 -15 -10   -3.27    7.67
  -2 -15 -10   11.99    6.82
  -2  15 -10    4.78    6.96
   2  15 -10    7.25    6.84
 -15   3   0  210.62   43.01
 -15  -3   0  290.77   51.56
   3 -15   0  237.92   58.63
  -3 -15   0  245.04   40.74
  -3  15   0  299.36   38.91
   3  15   0  308.26   47.61
 -15   3  -1   -0.17    6.10
 -15  -3  -1   13.79   11.11
 -15   3   1    7.90    7.85
 -15  -3   1    7.74    7.50
   3 -15  -1    6.64    8.64
  -3 -15  -1   15.61    7.69
   3 -15   1   11.08    8.01
  -3 -15   1    6.27    6.43
  -3  15   1    8.02    5.02
  -3  15  -1   15.89    8.93
   3  15   1    0.68    3.81
   3  15  -1    4.74    4.00
 -15   3  -2   28.25    8.43
 -15  -3  -2   19.30    8.19
 -15   3   2   11.79    8.46
 -15  -3   2   11.76    7.97
   3 -15  -2    7.42    6.76
  -3 -15  -2    9.82    9.42
   3 -15   2   18.86    9.53
  -3  15   2    7.25    5.58
  -3  15  -2   10.11    5.64
   3  15   2   18.53    6.37
   3  15  -2   27.18   11.84
 -15   3  -3   10.47    8.38
 -15  -3  -3    4.91    6.12
 -15   3   3    8.44    6.19
 -15  -3   3    2.36    6.99
   3 -15  -3    9.43    6.87
  -3 -15  -3    8.84    5.44
  -3  15   3    0.69    4.59
  -3  15  -3   -1.82    5.65
   3  15   3    4.73    4.78
   3  15  -3   15.15    7.35
 -15   3  -4  194.02   30.91
 -15  -3  -4  166.43   17.66
 -15   3   4  133.49   18.01
 -15  -3   4  176.01   24.01
   3 -15  -4  129.05   30.25
  -3 -15  -4  134.03   38.86
  -3  15   4  165.76   33.12
  -3  15  -4  185.52   43.20
   3  15   4  144.43   24.88
   3  15  -4  179.98   44.96
 -15   3  -5   56.54   13.39
 -15  -3  -5   53.92   15.36
 -15   3   5   55.65   19.19
 -15  -3   5   43.65   16.62
   3 -15  -5   40.96   18.46
  -3 -15  -5   61.10   12.26
  -3  15   5   66.54   18.34
  -3  15  -5   59.29   15.30
   3  15   5   47.09   15.53
   3  15  -5   91.91   17.45
 -15   3  -6   16.19    6.31
 -15  -3  -6   15.10   10.02
 -15   3   6   10.94    6.23
 -15  -3   6   35.44   10.11
   3 -15  -6   20.24    8.63
  -3 -15  -6   24.11   11.85
  -3  15   6   17.43    6.95
  -3  15  -6   27.86   11.76
   3  15   6   21.20   12.12
   3  15  -6   20.13    7.96
 -15   3  -7   64.89   17.84
 -15  -3  -7   83.42   31.17
 -15   3   7   78.21   22.81
 -15  -3   7   94.33   16.24
   3 -15  -7   94.62   18.51
  -3 -15  -7   53.81   24.90
  -3  15   7   68.89   18.59
   3  15   7   83.19   24.15
  -3  15  -7  105.31   28.68
   3  15  -7   98.89   21.05
 -15   3  -8    5.63    4.94
 -15  -3  -8   27.44   10.42
 -15   3   8   10.06    7.15
 -15  -3   8   14.48    6.42
   3 -15  -8    7.64    8.41
  -3 -15  -8   16.00   11.47
   3  15   8   24.13    8.24
  -3  15  -8   24.99   10.16
   3  15  -8   27.23   10.58
 -15   3  -9   20.74    7.18
 -15  -3  -9   63.96   16.37
 -15   3   9   27.57   12.24
 -15  -3   9   22.22    9.97
   3 -15  -9   36.50   17.21
  -3 -15  -9   40.67   14.16
   3  15   9   43.09   12.05
  -3  15  -9   45.05   14.94
   3  15  -9   40.43   17.38
 -15   3 -10    1.60    5.26
 -15  -3 -10   14.45    8.92
 -15  -3  10   11.42    8.23
 -15   3  10   16.19    5.69
   3 -15 -10   10.71    8.10
  -3 -15 -10   14.30   12.54
  -3  15 -10    7.32    4.60
   3  15 -10    8.09    7.13
 -15   4   0   15.99    9.08
 -15  -4   0   20.71   13.47
   4 -15   0   19.74    8.27
  -4 -15   0   30.87   10.57
  -4  15   0    9.04    4.47
   4  15   0   17.22    6.02
 -15   4  -1   98.27   32.99
 -15   4   1  101.57   34.31
 -15  -4  -1  113.02   25.84
 -15  -4   1  130.20   17.79
   4 -15  -1  105.62   18.48
  -4 -15  -1   86.77   29.41
   4 -15   1   97.75   26.67
  -4 -15   1  112.80   26.73
  -4  15   1  125.97   30.04
  -4  15  -1  163.73   33.11
   4  15   1  144.54   26.60
   4  15  -1  144.00   31.96
 -15   4  -2   57.54   21.98
 -15  -4  -2   69.83   21.74
 -15   4   2   98.40   18.40
 -15  -4   2   89.16   20.72
   4 -15  -2   68.40   18.91
  -4 -15  -2   78.79   28.99
   4 -15   2   70.05   18.41
  -4  15   2   81.27   18.11
  -4  15  -2  106.47   23.36
   4  15   2  115.81   25.60
   4  15  -2  104.18   19.97
 -15   4  -3   64.11   17.19
 -15  -4  -3   51.96   23.33
 -15   4   3   75.99    9.41
 -15  -4   3   84.66   22.49
   4 -15  -3   80.52   21.23
  -4 -15  -3   85.10   11.49
   4 -15   3   86.60   23.30
  -4  15   3   93.83   22.00
  -4  15  -3   90.01   23.79
   4  15   3   94.65   23.38
   4  15  -3  104.19   24.61
 -15   4  -4   31.30   15.64
 -15  -4  -4   30.51   11.60
 -15   4   4   32.04   10.14
 -15  -4   4   44.87   14.18
   4 -15  -4   44.76   26.55
  -4 -15  -4   41.69   16.00
  -4  15   4   54.47   13.18
  -4  15  -4   67.26   16.23
   4  15   4   53.39   10.74
   4  15  -4   36.33   13.97
 -15   4  -5   16.20    4.65
 -15  -4  -5   24.05    8.72
 -15   4   5   20.94    6.94
 -15  -4   5   19.51    6.98
   4 -15  -5   12.46   10.50
  -4  15   5   30.06    9.28
  -4  15  -5   37.71   10.94
   4  15   5   29.93   12.96
   4  15  -5   35.80   17.45
 -15   4  -6   16.19    8.36
 -15  -4  -6   22.31   12.00
 -15   4   6   20.62   10.13
 -15  -4   6   12.93    8.40
  -4 -15  -6   32.40   13.16
  -4  15   6   16.36    8.65
  -4  15  -6   30.18    9.37
   4  15   6   33.54   12.03
   4  15  -6   11.75    8.30
 -15   4  -7    8.88    8.21
 -15  -4  -7   15.73   12.38
 -15   4   7   11.51    7.22
 -15  -4   7    8.75    7.61
   4 -15  -7   15.56   10.60
  -4 -15  -7    7.68    7.90
  -4  15  -7   11.25    4.49
   4  15   7   22.13    6.11
   4  15  -7   10.92    6.45
 -15   4  -8    6.85    5.11
 -15  -4  -8   16.49    9.92
 -15   4   8   10.35    8.20
 -15  -4   8    6.12    4.33
   4 -15  -8    8.51    6.76
  -4 -15  -8   18.74   10.42
  -4  15  -8   10.48    6.18
   4  15   8    4.38    3.99
   4  15  -8    9.87    7.32
 -15   4  -9   14.37    8.20
 -15  -4  -9   32.10   13.69
 -15   4   9   17.69    7.41
 -15  -4   9   21.21    9.59
   4 -15  -9    3.37    8.13
  -4 -15  -9   15.20   10.60
  -4  15  -9   18.94    9.29
   4  15  -9   18.72    8.28
 -15   5   0   16.05    7.20
 -15  -5   0   29.89   12.27
   5 -15   0   26.66    8.06
  -5 -15   0    8.45   10.01
  -5  15   0   25.29    9.60
   5  15   0   48.60   12.22
 -15   5  -1    4.53    4.72
 -15   5   1    3.75    4.09
 -15  -5  -1    9.16    7.43
 -15  -5   1    4.18    4.66
   5 -15  -1    5.12    5.74
   5 -15   1    4.90    5.78
  -5 -15  -1    0.24    8.71
  -5 -15   1   -2.97    7.40
  -5  15   1    7.53    3.92
  -5  15  -1   19.23    7.29
   5  15   1   26.13    7.98
   5  15  -1    8.71    6.14
 -15   5  -2   64.48    8.72
 -15  -5  -2   37.46   10.60
 -15  -5   2   42.00   28.74
   5 -15  -2   56.35   21.26
  -5 -15  -2   55.73   25.57
   5 -15   2   79.20   18.83
  -5  15   2   86.80   20.36
  -5  15  -2   86.12   23.50
   5  15   2  108.37   22.38
   5  15  -2   80.99   17.54
 -15   5  -3   35.00   11.79
 -15  -5  -3   28.56   17.89
 -15   5   3   37.74    8.27
 -15  -5   3   26.79   14.77
   5 -15  -3   33.07    8.64
  -5 -15  -3   37.45    9.49
   5 -15   3   44.11    9.54
  -5  15   3   29.67   12.62
  -5  15  -3   46.10   11.59
   5  15   3   59.21   11.64
   5  15  -3   46.47   12.05
 -15   5  -4   12.67    7.18
 -15  -5  -4    3.53    7.70
 -15   5   4   12.80    7.13
 -15  -5   4   16.06    5.58
   5 -15  -4    7.25    6.64
  -5 -15  -4   18.97    8.93
   5 -15   4   17.44    8.98
  -5  15   4   16.38    6.68
  -5  15  -4   18.60   11.11
   5  15   4   15.84    8.60
   5  15  -4   13.03   11.05
 -15   5  -5   24.00    8.06
 -15  -5  -5   43.34   10.28
 -15   5   5   32.35    7.89
 -15  -5   5   48.91   11.04
   5 -15  -5   33.63   11.40
  -5 -15  -5   32.55   12.13
  -5  15  -5   39.81   10.85
   5  15   5   37.42   13.47
   5  15  -5   34.69   14.33
 -15  -5  -6  158.81   18.77
 -15  -5   6   95.54   31.87
   5 -15  -6  120.51   44.93
  -5 -15  -6   94.72   40.65
  -5  15  -6  160.12   36.99
   5  15   6  147.38   33.43
   5  15  -6  151.68   29.59
 -15  -5  -7   81.80   20.71
 -15  -5   7   31.05   13.75
   5 -15  -7   18.40    9.00
  -5 -15  -7   13.47    9.48
  -5  15  -7   38.04   14.25
   5  15   7   51.49   11.72
   5  15  -7   43.39   13.43
 -15  -5  -8   17.02    6.49
 -15  -5   8    3.97    8.47
   5 -15  -8    0.59    6.28
  -5 -15  -8   17.83   11.55
  -5  15  -8   19.28   10.10
   5  15   8    5.34    4.07
   5  15  -8   13.53    7.38
 -15  -5  -9   55.22   19.42
 -15  -5   9   11.29    8.01
   5 -15  -9   21.50   11.09
  -5 -15  -9   27.35   12.66
  -5  15  -9   59.70   16.06
   5  15  -9   34.60   15.97
 -15  -6   0   12.21    8.24
   6 -15   0    5.65    4.34
  -6 -15   0    5.01    8.13
  -6  15   0   18.30    9.27
   6  15   0   10.67    6.17
 -15  -6  -1    1.13    4.62
 -15  -6   1   16.07   10.27
   6 -15  -1    9.38    4.01
   6 -15   1    6.54    8.82
  -6 -15  -1   16.99   11.93
  -6 -15   1    5.13    7.80
  -6  15   1   23.23    8.60
  -6  15  -1    3.67    5.33
   6  15   1    2.64    2.92
   6  15  -1   10.94    7.29
 -15  -6  -2    8.21    8.08
 -15  -6   2   25.66   10.62
   6 -15  -2    1.47    3.86
  -6 -15  -2   18.14   12.85
   6 -15   2   17.95    7.41
  -6  15   2   12.10    7.17
  -6  15  -2   41.13    8.40
   6  15   2   14.79    6.82
 -15  -6  -3   64.05   31.00
 -15  -6   3  106.02   28.72
   6 -15  -3   78.08   24.56
  -6 -15  -3   72.10   34.90
   6 -15   3   72.72   29.60
  -6  15   3   80.31   20.63
  -6  15  -3  103.39   26.14
   6  15   3  110.20   26.07
   6  15  -3   69.77   22.77
 -15  -6   4    0.69    7.47
   6 -15  -4    8.77    5.45
  -6 -15  -4   19.81   13.52
   6 -15   4    7.04    5.97
  -6  15  -4   11.91    8.52
   6  15   4    4.05    5.70
   6  15  -4    9.88    6.70
 -15  -6  -5  173.05   18.25
 -15  -6   5   92.42   31.15
  -6 -15  -5   82.89   33.58
  -6  15  -5  122.92   33.80
   6  15   5  148.21   27.23
   6  15  -5  112.54   40.97
 -15  -6  -6   21.22   12.48
 -15  -6   6    5.44    7.42
   6 -15  -6    1.98    6.33
  -6 -15  -6    8.33    7.25
  -6  15  -6   10.63    5.55
   6  15   6    2.56    6.34
   6  15  -6    5.90    6.37
 -15  -6  -7  127.97   20.42
 -15  -6   7   79.63   24.45
   6 -15  -7   94.92   24.90
  -6 -15  -7   92.55   31.80
  -6  15  -7   96.26   31.66
   6  15   7   90.03   22.48
   6  15  -7  133.83   33.98
 -15  -6  -8   14.25    6.49
 -15  -6   8   10.68    7.82
   6 -15  -8   -2.47    6.27
  -6 -15  -8    5.59    8.11
  -6  15  -8   10.55    4.94
   6  15  -8   14.74    8.64
 -15  -7   0   42.77   12.35
   7 -15   0   34.18   10.75
  -7 -15   0   40.56   19.06
  -7  15   0   51.85   18.81
   7  15   0   36.45   15.27
  -7 -15  -1   80.19   26.99
 -15  -7  -1  113.54   17.18
 -15  -7   1   76.45   16.20
   7 -15  -1  126.26   22.47
   7 -15   1   66.35   32.15
  -7 -15  -1   93.25   28.88
  -7 -15   1   87.19   32.34
  -7  15   1  117.45   22.64
  -7  15  -1  100.32   25.01
   7  15   1   78.94   32.42
   7  15  -1   75.29   33.72
  -7 -15  -2   15.10    6.54
 -15  -7  -2   29.51   11.86
  -7 -15   2   18.95    8.84
 -15  -7   2   32.97   11.07
   7 -15  -2   25.94   10.23
  -7 -15  -2   23.08   13.44
   7 -15   2   26.66    9.53
  -7 -15   2   27.10    9.59
  -7  15  -2   35.09   16.01
   7  15   2   38.34   14.47
   7  15  -2   30.75    9.78
  -7 -15  -3   76.34   31.19
 -15  -7  -3   87.41   50.12
  -7 -15   3   80.90   39.45
 -15  -7   3  103.51   35.85
   7 -15  -3  114.74   38.18
  -7 -15  -3   71.24   40.37
   7 -15   3   98.44   31.91
  -7  15  -3  153.29   36.06
   7  15   3  232.69   45.03
   7  15  -3  176.03   39.04
  -7 -15  -4   21.59    6.27
 -15  -7  -4    3.86    8.27
  -7 -15   4   16.97    9.00
 -15  -7   4   11.77   11.85
   7 -15  -4    8.24    8.70
  -7 -15  -4   11.65    7.86
   7 -15   4    6.30    6.07
  -7  15  -4   11.30    6.01
   7  15   4   15.11    7.96
   7  15  -4    8.54    6.95
  -7 -15  -5   22.28    9.32
 -15  -7  -5   35.49   11.08
  -7 -15   5   11.52    8.03
 -15  -7   5   22.95   15.74
   7 -15  -5   28.90   13.09
  -7 -15  -5   29.72   13.70
   7 -15   5   36.55    7.58
  -7  15  -5   33.50   10.65
   7  15   5   54.42   14.49
   7  15  -5   17.89    7.12
 -15  -7  -6   48.71   16.47
  -7 -15   6   16.85    6.65
 -15  -7   6   34.14   17.21
   7 -15  -6   32.32   10.35
  -7 -15  -6   30.46   11.68
  -7  15  -6   40.58   15.50
   7  15   6   37.52   11.84
   7  15  -6   39.76   12.83
  -7 -15  -7    5.15    2.63
 -15  -7  -7   19.34   11.26
  -7 -15   7   11.88    4.73
 -15  -7   7   13.69   10.63
   7 -15  -7    8.13    4.58
  -7 -15  -7    7.40    6.36
  -7  15  -7   14.40    7.14
   7  15  -7   23.99   14.17
  -8 -15   0   15.33    8.98
 -15  -8   0   19.40    8.75
   8 -15   0   29.03   10.34
  -8 -15   0   24.34   10.48
   8  15   0   31.59   12.09
  -8 -15  -1   59.95   16.94
  -8 -15   1   40.66   21.61
 -15  -8  -1   53.18   17.29
 -15  -8   1   54.63   30.91
   8 -15  -1   62.18    9.42
   8 -15   1   44.70   19.64
  -8 -15  -1   51.52   21.47
   8  15   1   95.89   20.79
   8  15  -1   95.01   22.63
  -8 -15  -2   24.00   15.22
 -15  -8  -2   48.00   17.59
 -15  -8   2   54.65   11.28
   8 -15  -2   33.56   18.41
  -8 -15  -2   23.08   13.59
   8 -15   2   34.69   13.74
  -8 -15   2   44.34   16.07
  -8  15  -2   45.67   13.96
   8  15   2   50.18   19.08
   8  15  -2   47.95   21.84
 -15  -8  -3   44.08   20.32
 -15  -8   3   41.48   16.75
   8 -15  -3   26.83    9.05
  -8 -15  -3   21.39    9.78
   8 -15   3   30.65    8.28
  -8  15  -3   28.89   11.25
   8  15   3   29.03   14.28
   8  15  -3   32.52   12.34
  -8 -15  -4   22.28    9.62
 -15  -8  -4   43.27   17.53
 -15  -8   4   49.14   13.23
   8 -15  -4   31.42   11.68
  -8 -15  -4   35.46   18.91
   8 -15   4   21.34    8.01
  -8  15  -4   38.19   15.56
   8  15   4   54.53   11.43
   8  15  -4   38.29   14.32
  -8 -15  -5   23.22    6.56
 -15  -8  -5   37.23   20.26
  -8 -15   5   14.25    6.04
 -15  -8   5   20.55   12.59
   8 -15  -5   22.11   11.61
  -8 -15  -5   24.39    9.84
   8 -15   5   28.91    8.21
  -8  15  -5   26.77   16.70
   8  15   5   22.97    8.72
   8  15  -5   24.08   14.01
  -9 -15   0   40.27   18.98
 -15  -9   0   26.24   10.89
   9 -15   0   38.10   19.77
  -9 -15   0   32.28   10.77
   9  15   0   76.76   25.51
  -9 -15  -1    5.69    5.30
  -9 -15   1    7.77    6.44
 -15  -9  -1   19.84   10.84
 -15  -9   1   27.10   11.30
   9 -15  -1    2.52    3.88
   9 -15   1    3.38    3.98
  -9 -15  -1    4.28    4.43
  -9 -15   1   12.45    5.83
   9  15   1    5.60    7.35
   9  15  -1    8.09    7.58
  -9 -15  -2    3.62    5.14
 -15  -9  -2   15.77   11.53
  -9 -15   2   19.04    9.09
 -15  -9   2    8.55    7.99
   9 -15  -2    2.41    4.58
   9 -15   2    1.37    2.61
  -9 -15  -2    7.98    6.18
  -9 -15   2   15.44    8.00
  15   9   2   12.12    6.91
 -16   0   0   25.33    9.94
   0 -16   0   19.01   17.09
   0  16   0    5.77    5.12
 -16   0  -1   86.92   37.40
 -16   0   1  133.80   30.56
   0 -16  -1   95.11   34.07
   0 -16   1  102.62   23.42
   0  16   1  121.98   26.77
   0  16  -1  117.13   28.75
 -16   0  -2    9.28    9.35
 -16   0   2   20.99   11.36
   0 -16  -2    4.94    7.82
   0 -16   2    6.48    7.71
   0  16   2   24.77    9.26
   0  16  -2    7.19    9.16
 -16   0  -3   61.03   12.87
 -16   0   3   27.57   15.55
   0 -16  -3   26.25   16.17
   0  16   3   62.34   17.34
   0  16  -3   49.41   13.72
 -16   0  -4   20.21    9.94
 -16   0   4   30.55   10.59
   0 -16  -4    9.28    8.24
   0  16   4   13.59    6.51
   0  16  -4   10.82    6.19
 -16   0  -5    3.77    8.95
 -16   0   5   39.65   12.20
   0 -16  -5   29.00   11.88
   0  16  -5   23.94    9.00
 -16   0  -6   66.87   42.31
 -16   0   6   82.19   21.00
   0 -16  -6  117.58   28.56
   0  16   6  111.99   33.90
   0  16  -6  146.70   35.39
 -16   0  -7    7.40    8.12
 -16   0   7    3.97    8.81
   0 -16  -7   -0.14    5.44
   0  16   7    4.60    6.65
   0  16  -7    6.94    5.21
 -16   0  -8   11.29    9.64
 -16   0   8    8.63    6.99
   0 -16  -8    9.91    6.35
   0  16   8    6.94    6.12
   0  16  -8   15.79    8.97
 -16   1   0    6.27    7.07
 -16  -1   0   21.65    9.72
   1 -16   0   16.18    6.71
  -1 -16   0   30.02   12.57
  -1  16   0   14.67    6.25
   1  16   0   17.20    6.99
 -16   1  -1   22.38   13.94
 -16  -1  -1   27.28   13.81
 -16   1   1   28.29   13.84
 -16  -1   1   33.36   10.42
   1 -16  -1   23.82   12.37
  -1 -16  -1   21.33   10.31
   1 -16   1   25.98   12.40
  -1 -16   1   33.41   11.77
  -1  16   1   37.95   10.30
  -1  16  -1   48.64   12.76
   1  16   1   32.90   11.67
   1  16  -1   35.23   12.60
 -16   1  -2   62.48   22.08
 -16  -1  -2   56.44   20.25
 -16   1   2   53.10   20.24
 -16  -1   2   88.96   12.77
   1 -16  -2   57.69   20.02
  -1 -16  -2   51.68   23.44
   1 -16   2   80.79   19.24
  -1 -16   2   49.39   18.29
  -1  16   2   81.17   21.62
  -1  16  -2   57.79   18.42
   1  16   2   81.23   21.87
   1  16  -2   75.51   18.94
 -16   1  -3   56.36   20.51
 -16  -1  -3   24.98   16.51
 -16   1   3   34.47   11.43
 -16  -1   3   36.52   17.13
   1 -16  -3   37.08   19.24
  -1 -16  -3   34.46   11.85
  -1  16   3   37.28    9.81
   1  16   3   40.39   15.28
  -1  16  -3   42.29   13.57
   1  16  -3   71.79   19.57
 -16   1  -4   18.11    9.93
 -16  -1  -4   17.19    8.30
 -16   1   4   20.20    9.58
 -16  -1   4   14.64    6.04
   1 -16  -4   11.86    9.11
  -1 -16  -4    5.29    5.75
  -1  16   4   17.94    7.89
   1  16   4    6.00    3.67
  -1  16  -4   24.27    6.58
   1  16  -4   22.12   12.61
 -16   1  -5   19.00   11.25
 -16  -1  -5   46.26    9.14
 -16   1   5   21.88    9.66
 -16  -1   5   20.67   10.00
   1 -16  -5    6.58    7.75
  -1 -16  -5   34.33   11.69
  -1  16   5   27.90   11.52
   1  16   5   28.06    8.78
  -1  16  -5   47.30   15.29
   1  16  -5   24.20    7.22
 -16   1  -6   26.97    8.87
 -16  -1  -6   25.11    9.92
 -16   1   6    5.91    5.86
   1 -16  -6   22.14   12.91
  -1 -16  -6   15.08   16.85
  -1  16   6   19.40    8.19
   1  16   6   21.13    7.12
   1  16  -6   24.56   10.82
 -16   1  -7  111.28   25.24
 -16  -1  -7   88.39   26.40
 -16   1   7   73.95   28.74
 -16  -1   7   87.07   35.75
   1 -16  -7   50.10   25.66
  -1 -16  -7   90.46   30.69
  -1  16   7   82.04   29.42
   1  16   7   74.28   27.76
  -1  16  -7  104.70   27.40
   1  16  -7  132.47   23.59
 -16   1  -8   13.97    8.36
 -16  -1  -8   27.36    9.76
 -16   1   8   12.22    8.55
 -16  -1   8   20.54    6.91
   1 -16  -8   13.96    9.98
  -1 -16  -8   21.44   13.01
  -1  16   8    9.96    7.00
  -1  16  -8   16.34   10.56
   1  16  -8   37.99   10.54
 -16   2   0   72.50   35.29
 -16  -2   0  127.30   35.49
   2 -16   0  141.77   19.20
  -2 -16   0   92.87   36.12
  -2  16   0  124.86   23.17
   2  16   0  125.53   21.37
 -16   2  -1   55.49   19.14
 -16  -2  -1   44.16   24.10
 -16   2   1   64.58   22.28
 -16  -2   1   89.28   24.13
   2 -16  -1   58.41   17.29
  -2 -16  -1   76.43   26.83
   2 -16   1   64.41   22.50
  -2 -16   1   56.23   18.31
  -2  16   1   63.27   20.19
  -2  16  -1   93.05   19.76
   2  16   1   62.98   16.35
   2  16  -1   98.63   18.66
 -16   2  -2    0.93    5.11
 -16  -2  -2    9.00    7.74
 -16   2   2    4.43    5.76
 -16  -2   2    2.80    7.50
   2 -16  -2    8.21   10.30
  -2 -16  -2   -0.77    7.34
   2 -16   2   11.22    7.31
  -2 -16   2   10.37    4.48
  -2  16   2    8.64    7.36
  -2  16  -2    3.67    4.42
   2  16   2   11.52    7.17
   2  16  -2    9.85    8.33
 -16   2  -3   13.49    8.52
 -16  -2  -3    8.08    7.12
 -16   2   3   13.17    7.89
 -16  -2   3   11.47    8.62
   2 -16  -3    8.05    7.46
  -2 -16  -3    4.86    6.64
   2 -16   3    5.59    8.71
  -2  16   3    1.87    5.12
  -2  16  -3    6.44    5.35
   2  16   3    2.73    3.59
   2  16  -3   13.35    5.69
 -16   2  -4   87.89   23.83
 -16  -2  -4   98.74   32.19
 -16   2   4   82.06   20.97
 -16  -2   4  121.12   27.22
   2 -16  -4   87.58   23.38
  -2 -16  -4   92.85   33.31
  -2  16   4  130.30   41.42
  -2  16  -4   97.68   28.24
   2  16   4  127.55   29.92
   2  16  -4  138.24   37.22
 -16   2  -5   44.05   18.04
 -16  -2  -5   42.77   12.98
 -16   2   5   41.25    9.76
 -16  -2   5   54.00   14.69
   2 -16  -5   46.90   13.92
  -2 -16  -5   34.86   16.79
  -2  16   5   51.90   18.33
   2  16   5   34.27   11.11
  -2  16  -5   36.36   12.82
   2  16  -5   64.81   18.87
 -16   2  -6   23.39   12.64
 -16  -2  -6   19.01   14.50
 -16   2   6   27.29    9.85
 -16  -2   6   20.54   11.41
   2 -16  -6   28.99   11.19
  -2 -16  -6   28.78   12.52
  -2  16   6    9.16    7.56
   2  16   6   17.12   11.25
  -2  16  -6   20.94   10.42
   2  16  -6   18.58    8.72
 -16   2  -7   14.92    9.96
 -16  -2  -7   19.31   14.34
 -16   2   7   20.42    9.80
 -16  -2   7   33.11   12.41
   2 -16  -7   18.39   12.15
  -2 -16  -7   33.07   12.50
  -2  16   7   23.60   10.89
   2  16   7   13.47    6.95
  -2  16  -7   38.79    9.83
 -16   2  -8   20.28    7.65
 -16  -2  -8   24.27   12.53
 -16   2   8   10.90    6.88
 -16  -2   8   20.53   11.09
   2 -16  -8    9.00    6.21
  -2 -16  -8    0.60    9.03
  -2  16   8    6.65    5.26
   2  16   8   18.01    8.58
  -2  16  -8    6.16    7.93
   2  16  -8   11.60    5.26
 -16   3   0    8.24    7.36
 -16  -3   0   12.04   10.26
   3 -16   0   13.62    7.66
  -3 -16   0   14.77    7.56
  -3  16   0    1.66    5.31
   3  16   0   18.27    8.41
 -16   3  -1   52.09   17.75
 -16  -3  -1   52.83   19.47
 -16   3   1   45.88   20.15
 -16  -3   1   38.91   23.14
   3 -16  -1   65.29   22.06
  -3 -16  -1   77.46   24.16
   3 -16   1   64.32   21.26
  -3 -16   1   75.29   26.36
  -3  16   1   91.23   21.37
  -3  16  -1   73.25   19.58
   3  16   1   70.66   18.26
   3  16  -1   80.13   24.03
 -16   3  -2   12.66    7.31
 -16  -3  -2    4.39    7.96
 -16   3   2   12.97    8.25
 -16  -3   2    8.39    7.53
   3 -16  -2   11.80    6.25
  -3 -16  -2   -1.02    7.64
   3 -16   2    7.32    8.74
  -3 -16   2    8.99    8.09
  -3  16   2    6.98    4.21
  -3  16  -2    7.89    7.91
   3  16   2   10.66    5.45
   3  16  -2    9.50    3.94
 -16   3  -3   59.95   14.58
 -16  -3  -3   58.00   27.40
 -16   3   3   49.40    9.83
 -16  -3   3   50.84   13.88
   3 -16  -3   46.48   19.02
  -3 -16  -3   41.23   18.71
   3 -16   3   76.92   26.28
  -3  16   3   82.20   20.67
  -3  16  -3   62.70   16.80
   3  16   3   63.13   17.67
   3  16  -3   79.27   22.65
 -16   3  -4   68.91   32.11
 -16  -3  -4   89.84   33.65
 -16   3   4   80.47   42.67
 -16  -3   4  125.39   28.95
   3 -16  -4  102.62   20.34
  -3 -16  -4   84.90   33.45
  -3  16   4  156.59   33.20
  -3  16  -4  126.92   32.31
   3  16   4  166.04   28.55
   3  16  -4  142.92   26.84
 -16   3  -5   13.13    5.03
 -16  -3  -5   18.01   11.39
 -16   3   5   15.14    6.72
 -16  -3   5    9.51    9.69
   3 -16  -5   33.49   11.97
  -3 -16  -5   10.43    8.47
  -3  16   5    7.79    6.67
  -3  16  -5    4.65    7.29
   3  16   5   13.41    8.14
   3  16  -5   18.28    7.96
 -16   3  -6   11.69    7.32
 -16  -3  -6   17.20   11.55
 -16   3   6    9.44    4.18
 -16  -3   6    9.94    8.22
   3 -16  -6   24.36   11.30
  -3 -16  -6   20.53   14.42
  -3  16   6   16.20    8.33
  -3  16  -6   -1.39    6.37
   3  16   6    8.77    7.47
   3  16  -6   22.94   12.15
 -16   3  -7    7.23    4.92
 -16  -3  -7    4.48    8.35
 -16   3   7   17.34   10.86
 -16  -3   7    9.73    6.90
   3 -16  -7   18.29    9.76
  -3 -16  -7    6.05   10.17
  -3  16   7    7.49    6.36
   3  16   7    2.86    4.89
  -3  16  -7   -2.05    6.35
   3  16  -7   13.37    6.12
 -16   4   0    3.27    4.88
 -16  -4   0   22.46   13.90
   4 -16   0    7.30    6.33
  -4 -16   0   10.20   10.17
  -4  16   0   23.31    8.71
   4  16   0    5.09    4.54
 -16   4  -1   70.58   10.22
 -16   4   1   53.60   21.42
 -16  -4  -1   61.58   18.53
 -16  -4   1   67.17   20.45
   4 -16  -1   62.32   16.78
  -4 -16  -1   41.29   13.10
   4 -16   1   77.07   13.72
  -4 -16   1   53.61   18.43
  -4  16   1   66.09   20.56
  -4  16  -1   72.80   17.27
   4  16   1   82.46   22.86
   4  16  -1   85.40   21.65
 -16   4  -2   34.69   13.06
 -16  -4  -2   40.31   18.96
 -16   4   2   26.82    8.90
 -16  -4   2   38.20   15.34
   4 -16  -2   26.25    9.33
  -4 -16  -2   30.26   16.65
   4 -16   2   51.80   12.62
  -4 -16   2   31.39   13.12
  -4  16   2   57.55   19.91
  -4  16  -2   38.87   12.57
   4  16   2   38.99   12.96
   4  16  -2   48.35   11.57
 -16   4  -3   15.40    7.30
 -16  -4  -3   14.57    8.17
 -16   4   3    9.61    7.88
 -16  -4   3    8.12    8.76
   4 -16  -3   12.66    5.29
  -4 -16  -3    8.67    9.62
   4 -16   3   23.21    9.44
  -4  16  -3    9.74    5.99
   4  16  -3   27.12   11.57
 -16   4  -4    4.10    5.91
 -16  -4  -4    4.23    8.16
 -16   4   4    5.86    4.69
 -16  -4   4   12.15   12.46
   4 -16  -4   -1.61    6.30
  -4 -16  -4   13.96    6.42
   4 -16   4   10.91    8.46
  -4  16   4   14.44    9.91
  -4  16  -4   12.12    7.06
   4  16   4    9.12    6.05
   4  16  -4    8.38    5.04
 -16   4  -5   95.20   16.08
 -16  -4  -5   97.53   43.70
 -16   4   5   76.10   25.84
 -16  -4   5   86.12   23.04
   4 -16  -5  113.39   20.83
  -4 -16  -5  106.76   35.61
  -4  16   5   93.52   26.32
  -4  16  -5  119.96   34.04
   4  16   5  162.15   33.53
   4  16  -5  158.84   31.23
 -16   4  -6   14.35    6.43
 -16  -4  -6    9.82   11.35
 -16   4   6   12.47    7.78
 -16  -4   6   25.47   11.77
   4 -16  -6   11.11    7.70
  -4 -16  -6   19.65   10.95
  -4  16   6   17.79    8.94
   4  16   6   40.50    8.90
   4  16  -6   25.89   13.25
 -16   4  -7   35.93   15.91
 -16  -4  -7   28.07   20.76
 -16   4   7   42.17   11.89
 -16  -4   7   40.32   16.09
   4 -16  -7   73.64   19.42
  -4 -16  -7   46.21   27.27
  -4  16  -7   61.88   19.78
   4  16   7   43.80   21.71
   4  16  -7   59.52   15.97
   5 -16   0   29.92    8.90
  -5 -16   0   27.89   14.81
  -5  16   0   43.43   11.33
   5  16   0   42.75   13.32
 -16  -5  -1    4.23    9.62
 -16  -5   1   10.82    9.40
   5 -16  -1    9.12    5.72
   5 -16   1   12.77    9.15
  -5 -16  -1    9.96   12.64
  -5 -16   1   15.94    7.49
  -5  16   1   14.04    8.46
  -5  16  -1   -0.70    7.24
   5  16   1    3.43    6.91
 -16  -5  -2   47.61   21.46
 -16  -5   2   69.66   13.64
   5 -16  -2   50.61   22.26
  -5 -16  -2   53.11   27.04
   5 -16   2   62.47   20.45
  -5 -16   2   50.96   23.66
  -5  16   2   68.11   13.76
  -5  16  -2   74.94   18.18
   5  16   2   80.16   21.55
   5  16  -2   98.67   23.72
 -16  -5  -3   15.39    8.31
 -16  -5   3   10.89    8.36
   5 -16  -3    4.83    7.02
  -5 -16  -3   20.87   12.50
   5 -16   3   10.49    6.96
  -5  16   3    1.66    7.39
  -5  16  -3   21.48    9.88
   5  16   3    7.42    3.85
   5  16  -3    7.77    8.98
 -16  -5  -4   49.72   19.96
 -16  -5   4   49.54   15.11
   5 -16  -4   26.50    9.37
  -5 -16  -4   35.97   14.23
   5 -16   4   29.38    8.98
  -5  16   4   33.77    8.91
  -5  16  -4   36.81   10.57
   5  16   4   46.58   16.17
   5  16  -4   33.37   13.23
 -16  -5  -5   33.66   20.84
 -16  -5   5   31.75   14.08
   5 -16  -5   33.23   11.87
  -5  16  -5   65.00   24.20
   5  16   5   46.06   11.57
   5  16  -5   50.32   12.62
 -16  -5   6   85.55   23.47
   5 -16  -6   61.12   17.25
  -5 -16  -6   43.13   19.34
  -5  16  -6   77.05   16.39
   5  16   6   51.08   15.99
   5  16  -6   63.14   30.35
 -16  -6   0   20.02   16.80
   6 -16   0   13.19    6.79
  -6 -16   0   11.26    9.37
  -6  16   0    9.88    8.67
   6  16   0   10.63    6.89
 -16  -6   1  111.13   15.63
   6 -16  -1   79.43   31.55
   6 -16   1   86.26   35.34
  -6 -16  -1   78.03   37.21
  -6 -16   1   80.78   27.50
  -6  16   1   74.47   23.85
  -6  16  -1  114.88   29.78
   6  16   1  132.98   28.31
   6  16  -1  120.80   25.67
 -16  -6  -2   -0.08    8.17
 -16  -6   2    6.87    8.34
   6 -16  -2    7.97    7.14
  -6 -16  -2    4.85    5.83
   6 -16   2   10.16    6.39
  -6 -16   2    8.19    8.70
  -6  16   2   12.98    6.22
  -6  16  -2    6.75    6.31
   6  16   2    7.62    5.00
   6  16  -2    5.62    4.44
 -16  -6  -3   28.54   12.63
 -16  -6   3   31.58   13.66
   6 -16  -3   23.15   10.98
  -6 -16  -3   21.20    9.26
   6 -16   3   28.63    9.55
  -6  16  -3   10.03    7.09
   6  16   3   29.79    9.92
   6  16  -3   27.58   14.94
 -16  -6  -4   55.73   18.75
   6 -16  -4   44.65   11.65
  -6 -16  -4   25.52   11.96
   6 -16   4   43.11   18.07
  -6  16  -4   67.53   25.06
   6  16   4   63.50   13.64
   6  16  -4   38.97   17.93
 -16  -6  -5   16.74    8.17
 -16  -6   5   19.64   11.86
   6 -16  -5   13.50    6.19
  -6 -16  -5    8.10    7.42
   6 -16   5   14.36    6.91
 -16  -7   0   39.70   19.04
   7 -16   0   34.90   13.39
  -7 -16   0   21.05   10.55
  -7  16   0   35.65   12.19
   7  16   0   29.45   10.76
 -16  -7  -1   12.85    7.79
 -16  -7   1    4.54    8.42
   7 -16  -1   19.53   11.24
   7 -16   1    9.44    5.71
  -7 -16  -1   12.48    9.31
  -7 -16   1   12.44   11.70
  -7  16  -1    8.78    6.97
   7  16  -1    8.31    7.95
 -16  -7  -2   35.18   11.81
 -16  -7   2   21.16   13.11
   7 -16  -2   39.69    8.01
  -7 -16  -2   17.94    7.54
   7 -16   2   29.82    9.61
  -7 -16   2   22.55   12.75
  -7  16  -2   35.08   10.66
   7  16   2   40.74   16.92
   7  16  -2   40.72   22.11
 -17   0   0   16.41    6.61
   0 -17   0   12.87    9.91
   0  17   0   15.88    7.91
 -17   0  -1    7.62    7.17
 -17   0   1   18.40   10.01
   0 -17  -1   20.56   10.89
   0 -17   1    1.60    7.84
   0  17   1   15.22    8.74
   0  17  -1    6.87    7.54
 -17   0  -2   16.57   10.36
 -17   0   2    2.33    3.96
   0 -17  -2   15.83   11.57
   0 -17   2   11.18    8.05
   0  17   2    3.67    3.09
   0  17  -2    8.51    7.18
 -17   0  -3   16.56    9.76
   0 -17  -3   25.87    9.21
   0 -17   3   18.76   11.60
   0  17   3   13.12    7.15
   0  17  -3   30.11   12.77
 -17   0   4   12.64    8.35
   0 -17  -4   34.05   12.15
   0  17   4   20.85    7.23
   0  17  -4   13.41    8.42
 -17   0  -5   15.27   10.31
 -17   0   5   25.46    8.89
   0 -17  -5   13.43    9.09
   0  17   5   21.33    7.77
   0  17  -5    7.46    4.86
 -17   1   0   42.60   11.39
 -17  -1   0   59.06   14.04
   1 -17   0   42.56   14.37
  -1 -17   0   49.24   12.11
  -1  17   0   56.01   15.40
   1  17   0   35.83   14.42
 -17   1  -1   26.36   11.07
 -17  -1  -1   50.59   12.16
 -17   1   1   35.12   11.35
 -17  -1   1   41.75   11.17
  -1 -17  -1   44.34   12.64
  -1 -17   1   69.35   16.86
  -1  17   1   45.02   10.65
  -1  17  -1   54.03   19.96
   1  17   1   63.02   16.39
   1  17  -1   35.36   10.35
 -17   1  -2    3.17    6.86
 -17  -1  -2    4.45    6.50
 -17   1   2   16.54    8.63
 -17  -1   2    5.69    9.08
   1 -17  -2    8.69    6.66
  -1 -17  -2   28.98   13.02
   1 -17   2    8.73    6.91
  -1 -17   2   14.97   11.28
  -1  17   2    6.92    7.00
   1  17   2   15.44    8.64
  -1  17  -2   27.11   10.78
   1  17  -2   21.16   10.79
 -17   1  -3   13.43    8.94
 -17  -1  -3   18.14   10.80
 -17   1   3   34.95    9.58
 -17  -1   3   21.27    8.71
   1 -17  -3   14.12   12.32
  -1 -17  -3   23.96   11.96
   1 -17   3   10.70   10.50
  -1 -17   3   32.57   16.41
  -1  17   3   17.13    8.58
   1  17   3   21.62   10.08
  -1  17  -3   18.43    7.55
   1  17  -3    8.18    5.24
 -17   1  -4   15.49    9.48
 -17  -1  -4   23.12   10.80
 -17   1   4    8.83    7.52
 -17  -1   4   13.23    7.90
   1 -17  -4    9.33   12.05
  -1 -17  -4   13.24    8.90
  -1  17   4   24.63   11.18
   1  17   4    3.41    5.87
  -1  17  -4   34.98   10.85
   1  17  -4   27.15   10.93
 -17   1  -5   36.98    9.46
 -17  -1  -5   41.97   13.52
 -17   1   5   34.87   15.64
 -17  -1   5   34.56   10.48
   1 -17  -5   29.98   12.76
  -1 -17  -5   43.92   13.42
  -1  17   5   36.95   13.69
   1  17   5   35.54   12.60
  -1  17  -5   42.25   15.35
   1  17  -5   35.50   14.94
 -17   2   0   19.14    6.29
 -17  -2   0   20.74   11.01
   2 -17   0   25.40   10.81
  -2 -17   0   17.43   10.69
  -2  17   0   45.63   15.81
   2  17   0   49.80   16.08
 -17   2  -1   21.41    9.92
 -17  -2  -1   35.40   12.95
 -17   2   1   24.35    7.74
 -17  -2   1   15.14    8.85
   2 -17  -1   35.82   13.20
  -2 -17  -1   35.15   14.54
   2 -17   1   13.63    8.13
  -2 -17   1   46.99   12.94
  -2  17   1   22.83    7.17
  -2  17  -1   39.45   10.84
   2  17   1   37.97   12.45
   2  17  -1   36.99   14.55
 -17   2  -2   44.39   22.52
 -17  -2  -2   50.01   23.10
 -17   2   2   49.72   26.57
 -17  -2   2   82.77   13.48
   2 -17  -2  117.53   16.76
  -2 -17  -2   66.40   28.26
   2 -17   2   65.04   29.71
  -2 -17   2   39.39   14.83
  -2  17   2   74.52   22.62
  -2  17  -2   71.05   24.89
   2  17   2   84.95   22.71
   2  17  -2   71.81   28.90
 -17   2  -3   49.36   34.47
 -17  -2  -3  102.57   13.51
 -17   2   3  109.82   12.98
 -17  -2   3  111.72   17.65
   2 -17  -3   78.46   30.68
  -2 -17  -3   79.30   34.10
   2 -17   3  115.53   28.95
  -2 -17   3  104.82   39.17
  -2  17   3   95.97   30.85
  -2  17  -3  114.34   27.51
   2  17   3  115.27   28.01
   2  17  -3  116.09   24.72
 -17   2  -4   15.87    6.80
 -17  -2  -4   19.46   11.74
 -17   2   4   14.88    6.13
 -17  -2   4   -0.57    7.31
   2 -17  -4   13.59   11.49
  -2 -17  -4   17.21    6.83
   2 -17   4   24.80   11.73
  -2  17   4   11.38    5.62
  -2  17  -4   20.60   12.10
   2  17   4   15.57    6.78
   2  17  -4   24.73   12.82
 -17   3   0   13.07    7.37
 -17  -3   0    3.78    7.68
   3 -17   0    7.55    8.73
  -3 -17   0    7.37    6.27
  -3  17   0    7.93    5.23
   3  17   0    5.84    5.22
 -17   3  -1   13.22    7.02
 -17  -3  -1   15.02   12.21
 -17   3   1    3.54    4.33
 -17  -3   1   13.02   10.44
   3 -17  -1   30.73   11.90
  -3 -17  -1   17.33   11.50
   3 -17   1   19.47   11.44
  -3 -17   1   20.65   10.22
  -3  17   1   10.89    8.98
  -3  17  -1   16.85    8.42
   3  17   1   14.94    5.32
   3  17  -1   12.22    9.41
 -17   3  -2   19.40    8.27
 -17  -3  -2   21.59   15.03
 -17   3   2   16.17    9.50
 -17  -3   2   26.40    8.69
   3 -17  -2   16.27   11.16
  -3 -17  -2   28.19   14.18
   3 -17   2   33.63   12.29
  -3 -17   2   22.08   10.68
  -3  17   2   17.26   11.07
  -3  17  -2   24.00   12.27
   3  17   2   37.76   11.36
   3  17  -2   25.90    8.97
 -17   3  -3   12.50    5.91
 -17  -3  -3   12.12    8.82
 -17   3   3   16.09   10.63
 -17  -3   3   17.21   11.26
   3 -17  -3    7.74    5.43
  -3 -17  -3    7.92    7.82
   3 -17   3    9.46    7.91
  -3 -17   3    9.53   12.64
  -3  17  -3   14.52    9.68
   3  17   3    9.87    4.69
   3  17  -3   10.67    6.62
 -17   3  -4   11.76    8.44
 -17  -3  -4   10.32    8.75
 -17   3   4   18.70    7.43
 -17  -3   4   16.19   14.11
   3 -17  -4    2.16    7.25
  -3 -17  -4   15.44   10.56
   3 -17   4    3.89    5.18
 -17  -4   0    6.95    8.43
   4 -17   0    8.62    6.74
  -4 -17   0   10.03    7.19
  -4  17   0    3.29    3.60
   4  17   0   10.71    7.23
 -17  -4  -1   16.41   11.37
 -17  -4   1    5.04    5.75
   4 -17  -1   12.20    9.40
  -4 -17  -1    1.78    7.09
   4 -17   1    7.54    6.97
  -4 -17   1   18.32   12.47
  -4  17   1    7.58    3.08
  -4  17  -1    4.12    9.96
   4  17   1    8.40    6.31
   4  17  -1   -0.55    6.19
 -17  -4  -2   28.09   12.09
 -17  -4   2   34.23   12.15
   4 -17  -2   40.16   12.78
  -4 -17  -2   15.71   11.59
   4 -17   2   34.24   12.42
  -4 -17   2   29.26    9.61
  -4  17   2   28.87   14.15
  -4  17  -2   28.25   10.21
   4  17   2   46.65    8.52
   4  17  -2   33.91   15.00
   0   0   0    0.00    0.00
;
_shelx_hkl_checksum              18075
#END Tags that were not found in dictionaries
loop_
_space_group_symop_operation_xyz
'x, y, z'
'-y+1/2, x+1/2, z+3/4'
'-x, -y, z+1/2'
'y+1/2, -x+1/2, z+1/4'
'x+1/2, -y+1/2, -z+1/4'
'-x+1/2, y+1/2, -z+3/4'
'y, x, -z'
'-y, -x, -z+1/2'
loop_
_atom_site_label
_atom_site_type_symbol
_atom_site_fract_x
_atom_site_fract_y
_atom_site_fract_z
_atom_site_U_iso_or_equiv
_atom_site_adp_type
_atom_site_occupancy
_atom_site_site_symmetry_order
_atom_site_calc_flag
_atom_site_refinement_flags_posn
_atom_site_refinement_flags_adp
_atom_site_refinement_flags_occupancy
Cu1 Cu 0.30376(6) 0.03531(6) 0.03340(4) 0.0260(3) Uani 1 1 d . . .
O3 O 0.3584(3) -0.0497(3) -0.0568(3) 0.0283(9) Uani 1 1 d . . .
N2 N 0.3443(4) -0.0288(4) 0.2005(3) 0.0278(11) Uani 1 1 d . . .
H2 H 0.3627 0.0320 0.2119 0.033 Uiso 1 1 calc R U .
C7 C 0.3053(4) -0.1857(5) 0.2161(4) 0.0277(12) Uani 1 1 d . . .
O1 O 0.2156(4) 0.1300(4) 0.0964(3) 0.0324(10) Uani 1 1 d . . .
C1 C 0.3508(5) -0.0144(5) -0.1305(4) 0.0307(13) Uani 1 1 d . . .
N1 N 0.3173(4) -0.0607(4) 0.1245(3) 0.0280(11) Uani 1 1 d . . .
N3 N 0.2533(4) 0.1070(4) -0.0598(3) 0.0305(12) Uani 1 1 d . . .
C3 C 0.1688(5) 0.1839(5) 0.0460(4) 0.0289(13) Uani 1 1 d . . .
O2 O 0.4462(4) 0.1135(4) 0.0564(3) 0.0368(11) Uani 1 1 d . . .
C6 C 0.2929(5) -0.1556(5) 0.1329(4) 0.0318(13) Uani 1 1 d . . .
C10 C 0.2874(5) -0.2874(5) 0.2500 0.0301(18) Uani 1 2 d S T P
H10A H 0.3000 -0.3360 0.2055 0.036 Uiso 0.5 1 calc R U P
H10B H 0.3360 -0.3000 0.2945 0.036 Uiso 0.5 1 calc R U P
C2 C 0.2966(5) 0.0835(5) -0.1396(4) 0.0349(15) Uani 1 1 d . . .
H2A H 0.2442 0.0785 -0.1829 0.042 Uiso 1 1 calc R U .
C8 C 0.3393(5) -0.1015(5) 0.2557(4) 0.0265(12) Uani 1 1 d . . .
C9 C 0.3695(6) -0.0822(6) 0.3436(4) 0.0415(17) Uani 1 1 d . . .
H9A H 0.3891 -0.0129 0.3495 0.062 Uiso 1 1 calc R U .
H9B H 0.4253 -0.1250 0.3580 0.062 Uiso 1 1 calc R U .
H9C H 0.3138 -0.0962 0.3804 0.062 Uiso 1 1 calc R U .
C5 C 0.2570(8) -0.2140(6) 0.0603(5) 0.055(2) Uani 1 1 d . . .
H5A H 0.2570 -0.1721 0.0109 0.082 Uiso 1 1 calc R U .
H5B H 0.1897 -0.2375 0.0710 0.082 Uiso 1 1 calc R U .
H5C H 0.3007 -0.2707 0.0513 0.082 Uiso 1 1 calc R U .
C4 C 0.3714(8) 0.1637(6) -0.1622(5) 0.049(2) Uani 1 1 d . . .
H4A H 0.3371 0.2270 -0.1687 0.073 Uiso 1 1 calc R U .
H4B H 0.4042 0.1462 -0.2141 0.073 Uiso 1 1 calc R U .
H4C H 0.4207 0.1694 -0.1181 0.073 Uiso 1 1 calc R U .
loop_
_atom_site_aniso_label
_atom_site_aniso_U_11
_atom_site_aniso_U_22
_atom_site_aniso_U_33
_atom_site_aniso_U_23
_atom_site_aniso_U_13
_atom_site_aniso_U_12
Cu1 0.0303(5) 0.0302(5) 0.0176(4) 0.0031(3) -0.0012(3) 0.0037(3)
O3 0.030(2) 0.033(2) 0.0211(19) 0.0014(16) -0.0002(16) 0.0018(18)
N2 0.035(3) 0.030(3) 0.018(2) 0.0024(19) -0.0042(19) -0.001(2)
C7 0.024(3) 0.029(3) 0.029(3) 0.008(2) 0.007(2) 0.005(2)
O1 0.040(3) 0.037(2) 0.0200(18) 0.0032(17) -0.0021(18) 0.0121(19)
C1 0.026(3) 0.036(3) 0.030(3) -0.003(2) -0.004(2) 0.003(2)
N1 0.032(3) 0.032(3) 0.021(2) 0.0039(19) 0.000(2) -0.002(2)
N3 0.039(3) 0.036(3) 0.016(2) 0.0010(19) -0.001(2) 0.008(2)
C3 0.032(3) 0.032(3) 0.022(3) 0.000(2) -0.001(2) 0.002(2)
O2 0.042(3) 0.047(3) 0.021(2) 0.0021(19) -0.0043(19) -0.012(2)
C6 0.034(3) 0.034(3) 0.028(3) 0.000(2) 0.004(3) -0.006(3)
C10 0.027(3) 0.027(3) 0.037(4) 0.008(2) 0.008(2) 0.000(3)
C2 0.042(4) 0.045(4) 0.018(3) 0.004(2) 0.001(2) 0.019(3)
C8 0.025(3) 0.029(3) 0.026(3) 0.008(2) 0.003(2) -0.002(2)
C9 0.050(4) 0.049(4) 0.025(3) 0.009(3) -0.005(3) -0.013(3)
C5 0.089(7) 0.044(4) 0.031(3) -0.002(3) -0.004(4) -0.031(5)
C4 0.073(6) 0.046(4) 0.028(3) 0.014(3) 0.010(4) 0.011(4)
loop_
_atom_type_symbol
_atom_type_description
_atom_type_scat_dispersion_real
_atom_type_scat_dispersion_imag
_atom_type_scat_source
C C 0.0033 0.0016 'International Tables Vol C Tables 4.2.6.8 and 6.1.1.4'
H H 0.0000 0.0000 'International Tables Vol C Tables 4.2.6.8 and 6.1.1.4'
N N 0.0061 0.0033 'International Tables Vol C Tables 4.2.6.8 and 6.1.1.4'
O O 0.0106 0.0060 'International Tables Vol C Tables 4.2.6.8 and 6.1.1.4'
Cu Cu 0.3201 1.2651 'International Tables Vol C Tables 4.2.6.8 and 6.1.1.4'
loop_
_geom_angle_atom_site_label_1
_geom_angle_atom_site_label_2
_geom_angle_atom_site_label_3
_geom_angle
_geom_angle_site_symmetry_1
_geom_angle_site_symmetry_3
N3 Cu1 N1 162.4(2) . .
N3 Cu1 O3 81.3(2) . .
N1 Cu1 O3 97.6(2) . .
N3 Cu1 O1 82.3(2) . .
N1 Cu1 O1 95.5(2) . .
O3 Cu1 O1 161.54(19) . .
N3 Cu1 O2 101.5(2) . .
N1 Cu1 O2 96.1(2) . .
O3 Cu1 O2 94.33(19) . .
O1 Cu1 O2 97.2(2) . .
C1 O3 Cu1 115.6(4) . .
C8 N2 N1 111.2(5) . .
C8 C7 C6 104.0(5) . .
C8 C7 C10 129.7(5) . .
C6 C7 C10 126.3(5) . .
C3 O1 Cu1 109.6(4) . .
O2 C1 O3 124.5(6) 2_544 .
O2 C1 C2 118.6(6) 2_544 .
O3 C1 C2 116.8(6) . .
C6 N1 N2 106.3(5) . .
C6 N1 Cu1 133.4(5) . .
N2 N1 Cu1 119.6(4) . .
C3 N3 C2 126.5(5) 7 .
C3 N3 Cu1 117.1(4) 7 .
C2 N3 Cu1 116.4(4) . .
O1 C3 N3 129.7(6) . 7
O1 C3 C3 119.2(7) . 7
N3 C3 C3 111.0(7) 7 7
C1 O2 Cu1 133.6(4) 4 .
N1 C6 C7 110.2(6) . .
N1 C6 C5 120.6(6) . .
C7 C6 C5 129.2(6) . .
C7 C10 C7 115.4(7) 8 .
N3 C2 C1 107.4(5) . .
N3 C2 C4 108.9(6) . .
C1 C2 C4 108.8(6) . .
N2 C8 C7 108.3(5) . .
N2 C8 C9 119.6(6) . .
C7 C8 C9 132.1(6) . .
loop_
_geom_bond_atom_site_label_1
_geom_bond_atom_site_label_2
_geom_bond_distance
_geom_bond_site_symmetry_2
Cu1 N3 1.920(5) .
Cu1 N1 1.974(5) .
Cu1 O3 2.001(4) .
Cu1 O1 2.027(5) .
Cu1 O2 2.231(5) .
O3 C1 1.290(8) .
N2 C8 1.330(8) .
N2 N1 1.354(7) .
C7 C8 1.387(9) .
C7 C6 1.417(9) .
C7 C10 1.503(8) .
O1 C3 1.265(8) .
C1 O2 1.250(8) 2_544
C1 C2 1.522(9) .
N1 C6 1.334(9) .
N3 C3 1.278(9) 7
N3 C2 1.454(8) .
C3 N3 1.278(9) 7
C3 C3 1.516(12) 7
O2 C1 1.250(8) 4
C6 C5 1.499(10) .
C10 C7 1.502(8) 8
C2 C4 1.529(12) .
C8 C9 1.504(9) .
