#------------------------------------------------------------------------------
#$Date: 2016-03-23 22:33:44 +0200 (Wed, 23 Mar 2016) $
#$Revision: 179485 $
#$URL: svn://www.crystallography.net/cod/cif/4/33/82/4338277.cif $
#------------------------------------------------------------------------------
#
# This file is available in the Crystallography Open Database (COD),
# http://www.crystallography.net/
#
# All data on this site have been placed in the public domain by the
# contributors.
#
data_4338277
loop_
_publ_author_name
'Lin, Lang'
'Yu, Rongmin'
'Wu, Xiao-Yuan'
'Yang, Wen-Bin'
'Zhang, Jian'
'Guo, Xiang-Guang'
'Lin, Zu-Jin'
'Lu, Can-Zhong'
_publ_section_title
;
 Enantioselective inclusion of alcohols by solvent-controlled assembled
 flexible metal-organic frameworks.
;
_journal_issue                   10
_journal_name_full               'Inorganic chemistry'
_journal_page_first              4794
_journal_page_last               4796
_journal_paper_doi               10.1021/ic500436g
_journal_volume                  53
_journal_year                    2014
_chemical_absolute_configuration ad
_chemical_formula_moiety         'C19 H24 Cu2 N6 O6'
_chemical_formula_sum            'C19 H24 Cu2 N6 O6'
_chemical_formula_weight         559.52
_chemical_name_systematic
;
 ?
;
_space_group_crystal_system      orthorhombic
_space_group_IT_number           19
_space_group_name_Hall           'P 2ac 2ab'
_space_group_name_H-M_alt        'P 21 21 21'
_symmetry_space_group_name_Hall  'P 2ac 2ab'
_symmetry_space_group_name_H-M   'P 21 21 21'
_atom_sites_solution_hydrogens   mixed
_audit_creation_method           SHELXL-2013
_cell_angle_alpha                90
_cell_angle_beta                 90
_cell_angle_gamma                90
_cell_formula_units_Z            4
_cell_length_a                   13.4134(5)
_cell_length_b                   14.0452(6)
_cell_length_c                   16.3011(8)
_cell_measurement_reflns_used    8396
_cell_measurement_temperature    293(2)
_cell_measurement_theta_max      27.5089
_cell_measurement_theta_min      2.8898
_cell_volume                     3071.0(2)
_computing_cell_refinement       'CrystalClear (Rigaku Inc., 2008)'
_computing_data_collection       'CrystalClear (Rigaku Inc., 2008)'
_computing_data_reduction        'CrystalClear (Rigaku Inc., 2008)'
_computing_molecular_graphics    DIAMOND
_computing_publication_material  'SHELXL-2013 (Sheldrick, 2013)'
_computing_structure_refinement  'SHELXL-2013 (Sheldrick, 2013)'
_computing_structure_solution    'SHELXL-2013 (Sheldrick, 2013)'
_diffrn_ambient_temperature      293(2)
_diffrn_detector_area_resol_mean 14.6306
_diffrn_measured_fraction_theta_full 0.971
_diffrn_measured_fraction_theta_max 0.998
_diffrn_measurement_method       CCD_Profile_fitting
_diffrn_radiation_type           MoK\a
_diffrn_radiation_wavelength     0.71073
_diffrn_reflns_av_R_equivalents  0.0279
_diffrn_reflns_av_unetI/netI     0.0296
_diffrn_reflns_Laue_measured_fraction_full 0.971
_diffrn_reflns_Laue_measured_fraction_max 0.998
_diffrn_reflns_limit_h_max       15
_diffrn_reflns_limit_h_min       -15
_diffrn_reflns_limit_k_max       16
_diffrn_reflns_limit_k_min       -16
_diffrn_reflns_limit_l_max       19
_diffrn_reflns_limit_l_min       -19
_diffrn_reflns_number            19553
_diffrn_reflns_point_group_measured_fraction_full 0.969
_diffrn_reflns_point_group_measured_fraction_max 0.998
_diffrn_reflns_theta_full        25.242
_diffrn_reflns_theta_max         24.997
_diffrn_reflns_theta_min         2.499
_exptl_absorpt_coefficient_mu    1.421
_exptl_absorpt_correction_T_max  0.918
_exptl_absorpt_correction_T_min  0.893
_exptl_absorpt_correction_type   multi-scan
_exptl_crystal_colour            green
_exptl_crystal_density_diffrn    1.210
_exptl_crystal_description       block
_exptl_crystal_F_000             1144
_exptl_crystal_size_max          0.080
_exptl_crystal_size_mid          0.080
_exptl_crystal_size_min          0.060
_refine_diff_density_max         1.115
_refine_diff_density_min         -0.517
_refine_diff_density_rms         0.159
_refine_ls_abs_structure_details
;
 Flack x determined using 2130 quotients [(I+)-(I-)]/[(I+)+(I-)]
 (Parsons and Flack (2004), Acta Cryst. A60, s61).
;
_refine_ls_abs_structure_Flack   0.037(6)
_refine_ls_extinction_method     none
_refine_ls_goodness_of_fit_ref   1.063
_refine_ls_hydrogen_treatment    constr
_refine_ls_matrix_type           full
_refine_ls_number_parameters     293
_refine_ls_number_reflns         5387
_refine_ls_number_restraints     0
_refine_ls_restrained_S_all      1.063
_refine_ls_R_factor_all          0.0486
_refine_ls_R_factor_gt           0.0467
_refine_ls_shift/su_max          0.000
_refine_ls_shift/su_mean         0.000
_refine_ls_structure_factor_coef Fsqd
_refine_ls_weighting_details
;
 w=1/[\s^2^(Fo^2^)+(0.1131P)^2^+0.6240P]
 where P=(Fo^2^+2Fc^2^)/3
;
_refine_ls_weighting_scheme      calc
_refine_ls_wR_factor_gt          0.1483
_refine_ls_wR_factor_ref         0.1514
_reflns_Friedel_coverage         0.776
_reflns_Friedel_fraction_full    0.968
_reflns_Friedel_fraction_max     0.998
_reflns_number_gt                5132
_reflns_number_total             5387
_reflns_threshold_expression     'I > 2\s(I)'
_cod_data_source_file            ic500436g_si_001.cif
_cod_data_source_block           L-3-2-PenOH
_cod_depositor_comments
'Adding full bibliography for 4338272--4338281.cif.'
_cod_database_code               4338277
#BEGIN Tags that were not found in dictionaries:
_shelx_space_group_comment
;
The symmetry employed for this shelxl refinement is uniquely defined
by the following loop, which should always be used as a source of
symmetry information in preference to the above space-group names.
They are only intended as comments.
;
_shelx_estimated_absorpt_t_min   0.895
_shelx_estimated_absorpt_t_max   0.920
_shelxl_version_number           2013-2
_shelx_res_file
;
TITL a in P2(1)2(1)2(1)
CELL 0.71073 13.4134 14.0452 16.3011 90.000 90.000 90.000
ZERR 4.0000 0.0005 0.0006 0.0008 0.000 0.000 0.000
LATT -1
SYMM 0.5-X, -Y, 0.5+Z
SYMM 0.5+X, 0.5-Y, -Z
SYMM -X, 0.5+Y, 0.5-Z
SFAC C H N O CU
UNIT 76 96 24 24 8
MERG 2
FMAP 2
GRID
PLAN 20
BOND
size 0.08 0.08 0.06
L.S. 30
ACTA
omit 0 50
WGHT    0.113100    0.624000
FVAR       0.35176
CU1   5    0.935667    0.539511    0.086880    11.00000    0.03712    0.03601 =
         0.02645   -0.00237   -0.00042   -0.00809
CU2   5    1.209687    0.792295    0.160268    11.00000    0.03692    0.03684 =
         0.02703    0.00064   -0.00547   -0.00815
N5    3    1.308310    0.802208    0.248385    11.00000    0.03670    0.03820 =
         0.03773   -0.00056   -0.00610    0.00555
O2    4    1.291397    0.852688    0.070973    11.00000    0.04015    0.04027 =
         0.03030    0.00163   -0.00095   -0.00871
O4    4    1.017789    0.638863    0.027619    11.00000    0.05243    0.04968 =
         0.02958   -0.00130   -0.00067   -0.01838
C4    1    1.070685    0.684620    0.078820    11.00000    0.03793    0.03764 =
         0.02815   -0.00209   -0.00057   -0.00673
O3    4    1.120819    0.698892    0.220233    11.00000    0.05921    0.06066 =
         0.02920    0.00483   -0.01134   -0.02884
O5    4    0.880742    0.451112    0.172049    11.00000    0.04507    0.03965 =
         0.03090   -0.00101   -0.00044   -0.00986
C16   1    1.438433    0.787837    0.334505    11.00000    0.03642    0.02884 =
         0.03466    0.00507   -0.00986    0.00162
N4    3    0.926587    0.450907   -0.006748    11.00000    0.04125    0.03145 =
         0.03414   -0.00633   -0.00162    0.00376
N6    3    1.284030    0.836510    0.322837    11.00000    0.03758    0.04480 =
         0.02877    0.00010   -0.00230    0.01007
AFIX  43
H6A   2    1.226886    0.860540    0.334823    11.00000   -1.20000
AFIX   0
O1    4    1.288771    0.887660   -0.062637    11.00000    0.05080    0.06218 =
         0.03710    0.00254    0.00561   -0.02056
C5    1    1.061241    0.658705    0.169428    11.00000    0.04728    0.04049 =
         0.02877   -0.00106   -0.00722   -0.01135
C8    1    0.901453    0.470774    0.246595    11.00000    0.04005    0.04728 =
         0.03120    0.00917   -0.00473   -0.01233
N3    3    0.898770    0.481479   -0.081786    11.00000    0.05531    0.03495 =
         0.02973   -0.00245    0.00093    0.01475
AFIX  43
H3D   2    0.878736    0.538457   -0.091859    11.00000   -1.20000
AFIX   0
O6    4    0.869833    0.427911    0.307105    11.00000    0.06738    0.06424 =
         0.03324    0.01177   -0.00251   -0.02879
C1    1    1.252825    0.849839   -0.001185    11.00000    0.03966    0.03667 =
         0.03174   -0.00292    0.00062   -0.00619
N2    3    0.993537    0.596499    0.182480    11.00000    0.05040    0.05202 =
         0.02640    0.00571   -0.00331   -0.02036
C2    1    1.150269    0.801879   -0.008787    11.00000    0.05510    0.04192 =
         0.02806   -0.00201   -0.00458   -0.01964
AFIX  13
H2A   2    1.150460    0.755976   -0.054064    11.00000   -1.20000
AFIX   0
N1    3    1.131759    0.753986    0.067923    11.00000    0.04100    0.04423 =
         0.02771    0.00236   -0.00369   -0.01476
C3    1    1.069571    0.879214   -0.023389    11.00000    0.04701    0.08073 =
         0.05342    0.01913   -0.01657   -0.01661
AFIX  33
H3A   2    1.005464    0.849430   -0.028594    11.00000   -1.50000
H3B   2    1.084639    0.913544   -0.072782    11.00000   -1.50000
H3C   2    1.068686    0.922511    0.022174    11.00000   -1.50000
AFIX   0
C19   1    1.542661    0.765734    0.364651    11.00000    0.03504    0.04042 =
         0.04976    0.01205   -0.01031   -0.00304
AFIX  23
H19A  2    1.588371    0.774058    0.319101    11.00000   -1.20000
H19B  2    1.560183    0.812486    0.406006    11.00000   -1.20000
AFIX   0
C15   1    1.403717    0.772904    0.254311    11.00000    0.04206    0.03758 =
         0.03864   -0.00285   -0.00435    0.00874
C17   1    1.359531    0.828675    0.375848    11.00000    0.05216    0.03754 =
         0.02906   -0.00046   -0.01400    0.00572
C11   1    0.940233    0.332879   -0.099223    11.00000    0.02812    0.04183 =
         0.03818   -0.01206    0.00669    0.00425
C12   1    0.952293    0.359702   -0.016919    11.00000    0.04512    0.03821 =
         0.03649    0.00120    0.00179    0.00393
C10   1    0.905776    0.413717   -0.138423    11.00000    0.04560    0.05486 =
         0.03796   -0.01090   -0.00240    0.01297
C13   1    0.986214    0.302184    0.053836    11.00000    0.12017    0.05595 =
         0.04132   -0.00089    0.00247    0.03670
AFIX  33
H13A  2    0.986189    0.340877    0.102382    11.00000   -1.50000
H13B  2    1.052469    0.279199    0.043645    11.00000   -1.50000
H13C  2    0.941989    0.249161    0.061380    11.00000   -1.50000
AFIX   0
C14   1    1.453633    0.732613    0.180785    11.00000    0.06326    0.10531 =
         0.04820    0.00096    0.00423    0.03852
AFIX  33
H14A  2    1.408067    0.732975    0.135372    11.00000   -1.50000
H14B  2    1.474071    0.668409    0.191978    11.00000   -1.50000
H14C  2    1.511030    0.770407    0.167473    11.00000   -1.50000
AFIX   0
C18   1    1.346671    0.865923    0.460909    11.00000    0.08438    0.07504 =
         0.03465   -0.01223   -0.01946    0.03063
AFIX  33
H18A  2    1.279603    0.888372    0.467868    11.00000   -1.50000
H18B  2    1.392419    0.917424    0.469973    11.00000   -1.50000
H18C  2    1.359718    0.815939    0.499616    11.00000   -1.50000
AFIX   0
C9    1    0.875725    0.436466   -0.225445    11.00000    0.11428    0.09739 =
         0.04086   -0.00696   -0.01412    0.05087
AFIX  33
H9A   2    0.855560    0.501925   -0.228907    11.00000   -1.50000
H9B   2    0.821216    0.396224   -0.241390    11.00000   -1.50000
H9C   2    0.931279    0.425723   -0.261401    11.00000   -1.50000
AFIX   0
C6    1    0.964390    0.559409    0.261623    11.00000    0.07986    0.08046 =
         0.02676    0.00573   -0.00726   -0.05242
AFIX   3
H6B   2    1.026250    0.539319    0.291153    11.00000   -1.20000
AFIX   0
C7    1    0.911346    0.630660    0.311359    11.00000    0.12496
AFIX  33
H7A   2    0.953489    0.685082    0.319539    11.00000   -1.50000
H7B   2    0.894307    0.603510    0.363555    11.00000   -1.50000
H7C   2    0.851633    0.649873    0.283431    11.00000   -1.50000
AFIX   0
HKLF 4

REM  a in P2(1)2(1)2(1)
REM R1 =  0.0467 for    5132 Fo > 4sig(Fo)  and  0.0486 for all    5387 data
REM    293 parameters refined using      0 restraints

END

WGHT      0.1024      0.5955

REM Highest difference peak  1.115,  deepest hole -0.517,  1-sigma level  0.159
Q1    1   1.2633  0.5298  0.3768  11.00000  0.05    1.12
Q2    1   0.8727  0.6523  0.2955  11.00000  0.05    0.96
Q3    1   1.2421  0.4583 -0.0179  11.00000  0.05    0.90
Q4    1   0.8267  0.1213  0.1062  11.00000  0.05    0.81
Q5    1   1.6192  0.9091  0.1443  11.00000  0.05    0.64
Q6    1   0.9563  0.6012  0.3323  11.00000  0.05    0.47
Q7    1   1.2608  0.8592  0.1660  11.00000  0.05    0.41
Q8    1   0.8784  0.4832  0.0880  11.00000  0.05    0.39
Q9    1   1.2201  0.9776 -0.0471  11.00000  0.05    0.38
Q10   1   0.8309  0.4409  0.0141  11.00000  0.05    0.36
Q11   1   1.2603  0.9636  0.4820  11.00000  0.05    0.35
Q12   1   0.9117  0.4270 -0.0126  11.00000  0.05    0.35
Q13   1   1.2951  0.6550 -0.1737  11.00000  0.05    0.34
Q14   1   1.1646  0.8476  0.1589  11.00000  0.05    0.34
Q15   1   1.7514  0.9745  0.3934  11.00000  0.05    0.33
Q16   1   1.3650  0.8434  0.4069  11.00000  0.05    0.32
Q17   1   0.8798  0.3950 -0.1480  11.00000  0.05    0.32
Q18   1   1.2986  0.9183  0.3151  11.00000  0.05    0.31
Q19   1   0.8810  0.4718  0.0041  11.00000  0.05    0.31
Q20   1   1.3957  0.8436  0.3539  11.00000  0.05    0.30
;
_shelx_res_checksum              12523
_shelx_hkl_file
;
   0   0   2    5.67    0.76
   0   0   3   -0.48    0.28
   0   0  -3   -0.35    0.30
   0   0  -3    0.38    0.54
   0   0   4   29.38    1.92
   0   0  -4   29.23    1.86
   0   0  -4   28.43    2.55
   0   0   5   -0.29    0.40
   0   0  -5    0.20    0.34
   0   0  -5    0.68    0.82
   0   0   6   80.16    4.96
   0   0  -6   79.96    4.87
   0   0  -6   73.04    4.72
   0   0   7   -0.03    0.39
   0   0  -7   -0.23    0.40
   0   0  -7   -2.84    1.52
   0   0  -8  721.26   15.07
   0   0  -8  699.63   16.24
   0   0  -9    0.37    0.35
   0   0  -9   -0.25    0.79
   0   0 -10   39.29    1.62
   0   0 -10   40.58    7.83
   0   0 -11   -0.26    0.50
   0   0 -11   -0.91    2.31
   0   0 -12 3493.06   10.86
   0   0 -12 3446.32   76.29
   0   0 -13    3.62    1.45
   0   0 -14    1.79    1.55
   0   0  14    2.38    1.75
   0   0  15   -0.70    2.59
   0   0  16   93.14   11.42
   0   0  17   -2.85    3.37
   0   0  18   15.73    5.00
   0   0  19   -0.45    3.30
   0   0  20    9.78    4.03
   0   0  21    2.53    1.47
   0  -1   2  122.18    6.83
   0   1  -2  126.44    7.03
   0   1   2  127.28    7.05
   0   1  -2  124.30    7.30
   0   1  -2  123.49    6.98
   0  -1   2  116.49    6.60
   0   1   3  215.86    5.30
   0  -1   3  203.45    5.30
   0   1  -3  214.31    5.65
   0  -1  -3  215.30    5.74
   0   1  -3  209.20    5.81
   0  -1   3  198.93    5.90
   0   1   4 1592.01   16.26
   0  -1  -4 1607.87   17.81
   0   1  -4 1540.88   17.78
   0  -1   4 1550.54   18.07
   0   1   5  331.55    8.09
   0   1  -5  326.61    8.45
   0   1   5  339.11    8.30
   0  -1  -5  337.26    9.08
   0   1  -5  314.32    8.73
   0  -1   5  338.79    9.57
   0   1   6   72.96    4.11
   0   1  -6   72.15    4.33
   0   1   6   76.86    4.34
   0  -1  -6   69.15    4.78
   0   1  -6   70.77    5.00
   0  -1   6   71.63    4.94
   0   1   7   75.14    4.29
   0   1   7   75.27    4.58
   0   1  -7   73.62    4.41
   0  -1  -7   74.23    4.82
   0   1  -7   73.13    4.95
   0  -1   7   77.06    8.10
   0   1   8   47.29    2.84
   0   1   8   38.56    2.68
   0   1  -8   41.66    3.64
   0  -1  -8   45.30    4.83
   0   1  -8   48.42    4.98
   0  -1   8   45.27    5.97
   0   1   9  742.86   15.36
   0   1   9  715.98   14.71
   0   1  -9  813.32   17.39
   0  -1  -9  741.54   17.43
   0   1  -9  741.79   17.59
   0  -1   9  766.90   18.64
   0   1  10  347.78   10.65
   0   1  10  351.02   10.83
   0   1 -10  365.48   11.66
   0  -1 -10  346.72   12.32
   0   1 -10  340.71   12.22
   0  -1  10  364.06   13.92
   0   1  11  227.38    9.62
   0   1  11  224.91    9.61
   0   1 -11  222.61    9.91
   0  -1 -11  220.96   11.09
   0   1 -11  216.41   10.75
   0  -1  11  232.46   11.82
   0   1 -12  142.03    4.66
   0  -1 -12  137.55    8.80
   0   1 -12  146.99    6.68
   0  -1  12  137.66   10.48
   0   1 -13  604.41   18.22
   0  -1 -13  605.63   19.79
   0  -1  13  605.04   21.45
   0  -1 -14   92.54    7.96
   0  -1  14   98.14   11.23
   0  -1 -15   28.95    6.80
   0  -1  15   26.64    8.85
   0  -1  16    3.10    2.21
   0   1  17   16.47    8.10
   0  -1  17   13.78    6.55
   0   1  18   -1.26    3.70
   0  -1  18    1.37    1.77
   0   1  19   22.65    8.31
   0  -1  19   23.39    5.54
   0   1  20   48.32   17.18
   0  -1  20   52.17   16.12
   0   1  21   39.79   11.89
   0  -1  21   36.09   10.36
   0   2   0   38.44    2.47
   0  -2   0   37.61    2.48
   0   2   1    3.25    0.91
   0   2  -1    1.87    1.03
   0   2   1    2.61    0.69
   0  -2  -1    2.93    0.63
   0  -2   1    1.55    1.15
   0   2   2  590.65   14.37
   0   2  -2  609.12    7.60
   0  -2  -2  613.76    7.09
   0  -2   2  595.02   32.17
   0  -2  -3  590.80   14.51
   0   2   3  568.09   13.97
   0   2  -3  587.60   14.78
   0   2   3  584.58   14.45
   0  -2  -3  579.77   14.35
   0  -2   3  563.74   14.76
   0  -2  -4   45.42    2.94
   0   2   4   43.67    2.78
   0   2  -4   43.57    2.82
   0  -2  -4   43.87    4.23
   0  -2   4   44.18    5.77
   0   2   5 1533.72   16.05
   0  -2  -5 1543.59   17.50
   0  -2   5 1552.58   18.80
   0   2   6 2528.60   25.77
   0   2  -6 2508.21   27.19
   0   2   6 2628.89   26.90
   0  -2  -6 2526.46   27.73
   0   2  -6 2468.14   28.24
   0  -2   6 2555.32   29.34
   0   2   7  199.88    5.18
   0   2  -7  185.75    5.58
   0   2   7  184.83    4.87
   0  -2  -7  201.02    6.32
   0   2  -7  195.95    6.64
   0  -2   7  200.99    7.00
   0   2   8    0.07    0.38
   0   2  -8    0.28    0.95
   0   2   8    1.32    0.28
   0  -2  -8    0.08    0.91
   0   2  -8    1.54    2.02
   0  -2   8    1.35    1.35
   0   2   9  111.40    1.47
   0   2  -9  114.38    2.90
   0  -2  -9  122.17    6.84
   0  -2   9  109.13   11.06
   0   2  10 1241.46   24.52
   0   2  10 1189.50   23.52
   0   2 -10 1190.21   25.34
   0  -2 -10 1228.87   27.09
   0  -2  10 1224.97   28.00
   0   2 -11  351.53   10.30
   0  -2 -11  357.22   13.79
   0  -2  11  352.84   12.23
   0   2 -12    6.12    1.68
   0  -2 -12    8.25    1.89
   0  -2  12    6.37    2.95
   0   2 -13   30.29    3.05
   0  -2 -13   32.18    7.40
   0  -2  13   37.00   12.98
   0  -2 -14    2.70    1.86
   0  -2  14    2.50    2.53
   0  -2 -15  156.44    9.35
   0  -2  15  160.52    7.78
   0  -2 -16   -3.15    2.03
   0  -2  16   -3.35    3.23
   0  -2  17   64.95   18.73
   0  -2  18  275.95   11.80
   0   2  19    2.80    2.75
   0  -2  19    1.26    2.11
   0   2  20    3.25    1.79
   0  -2  20    4.27    3.73
   0   3   0    1.37    1.34
   0  -3   0    1.93    2.37
   0   3   1    2.48    1.64
   0   3  -1    3.80    1.69
   0   3   1    1.93    1.04
   0  -3  -1    3.32    1.53
   0  -3   1    8.06    2.95
   0   3   2   50.15    3.55
   0   3  -2   47.22    3.86
   0   3   2   54.72    3.63
   0  -3  -2   49.85    3.20
   0  -3   2   63.37    5.02
   0   3   3  429.53   10.93
   0   3  -3  417.49   10.95
   0  -3  -3  450.94   11.31
   0  -3   3  426.95   11.77
   0   3   4   -0.11    0.86
   0   3  -4    0.62    1.17
   0  -3   4   -1.65    2.22
   0   3   5 1099.83   12.51
   0   3  -5 1104.07   13.69
   0  -3   5 1108.09   14.70
   0   3   6  808.93    9.48
   0   3  -6  806.43   10.72
   0  -3  -6  824.03   10.69
   0  -3   6  800.92   12.16
   0   3   7  810.67   16.96
   0   3  -7  801.27   17.96
   0  -3  -7  832.66   18.73
   0  -3   7  804.34   19.82
   0   3   8   80.50    4.59
   0   3  -8   81.69    5.09
   0   3   8   86.36    4.91
   0  -3  -8   85.70    6.06
   0  -3   8   76.33    5.65
   0   3   9   46.19    1.21
   0   3  -9   58.29    4.86
   0   3   9   48.80    1.56
   0  -3  -9   50.87    2.69
   0  -3   9   44.05    7.27
   0   3  10  670.69   17.59
   0   3 -10  663.86   19.12
   0   3  10  664.61   17.36
   0  -3 -10  683.68   19.82
   0  -3  10  688.01   21.02
   0   3 -11  157.48    8.17
   0  -3 -11  176.53   12.03
   0  -3  11  165.52    9.54
   0   3 -12   12.01    2.55
   0  -3 -12   12.72    3.51
   0  -3  12    7.15    2.88
   0   3 -13  111.00    5.47
   0  -3 -13  117.35    8.15
   0  -3  13  108.44    6.32
   0   3 -14  287.07    7.37
   0  -3 -14  295.53    9.15
   0  -3  14  291.37   10.44
   0  -3 -15   42.37   11.32
   0  -3  15   42.96   10.40
   0  -3 -16    9.56    2.60
   0  -3  16   10.77    5.43
   0  -3 -17   60.94    9.43
   0  -3  17   64.14   19.48
   0  -3  18  120.28   15.74
   0  -3  19   54.48   19.67
   0  -3  20   -1.81    3.23
   0   4   0  196.13    5.94
   0  -4   0  205.28    5.85
   0   4   1 2558.44   27.75
   0   4  -1 2580.70   28.32
   0  -4  -1 2714.19   28.76
   0  -4   1 2713.67   30.24
   0   4   2  881.17   11.56
   0   4  -2  856.99   11.56
   0  -4  -2  876.75   10.58
   0  -4   2  852.53   11.91
   0   4   3 1362.42   15.80
   0   4  -3 1306.11   15.99
   0  -4  -3 1381.10   15.54
   0  -4   3 1334.41   16.97
   0   4   4  520.85   13.31
   0   4  -4  514.79   13.60
   0  -4  -4  528.47   13.35
   0  -4   4  515.13   14.01
   0   4   5   54.61    3.45
   0   4  -5   59.83    5.34
   0  -4  -5   69.30    4.36
   0  -4   5   53.62    5.68
   0   4   6  516.63   15.00
   0   4  -6  514.77   15.88
   0  -4  -6  557.12   16.25
   0  -4   6  517.01   16.33
   0   4   7   92.69    5.47
   0   4  -7   94.73    5.93
   0  -4  -7   98.42    9.08
   0  -4   7   92.27    7.28
   0   4   8    2.43    1.11
   0   4  -8    1.66    1.28
   0  -4  -8    1.43    0.98
   0  -4   8    3.23    2.92
   0   4   9    1.96    0.55
   0   4  -9    1.18    1.24
   0  -4  -9    1.18    0.77
   0  -4   9    0.73    1.62
   0   4  10   45.00    2.35
   0   4 -10   48.22    3.85
   0  -4 -10   49.43    4.97
   0  -4  10   42.21    4.17
   0   4  11 1033.41   21.93
   0   4 -11 1057.47   24.83
   0  -4 -11 1056.46   24.96
   0  -4  11 1078.88   29.43
   0   4 -12  534.82   17.36
   0  -4 -12  550.97   18.20
   0  -4  12  525.62   19.36
   0   4 -13  155.17    5.35
   0  -4 -13  152.29    6.07
   0  -4  13  150.56    7.68
   0   4 -14   11.61    2.58
   0  -4 -14   11.17    2.90
   0  -4  14   11.77    2.87
   0  -4 -15  119.95   10.00
   0  -4  15  115.06    6.71
   0  -4 -16   64.78   11.33
   0  -4  16   73.13   19.57
   0  -4 -17   17.44    3.70
   0  -4  17   22.14    6.32
   0  -4  18    0.76    2.08
   0  -4  19   14.49    5.86
   0  -4  20   10.65    4.63
   0   5   0   -1.77    1.42
   0  -5   0   -0.59    1.20
   0   5   1   87.42    6.95
   0   5  -1   82.42    5.28
   0  -5  -1   85.94    5.27
   0  -5   1   80.21    5.55
   0   5   2    0.80    0.86
   0   5  -2    5.84    2.12
   0  -5  -2    0.88    0.73
   0  -5   2   -2.48    2.33
   0   5   3  470.82   12.53
   0   5  -3  478.49   13.25
   0  -5  -3  494.54   12.72
   0  -5   3  491.01   14.26
   0   5   4   41.42    3.94
   0   5  -4   43.55    4.80
   0  -5  -4   43.63    3.39
   0  -5   4   39.23    4.47
   0   5   5 1001.00   21.43
   0   5  -5 1030.95   23.04
   0  -5  -5 1048.92   22.19
   0  -5   5 1086.94   24.72
   0   5   6    8.09    2.48
   0   5  -6    8.78    2.44
   0  -5  -6    8.16    2.19
   0  -5   6    5.70    2.91
   0   5   7  429.02   12.89
   0   5  -7  419.46   13.72
   0  -5  -7  411.59   12.48
   0  -5   7  396.58   13.66
   0   5   8  879.42   18.99
   0   5  -8  877.22   20.43
   0  -5  -8  855.22   19.82
   0  -5   8  904.12   23.49
   0   5   9    8.54    2.03
   0   5  -9    9.15    3.44
   0  -5  -9    6.83    2.82
   0  -5   9    4.08    2.79
   0   5  10  180.98    8.14
   0   5 -10  173.07    8.84
   0  -5 -10  171.27   10.88
   0  -5  10  173.85    9.81
   0   5  11  354.25    8.51
   0   5 -11  362.78   10.57
   0  -5 -11  357.75   10.17
   0  -5  11  376.16   12.70
   0   5 -12   28.24    2.99
   0  -5 -12   25.17    5.66
   0  -5  12   23.82    9.09
   0   5 -13    3.13    1.23
   0  -5 -13    1.37    2.17
   0  -5  13    2.92    2.89
   0   5 -14   63.82    5.86
   0  -5 -14   58.00    3.84
   0  -5  14   58.19   16.35
   0  -5 -15   11.84    2.63
   0  -5  15   14.46    7.08
   0  -5 -16   33.88    8.86
   0  -5  16   39.19   11.69
   0  -5 -17  122.79    9.86
   0  -5  17  127.16    7.50
   0  -5  18   32.10    9.81
   0  -5  19    2.64    2.72
   0  -5  20   46.43   13.83
   0   6   0  158.61   10.23
   0  -6   0  175.34    7.16
   0   6   1  805.24   11.63
   0   6  -1  824.76   12.06
   0  -6  -1  832.54   11.16
   0  -6   1  791.84   12.59
   0   6   2  326.62   10.47
   0   6  -2  319.61    9.42
   0  -6  -2  337.63   10.17
   0  -6   2  329.79   10.21
   0   6   3  533.98   15.98
   0   6  -3  529.64   16.23
   0  -6  -3  540.38   15.82
   0  -6   3  515.88   16.78
   0   6   4    0.87    1.47
   0   6  -4    0.58    1.32
   0  -6  -4    1.90    0.96
   0  -6   4    3.94    2.52
   0   6   5 1472.02   31.23
   0   6  -5 1483.21   32.32
   0  -6  -5 1501.10   31.53
   0  -6   5 1472.83   33.03
   0   6   6   44.40    3.17
   0   6  -6   51.05    7.76
   0  -6  -6   50.74    4.34
   0  -6   6   43.24    7.20
   0   6   7 1803.58   12.65
   0   6  -7 1775.99   16.40
   0  -6  -7 1747.97   36.04
   0   6   8   21.76    5.58
   0   6  -8   27.20    5.00
   0  -6  -8   22.63    5.62
   0  -6   8   21.88    8.48
   0   6   9 1266.46   34.45
   0   6  -9 1277.61   36.25
   0  -6  -9 1249.49   34.04
   0  -6   9 1279.21   38.51
   0   6  10   48.80    2.80
   0   6 -10   44.43    3.59
   0  -6 -10   47.48    3.50
   0  -6  10   39.48    4.08
   0   6  11  229.51    7.49
   0   6 -11  228.57   12.80
   0  -6 -11  222.86   10.18
   0  -6  11  206.77   13.00
   0   6 -12   49.31   11.13
   0  -6 -12   43.90    3.04
   0  -6  12   49.47   15.46
   0   6 -13   16.03    3.60
   0  -6 -13   17.40    3.95
   0  -6  13   22.10    7.44
   0   6 -14    3.87    1.84
   0  -6 -14    3.48    1.90
   0  -6  14    5.02    3.62
   0   6 -15  161.87   12.83
   0  -6 -15  167.83   12.95
   0  -6  15  178.98   23.03
   0  -6  16   13.94    5.17
   0  -6  17   55.41   20.00
   0  -6  18    1.13    1.84
   0  -6  19   37.13   12.23
   0   7   0    1.05    0.94
   0  -7   0   -0.05    1.53
   0   7   1   45.54    3.63
   0   7  -1   41.81    4.29
   0  -7   1   46.29    3.98
   0  -7  -1   43.45    3.38
   0  -7   1   42.18    6.89
   0   7   2  110.12    6.98
   0   7  -2  103.32    6.79
   0  -7  -2  108.62    6.75
   0  -7   2  108.64   11.91
   0   7   3   46.62    5.25
   0   7  -3   49.79    6.82
   0  -7  -3   48.92    6.46
   0  -7   3   50.25    6.11
   0   7   4  598.47    7.90
   0   7  -4  583.99   18.53
   0  -7  -4  606.53   14.18
   0  -7   4  606.85   16.15
   0   7   5  399.40   13.40
   0   7  -5  400.22   13.96
   0  -7  -5  395.82   12.98
   0  -7   5  396.53   14.59
   0   7   6   10.58    3.78
   0   7  -6   11.10    3.54
   0  -7  -6    8.65    2.89
   0  -7   6   10.67    6.07
   0   7   7   32.05    2.56
   0   7  -7   29.38    3.29
   0  -7  -7   30.35    3.07
   0  -7   7   29.08   10.07
   0   7   8  778.59   22.81
   0   7  -8  792.54   24.11
   0  -7  -8  789.13   22.55
   0  -7   8  796.71   24.84
   0   7   9   25.07    3.34
   0   7  -9   24.58    7.04
   0  -7  -9   21.91    4.68
   0  -7   9   26.57    9.42
   0   7  10    0.17    0.57
   0   7 -10    1.79    2.09
   0  -7 -10    1.90    1.67
   0  -7  10    0.70    3.08
   0   7  11  107.96    4.26
   0   7 -11   80.89    6.48
   0  -7 -11   90.83    4.56
   0  -7  11   86.79   15.29
   0   7 -12   11.41    3.67
   0  -7 -12   11.17    2.44
   0  -7  12   10.62    4.58
   0   7 -13  197.50    6.45
   0  -7 -13  182.40    8.82
   0  -7  13  188.69    9.04
   0   7 -14   59.26    6.18
   0  -7 -14   55.46    5.12
   0  -7  14   59.63    6.34
   0   7 -15   21.20    5.35
   0  -7  15   24.58    9.63
   0  -7  16   29.33    9.81
   0  -7  17  156.61   17.72
   0  -7  18   24.14    9.01
   0  -7  19    8.31    5.08
   0   8   0  715.51   19.89
   0  -8   0  726.40   17.39
   0   8   1  647.43   16.07
   0   8  -1  604.40   14.96
   0  -8   1  627.94   14.90
   0  -8  -1  653.45   15.69
   0   8   2  420.39   12.82
   0   8  -2  398.22   13.99
   0  -8  -2  441.80   10.99
   0  -8   2  412.74   14.28
   0   8   3  572.15   14.20
   0   8  -3  555.06   14.14
   0  -8  -3  547.34   12.78
   0  -8   3  576.51   15.57
   0   8   4   82.23    4.41
   0   8  -4   87.55    4.58
   0  -8  -4   87.45    3.69
   0  -8   4   92.10    5.64
   0   8   5   14.07    4.89
   0   8  -5   17.89    4.07
   0  -8  -5   15.62    3.19
   0  -8   5   14.84    6.23
   0   8   6   13.66    3.81
   0   8  -6   14.70    4.45
   0  -8  -6   13.66    3.45
   0  -8   6   14.48    2.86
   0   8   7   11.32    3.21
   0   8  -7    8.80    3.04
   0  -8  -7   10.16    2.62
   0  -8   7   14.30    5.16
   0   8   8    1.55    1.12
   0   8  -8    3.11    1.86
   0  -8  -8    2.01    0.83
   0  -8   8    3.55    2.97
   0   8   9   27.91    2.74
   0   8  -9   33.49    8.00
   0  -8  -9   31.64    3.54
   0  -8   9   32.53   12.34
   0   8  10    3.46    1.40
   0   8 -10    1.63    1.33
   0  -8 -10    3.15    1.07
   0  -8  10    3.23    1.71
   0   8  11  138.49    5.94
   0   8 -11  153.97   13.84
   0  -8 -11  144.20    5.06
   0  -8  11  138.92    8.92
   0   8 -12  202.03    6.70
   0  -8 -12  196.73    7.57
   0  -8  12  204.51    9.14
   0   8 -13  284.28    7.66
   0  -8  13  286.68   11.58
   0   8 -14    1.77    2.14
   0  -8  14    1.76    3.48
   0   8 -15  257.35    9.79
   0  -8  15  238.77   10.52
   0  -8  16   30.64   10.77
   0  -8  17   35.50   16.50
   0  -8  18   11.80    2.65
   0   9   0    2.05    1.68
   0  -9   0    0.82    1.08
   0   9   1   54.20    5.34
   0   9  -1   58.20   10.72
   0  -9   1   51.14    4.06
   0  -9  -1   53.11    4.98
   0   9   2  460.16   14.46
   0   9  -2  452.67   15.17
   0  -9   2  468.03   14.65
   0  -9  -2  468.93   14.80
   0  -9   2  449.60   15.23
   0   9   3  374.64   12.23
   0   9  -3  364.11   12.39
   0  -9  -3  369.59   11.79
   0  -9   3  363.28   13.79
   0   9   4   21.56    7.77
   0   9  -4   21.32    5.90
   0  -9  -4   22.34    5.97
   0  -9   4   19.60    3.24
   0   9   5  691.28   22.59
   0   9  -5  723.48   22.28
   0  -9  -5  670.98   20.07
   0  -9   5  679.06   22.93
   0   9   6  155.77    4.86
   0   9  -6  148.76    5.88
   0  -9  -6  154.47    4.34
   0  -9   6  148.59    6.75
   0   9   7  270.45    9.74
   0   9  -7  267.56   10.46
   0  -9  -7  263.87   10.51
   0  -9   7  271.37   14.38
   0   9   8   15.18    5.13
   0   9  -8   15.73    3.46
   0  -9  -8   12.96    3.62
   0  -9   8   14.03    4.58
   0   9   9   32.79    3.80
   0   9  -9   40.11    4.02
   0  -9  -9   37.62    2.56
   0  -9   9   42.51    5.71
   0   9  10  268.19    7.94
   0   9 -10  280.48    8.96
   0  -9 -10  262.89    7.57
   0  -9  10  273.74   10.57
   0   9 -11   25.31    6.75
   0  -9  11   22.75    6.75
   0   9 -12   -0.60    1.96
   0  -9  12    0.32    1.72
   0   9 -13   -0.15    1.87
   0  -9  13    1.22    2.84
   0   9 -14  126.23   12.97
   0  -9  14  144.77    8.34
   0   9 -15    7.71    2.10
   0  -9  15   13.88    5.27
   0   9 -16    5.11    2.54
   0  -9  16    2.90    3.06
   0  -9  17   14.13    4.02
   0  -9  18    6.46    6.24
   0  10   0   77.43    7.07
   0 -10   0   76.46   10.83
   0  10   1   28.62    4.04
   0  10  -1   27.73    6.70
   0 -10   1   27.74    6.40
   0 -10  -1   24.81    5.80
   0  10   2  395.94   12.26
   0  10  -2  408.87   12.69
   0 -10   2  413.90   12.17
   0 -10  -2  417.61   11.82
   0  10   3  171.75    5.98
   0  10  -3  181.59    6.27
   0 -10  -3  178.99    6.95
   0 -10   3  179.32    8.13
   0  10   4   14.18    3.64
   0  10  -4   13.55    3.78
   0 -10  -4   14.05    4.82
   0 -10   4   17.93    5.36
   0  10   5  110.35    9.17
   0  10  -5  131.01   13.70
   0 -10  -5  115.58    6.86
   0 -10   5  123.53    6.54
   0  10   6  296.15   11.25
   0  10  -6  323.16   12.77
   0 -10  -6  293.51   10.61
   0 -10   6  312.62   12.95
   0  10   7    6.19    1.31
   0  10  -7    5.49    3.01
   0 -10  -7    7.59    1.98
   0 -10   7    4.80    3.59
   0  10   8    1.81    0.94
   0  10  -8    3.80    1.57
   0 -10  -8    1.89    1.03
   0 -10   8    3.58    3.14
   0  10   9  168.81    5.77
   0  10  -9  174.15    7.08
   0 -10   9  172.10    8.75
   0  10  10  297.33    6.68
   0  10 -10  312.26    9.65
   0 -10  10  310.55   10.35
   0  10 -11  103.20   18.03
   0 -10  11   93.39    6.72
   0  10 -12    9.96    1.98
   0 -10  12    7.94    4.48
   0  10 -13    4.38    1.78
   0 -10  13    4.80    2.98
   0  10 -14    1.70    1.75
   0 -10  14    2.09    1.40
   0  10 -15    7.11    2.63
   0 -10  15    6.66    4.59
   0  10 -16    8.50    2.49
   0 -10  16    4.60    3.47
   0 -10  17   25.69   10.50
   0  11   0    2.22    2.31
   0 -11   0    2.02    1.60
   0  11   1  147.12   11.43
   0  11  -1  150.85    7.58
   0 -11   1  156.34   10.00
   0 -11  -1  152.12    9.40
   0  11   2  110.44   10.76
   0  11  -2  114.86    5.32
   0 -11   2  117.97    6.03
   0 -11  -2  107.83    8.28
   0  11   3  255.58   15.24
   0  11  -3  275.38   11.20
   0 -11   3  267.11   10.67
   0 -11  -3  251.11    9.90
   0 -11   3  257.67   11.52
   0  11   4   88.53    9.05
   0  11  -4  105.31   14.93
   0 -11  -4   86.96   11.68
   0 -11   4   96.56    7.91
   0  11   5    3.36    2.29
   0  11  -5    2.38    2.12
   0 -11  -5    1.27    1.23
   0 -11   5    5.04    3.13
   0  11   6    7.64    2.69
   0  11  -6   11.52    4.08
   0 -11  -6   10.31    3.04
   0 -11   6   14.08    3.82
   0  11   7   53.50    5.27
   0  11  -7   60.69   11.07
   0 -11  -7   60.20    5.05
   0 -11   7   62.86    7.84
   0  11   8   71.28    4.27
   0  11  -8   73.69    5.31
   0 -11   8   76.29   14.22
   0  11   9    1.09    1.20
   0  11  -9    3.96    1.63
   0 -11   9    3.73    3.33
   0  11  10   11.98    3.32
   0  11 -10   15.83    4.63
   0 -11  10   19.32    6.70
   0  11 -11    0.11    1.36
   0 -11  11    3.46    4.32
   0  11 -12    7.09    2.32
   0 -11  12    2.30    4.50
   0  11 -13   70.85    8.86
   0 -11  13   80.95   10.30
   0  11 -14   30.23    7.15
   0 -11  14   41.82    6.02
   0  11 -15   68.84    6.19
   0 -11  15   71.07   20.30
   0  11 -16    3.13    2.30
   0 -11  16    4.64    1.88
   0  12   0  862.70   21.10
   0 -12   0  892.01   21.71
   0  12   1   26.39    9.21
   0  12  -1   26.39    8.23
   0 -12   1   27.43    8.55
   0 -12  -1   24.64    8.65
   0  12   2    8.10    3.19
   0  12  -2   10.40    2.91
   0 -12   2    6.32    2.75
   0 -12  -2    8.11    2.45
   0  12   3   60.19    8.30
   0  12  -3   76.54    7.04
   0 -12   3   68.68    6.72
   0 -12  -3   73.90    9.49
   0  12   4   14.13    5.01
   0  12  -4   15.30    4.62
   0 -12   4   12.81    3.76
   0 -12  -4   14.06    4.50
   0 -12   4   21.53    6.00
   0  12   5    1.57    0.79
   0  12  -5    1.23    1.04
   0 -12  -5    0.72    0.87
   0 -12   5    1.83    2.24
   0  12   6    1.59    1.20
   0  12  -6    0.89    1.44
   0 -12   6    0.64    3.29
   0  12   7    0.36    0.75
   0  12  -7    2.77    1.74
   0 -12   7    4.85    3.39
   0  12   8    8.68    3.24
   0  12  -8    6.87    2.27
   0 -12   8    2.52    2.39
   0  12   9   94.18    4.91
   0  12  -9   79.42    7.25
   0 -12   9   87.17   21.79
   0  12  10   11.07    4.82
   0  12 -10   10.86    2.64
   0 -12  10   10.05    6.24
   0  12 -11   10.70    1.59
   0 -12  11   11.13    5.13
   0  12 -12  287.40    9.73
   0 -12  12  292.86   14.15
   0  12 -13   -1.72    2.20
   0 -12  13   -2.32    3.73
   0  12 -14    2.18    1.68
   0 -12  14    1.45    2.00
   0  12 -15    2.37    2.60
   0 -12  15    6.08    5.06
   0  13   0    0.12    1.00
   0 -13   0   -0.88    2.06
   0  13   1   40.56   10.00
   0  13  -1   36.74   13.43
   0 -13   1   39.86    9.62
   0 -13  -1   41.75    4.57
   0  13   2  119.04   15.26
   0  13  -2  129.52   12.81
   0 -13   2  122.29    6.37
   0 -13  -2  125.47   11.00
   0  13   3   89.80   20.08
   0  13  -3   92.15    9.66
   0 -13   3  105.07    6.31
   0 -13  -3   94.21    6.62
   0  13   4  268.20   10.00
   0  13  -4  250.48   15.76
   0 -13   4  260.93   17.35
   0  13   5    5.24    2.35
   0  13  -5    5.08    2.45
   0 -13   5    6.26    2.02
   0 -13   5   10.05    3.58
   0  13   6   18.86    4.48
   0  13  -6   15.97    5.30
   0 -13   6   14.54    3.57
   0 -13   6   13.04    6.44
   0  13   7   35.26   11.37
   0  13  -7   38.82    8.98
   0 -13   7   35.67   10.57
   0  13   8  217.65    9.26
   0  13  -8  222.92    8.48
   0 -13   8  233.81   11.15
   0  13   9   13.51    3.24
   0  13  -9   14.61    3.99
   0 -13   9   13.12    9.23
   0  13 -10   28.92    7.49
   0 -13  10   21.90    5.93
   0  13 -11   -3.35    2.87
   0 -13  11   -1.73    3.94
   0  13 -12    0.87    2.49
   0 -13  12   -0.20    2.57
   0  13 -13   18.72    4.97
   0 -13  13   24.66    8.34
   0  13 -14   13.81    3.31
   0 -13  14   15.39    3.80
   0  14   0    1.15    1.72
   0 -14   0    1.35    1.92
   0  14   1    6.42    3.99
   0  14  -1    4.18    2.76
   0 -14   1    4.70    3.29
   0 -14  -1    7.51    2.37
   0  14   2   49.77   17.82
   0  14  -2   58.07   16.73
   0 -14   2   52.66    4.97
   0 -14  -2   48.02   12.12
   0  14   3    1.33    2.33
   0  14  -3    2.30    3.11
   0 -14   3    0.79    2.01
   0  14   4   14.93    3.25
   0  14  -4   16.46    6.21
   0 -14   4   19.28    3.58
   0  14   5   77.21    8.18
   0  14  -5   92.73    8.36
   0 -14   5   89.14    7.20
   0  14   6  398.68   15.02
   0  14  -6  368.39   10.75
   0 -14   6  378.17   12.30
   0 -14   6  382.39   14.54
   0  14   7   35.18    8.04
   0  14  -7   38.34    7.66
   0 -14   7   32.68    8.43
   0 -14   7   39.77   10.82
   0  14   8    4.08    1.95
   0  14  -8    4.02    2.44
   0 -14   8    3.57    4.08
   0  14   9    2.34    1.69
   0  14  -9   -0.53    1.28
   0 -14   9    0.61    2.72
   0  14 -10   78.99    6.64
   0 -14  10   76.85    8.03
   0  14 -11   22.65    5.20
   0 -14  11   20.17    7.00
   0  14 -12    2.01    2.51
   0 -14  12    6.59    5.62
   0  14 -13    4.76    2.77
   0 -14  13    3.44    3.24
   0  15   0    0.62    1.99
   0 -15   0    4.89    2.66
   0  15   1    1.64    1.70
   0  15  -1    1.68    1.96
   0 -15   1    3.67    2.86
   0  15   2  206.51    8.39
   0  15  -2  202.44   21.58
   0 -15   2  201.73   19.62
   0  15   3   19.65    4.77
   0  15  -3   18.64    5.87
   0 -15   3   20.20    6.45
   0  15   4   14.08    4.02
   0  15  -4   18.30    5.39
   0 -15   4   15.85    5.37
   0  15   5   82.44    9.21
   0  15  -5   71.07   17.54
   0 -15   5   75.06   17.55
   0  15   6    6.17    2.36
   0  15  -6    7.08    2.56
   0 -15   6   14.37    3.31
   0  15   7   84.26   10.95
   0  15  -7   91.95   11.10
   0 -15   7   82.63   17.17
   0 -15   7   77.04   22.90
   0  15   8   -0.13    1.82
   0  15  -8    1.42    2.54
   0 -15   8    6.38    2.06
   0 -15   8    0.51    4.13
   0  15   9    7.68    3.38
   0  15  -9   10.60    3.04
   0 -15   9   13.96    3.84
   0 -15   9    8.68    4.45
   0  15 -10   59.93   16.93
   0 -15  10   51.05   22.52
   0  15 -11    3.43    2.10
   0 -15  11    5.01    2.12
   0  15 -12    4.02    2.83
   0 -15  12    2.07    3.64
   0  16   0   96.17   13.38
   0  16   1   32.96    9.49
   0  16  -1   49.03   12.40
   0  16   2    3.30    2.01
   0  16  -2   -0.13    2.60
   0 -16   2    3.02    1.97
   0  16   3   23.88    8.09
   0  16  -3   24.06    7.39
   0 -16   3   24.79    8.31
   0  16   4   33.61   10.63
   0  16  -4   45.57   11.71
   0 -16   4   35.04    8.91
   0  16   5    1.99    1.82
   0  16  -5   -0.45    3.36
   0 -16   5   -0.18    2.68
   0  16   6    1.10    1.63
   0  16  -6    0.38    1.66
   0 -16   6    2.44    2.53
   0  16   7   -1.62    1.92
   0  16  -7    1.42    1.09
   0 -16   7   -1.18    2.60
   0  16   8    0.80    1.03
   0  16  -8    3.18    1.97
   0 -16   8    1.60    1.66
   0 -16   8    1.30    2.83
   0  16  -9   23.85    4.28
   0 -16   9   17.06    4.14
   0 -16   9    8.19    4.74
   0  16 -10    0.97    1.30
   0 -16  10    1.62    2.35
   0 -16  10    1.72    2.22
   0  17   0    2.08    3.06
   0  17   1   11.66    2.82
   0  17  -1    7.15    1.95
   0  17   2   19.91    4.43
   0  17  -2    6.87    3.05
   0  17   3    2.82    2.42
   0  17  -3   -0.39    2.85
   0  17   4   20.87    7.99
   0  17  -4   21.89    6.31
   0  17   5   26.68    7.16
   0  17  -5   25.61    7.23
   0 -17   5   27.91    6.98
   0  17   6    4.37    2.39
   0  17  -6    2.88    2.51
   0 -17   6    2.32    2.30
   0  17   7   11.14    4.74
   0  17  -7    7.90    4.15
   0 -17   7    8.35    4.77
   0  18   0    3.31    2.38
   0  18   1   -2.30    2.71
   0  18  -1    5.74    3.26
   0  18   2    2.56    2.97
   0  18  -2    4.60    2.42
   0  18   3    6.93    3.55
   0  18  -3    8.35    4.79
   1   0   2  105.17    5.78
  -1   0   2  106.15    5.98
   1   0  -2  103.19    5.78
  -1   0  -2  110.66    6.29
   1   0   3  214.38    5.27
  -1   0  -3  196.28    4.86
  -1   0   3  202.36    5.32
   1   0  -3  194.90    5.16
  -1   0  -3  196.11    5.53
  -1   0  -4 1346.21   13.77
   1   0  -4 1326.83   14.69
  -1   0  -4 1367.58   15.91
   1   0   5  279.63    6.87
  -1   0  -5  269.35    6.63
   1   0  -5  262.88    6.89
  -1   0  -5  280.34    7.99
  -1   0  -6    2.13    0.49
   1   0  -6    4.45    1.39
  -1   0  -6    9.13    2.68
   1   0   7   47.33    2.77
  -1   0  -7   42.64    2.58
   1   0  -7   45.96    2.96
  -1   0  -7   48.93    3.73
   1   0  -7   45.58    3.32
   1   0   8  130.74    4.08
  -1   0  -8  135.08    4.08
   1   0  -8  127.25    2.88
  -1   0  -8  127.36    3.92
   1   0   9 1455.19   29.31
  -1   0  -9 1450.45   29.28
   1   0  -9 1468.93   30.32
  -1   0  -9 1426.33   31.21
   1   0  10   64.43    2.16
  -1   0 -10   64.77    1.40
   1   0 -10   62.80    2.71
  -1   0 -10   63.54    4.24
   1   0  11  285.59    7.65
   1   0 -11  280.23    8.94
  -1   0 -11  291.04    7.76
  -1   0 -11  289.72   11.76
   1   0 -12  275.44    7.53
  -1   0 -12  271.35    9.44
   1   0 -13  185.59    6.42
  -1   0 -13  175.78    6.27
   1   0  13  166.38    7.11
  -1   0 -14  114.03    5.56
  -1   0  14  107.38    6.09
   1   0  14  125.68    7.46
  -1   0 -15   59.12    5.09
  -1   0  15   50.58    5.66
   1   0  15   57.36   15.13
  -1   0 -16    1.53    2.87
  -1   0  16    1.02    2.95
   1   0  16    1.24    2.63
  -1   0  17    7.41    3.61
   1   0  17    4.71    2.68
  -1   0  18   24.80    6.98
   1   0  18   16.43    6.82
  -1   0  19   28.17    7.32
   1   0  19   24.31    5.68
  -1   0  20   69.21   20.84
   1   0  20   62.92   17.57
   1   0  21   43.52   11.56
  -1   0  21   36.36   10.10
  -1   1   2 2684.98   27.52
   1  -1   2 2765.60   28.21
  -1   1  -2 2645.33   27.03
  -1  -1  -2 2568.74   25.79
   1   1  -2 2633.74   27.26
   1   1   2 2666.51   26.76
  -1   1  -2 2719.71   28.31
  -1   1   2 2708.55   27.20
   1  -1   2 2675.86   27.94
  -1   1   3    3.70    1.01
   1  -1   3    5.80    1.83
  -1   1  -3    6.34    1.26
  -1  -1  -3    4.89    0.53
   1   1  -3    5.79    1.48
   1   1   3    5.08    0.43
  -1   1   3    5.01    1.39
  -1  -1  -3    6.92    1.45
  -1   1  -3    6.86    1.91
  -1   1   3    3.64    1.95
   1  -1  -3    5.66    1.18
  -1  -1   3    3.72    1.41
   1  -1   3    4.80    2.58
   1  -1   4    3.41    0.66
  -1   1  -4    0.08    0.51
   1   1  -4    2.49    1.68
  -1   1   4    4.08    0.94
  -1  -1  -4    1.53    1.72
  -1   1  -4    1.75    1.30
   1  -1  -4    1.35    1.21
  -1  -1   4    1.20    1.38
   1  -1   4    3.14    2.70
   1   1  -5 1331.83   15.02
   1  -1  -5 1417.03   15.33
  -1  -1  -5 1341.77   15.99
  -1   1  -5 1391.89   16.82
   1  -1  -5 1393.17   15.91
  -1  -1   5 1380.52   16.79
   1  -1   5 1391.22   17.22
  -1   1  -6   21.90    1.91
   1   1  -6   20.89    1.80
   1  -1  -6   25.41    3.60
  -1  -1  -6   22.51    2.26
  -1   1  -6   19.09    2.31
   1  -1  -6   20.04    1.74
  -1  -1   6   22.38    4.43
   1  -1   6   21.46    7.31
  -1   1  -7  854.98   10.05
   1   1  -7  830.89   10.72
   1  -1  -7  844.27    9.95
  -1  -1  -7  844.22   12.10
  -1   1  -7  843.27   12.39
   1  -1  -7  847.46   11.50
  -1  -1   7  865.73   13.59
   1  -1   7  881.05   13.12
  -1   1  -8  129.76    4.40
   1   1  -8  123.47    4.04
   1  -1  -8  128.03    2.36
  -1  -1  -8  121.02    8.99
  -1   1  -8  130.89    5.79
   1  -1  -8  125.91    3.63
  -1  -1   8  118.38    7.45
   1  -1   8  126.83    4.55
  -1   1  -9   71.04    5.89
   1   1  -9   66.10    4.44
  -1  -1  -9   58.14    4.33
  -1   1  -9   75.37   11.69
   1  -1  -9   64.80    5.44
  -1  -1   9   64.05    7.74
   1  -1   9   63.60    5.75
  -1   1  10   11.27    3.34
  -1   1 -10   10.67    2.39
   1   1 -10   10.48    2.96
  -1  -1 -10   11.53    3.51
  -1   1 -10   10.39    3.33
   1  -1 -10   12.18    3.69
  -1  -1  10   11.82    4.51
   1  -1  10   10.69    4.35
  -1   1  11 1454.15   38.52
  -1   1 -11 1544.12    9.16
  -1  -1 -11 1454.87   41.01
  -1   1 -11 1430.29   39.82
   1  -1 -11 1472.61   41.06
  -1  -1  11 1576.16   20.04
   1  -1  11 1467.25   42.58
  -1   1  12  363.10    8.96
  -1   1 -12  362.24    8.77
   1   1 -12  379.94    9.71
  -1  -1 -12  363.63   11.13
  -1   1 -12  374.68   13.16
  -1  -1  12  378.73   11.95
   1  -1  12  360.80   11.71
   1   1 -13  349.37   11.34
  -1  -1 -13  347.64   13.20
  -1   1 -13  340.24   13.12
  -1  -1  13  336.46   18.72
   1  -1  13  341.01   13.43
  -1  -1 -14  153.48    9.76
  -1   1 -14  132.34    6.07
  -1  -1  14  140.88    7.80
   1  -1  14  137.18    7.11
  -1  -1 -15   24.36    3.17
  -1   1 -15   23.70    3.77
  -1  -1  15   16.59    4.92
   1  -1  15   26.09    8.81
  -1  -1 -16    4.16    2.47
  -1  -1  16    9.40    4.14
   1  -1  16    2.11    1.21
  -1  -1 -17  185.81    9.49
  -1   1  17  179.08    9.41
   1   1  17  185.27    9.62
   1  -1  17  188.71    9.78
  -1  -1  17  198.69    9.14
  -1   1  18    5.41    2.49
   1   1  18    5.67    3.19
  -1  -1  18    4.46    3.23
   1  -1  18    6.05    3.54
  -1   1  19   43.13   18.47
   1   1  19   40.37   12.15
  -1  -1  19   49.68   14.56
   1  -1  19   53.63   13.01
  -1   1  20   -2.08    2.69
   1   1  20    3.10    3.01
  -1  -1  20    4.57    2.53
   1  -1  20   -0.65    2.66
  -1   1  21    9.06    3.97
   1   1  21    4.82    5.21
  -1  -1  21    8.90    4.49
   1  -1  21   10.46    5.41
  -1   2   0  641.61    7.79
   1   2   0  599.40   32.19
  -1  -2   0  590.36   14.62
   1  -2   0  632.55    7.97
  -1   2   1 1634.07   17.58
   1   2   1 1721.84   18.22
  -1  -2   1 1610.60   17.63
  -1  -2  -1 1605.48   17.47
  -1   2  -1 1703.59   18.03
   1  -2   1 1610.33   17.75
  -1  -2   1 1712.59   18.66
  -1   2  -2 2820.96   29.45
   1   2   2 2813.52   28.80
   1   2  -2 2869.13   30.14
  -1   2  -2 2773.17   29.16
   1  -2   2 2885.88   30.57
  -1   2   4  192.50    5.79
  -1  -2  -4  190.46    4.85
  -1   2  -4  206.58    6.48
   1   2   4  219.75    5.52
   1   2  -4  195.98    5.66
  -1  -2  -4  196.15    5.75
   1  -2  -4  215.86    5.70
  -1   2  -4  219.45    6.51
   1  -2   4  199.69    6.30
  -1  -2   4  203.83    6.30
  -1   2   5  170.68    4.80
  -1  -2  -5  172.97    4.35
   1   2  -5  171.07    5.19
  -1  -2  -5  171.29    5.38
   1  -2   5  166.91    5.69
  -1  -2   5  205.95    6.33
  -1   2   6  459.53   11.57
  -1   2  -6  478.76   12.23
   1   2  -6  443.24   11.66
  -1  -2  -6  455.44   12.20
   1  -2  -6  477.30   12.38
  -1   2  -6  472.17   12.98
   1  -2   6  462.25   12.78
  -1  -2   6  438.88   12.15
  -1   2   7  344.60   10.17
  -1   2  -7  301.84    9.47
   1   2  -7  331.46   10.27
  -1  -2  -7  339.53   10.77
   1  -2  -7  305.56    9.53
  -1   2  -7  300.17   10.02
  -1  -2   7  291.30    9.85
   1  -2   7  351.22   11.68
  -1   2   8  292.10    8.71
  -1   2  -8  259.53    8.26
   1   2  -8  292.17    9.49
  -1  -2  -8  290.56   10.05
   1  -2  -8  263.18    8.62
  -1   2  -8  258.24    9.24
   1  -2   8  291.09   10.77
  -1  -2   8  265.88    9.32
  -1   2   9  367.31   11.63
  -1   2  -9  329.31   10.61
   1   2  -9  325.85   10.95
  -1  -2  -9  372.34   12.89
   1  -2  -9  326.64   11.14
  -1   2  -9  324.50   11.81
   1  -2   9  368.34   13.57
  -1  -2   9  305.62   11.57
  -1   2  10  454.44   10.09
  -1   2 -10  495.47   11.13
   1   2 -10  440.78   10.51
  -1  -2 -10  438.88   11.58
  -1   2 -10  480.66   13.09
   1  -2 -10  477.12   12.72
  -1  -2  10  504.90   14.37
   1  -2  10  432.37   12.46
  -1   2  11   71.97    2.09
  -1   2 -11   69.38    4.17
   1   2 -11   68.16    4.73
  -1  -2 -11   76.36    5.36
  -1   2 -11   75.16    8.07
   1  -2 -11   68.79    5.41
  -1  -2  11   69.58   14.87
   1  -2  11   72.26    9.49
  -1   2  12  134.55    2.56
  -1   2 -12  145.36    6.35
   1   2 -12  132.28    5.46
  -1  -2 -12  141.23    8.39
  -1   2 -12  139.91    6.20
   1  -2 -12  146.90    5.06
   1  -2  12  145.69   12.11
  -1  -2  12  148.09    7.63
  -1   2 -13  535.65   16.86
   1   2 -13  481.47   16.16
  -1  -2 -13  498.70   17.02
  -1   2 -13  500.91   17.37
   1  -2 -13  504.50   16.85
  -1  -2  13  495.40   26.62
   1  -2  13  532.06   20.72
   1   2 -14  289.96    7.32
  -1  -2 -14  295.70   11.75
  -1   2 -14  273.99    9.24
  -1  -2  14  272.80    9.73
   1  -2  14  319.01   10.97
  -1  -2 -15    7.38    2.52
   1  -2  15   12.93    3.98
  -1  -2  15    2.12    2.28
  -1  -2 -16   15.27    3.27
   1  -2  16   19.52    6.27
  -1  -2  16   12.88    5.04
  -1  -2 -17   35.42    9.48
  -1  -2  17   33.56    9.96
   1  -2  17   40.24   10.43
  -1  -2 -18   83.34   12.10
  -1  -2  18   70.55    6.76
   1  -2  18   78.83   24.40
  -1   2  19  113.62    8.11
   1   2  19   85.18   16.16
   1  -2  19   93.77   10.21
  -1  -2  19   96.35   21.18
  -1   2  20   28.42    9.67
   1   2  20   31.43   10.60
   1  -2  20   40.22   13.89
  -1  -2  20   34.82   14.37
  -1  -3   0 4006.43   42.14
   1  -3   0 4252.34   44.91
  -1   3   1 2334.72   25.20
  -1   3  -1 2495.71   27.00
   1   3   1 2471.36   26.40
   1   3  -1 2367.61   25.70
  -1  -3   1 2437.96   26.45
   1  -3  -1 2497.46   25.46
  -1  -3  -1 2334.99   26.72
   1  -3   1 2336.30   26.15
  -1   3  -2  306.71    8.50
   1   3  -2  344.17    9.30
  -1   3   2  351.65    8.70
  -1  -3  -2  346.71    9.35
  -1  -3   2  327.56    9.81
  -1   3   3  435.60   11.15
  -1   3  -3  494.64   12.89
   1   3   3  479.83   12.10
   1   3  -3  440.17   12.10
  -1   3   3  457.20   11.21
  -1  -3  -3  439.88   11.48
   1  -3  -3  493.94   11.96
  -1   3  -3  462.10   12.11
   1  -3   3  425.66   12.09
  -1  -3   3  463.16   12.23
  -1   3   4  537.89   13.53
  -1   3  -4  484.30   12.54
   1   3   4  501.15   12.43
   1   3  -4  522.60   13.90
  -1   3   4  531.11   13.04
  -1  -3  -4  571.27   14.65
   1  -3  -4  529.18   12.99
  -1   3  -4  500.73   13.24
   1  -3   4  543.95   14.59
  -1  -3   4  496.32   13.29
  -1  -3  -5  161.40    8.92
   1   3  -5  157.20    9.10
   1  -3  -5  135.92    7.71
  -1   3  -5  139.29    8.39
  -1  -3  -6 1137.76   12.32
  -1   3   6 1126.42   13.15
  -1   3  -6 1158.30   14.90
   1   3   6 1146.95   12.47
   1   3  -6 1116.16   14.42
  -1  -3  -6 1130.11   14.33
   1  -3  -6 1196.94   14.03
  -1   3  -6 1178.18   15.99
   1  -3   6 1106.20   15.32
  -1  -3   6 1157.25   16.32
  -1   3   7    6.93    1.92
  -1   3  -7   12.78    2.03
   1   3   7   11.16    1.59
   1   3  -7    4.54    2.14
   1  -3  -7   18.45    3.31
  -1   3  -7    9.10    4.82
   1  -3   7    5.82    2.28
  -1  -3   7    9.23    3.45
  -1   3   8  124.78    3.25
  -1   3  -8  130.94    4.87
   1   3  -8  125.02    3.60
  -1  -3  -8  138.57    5.57
   1  -3  -8  139.38    5.32
  -1   3  -8  135.20    6.07
   1  -3   8  116.68    7.78
  -1  -3   8  136.79    6.10
  -1   3   9   20.40    3.61
  -1   3  -9   20.16    1.74
   1   3  -9   22.46    2.48
  -1  -3  -9   19.91    5.20
   1  -3  -9   17.01    4.98
  -1   3  -9   19.76    7.86
   1  -3   9   19.92    8.07
  -1  -3   9   16.19    6.90
  -1   3  10  374.99   10.78
  -1   3 -10  344.33   10.62
   1   3 -10  357.74   11.80
  -1  -3 -10  378.63   12.53
   1  -3 -10  372.17   11.46
  -1   3 -10  364.98   12.22
   1  -3  10  375.18   12.92
  -1  -3  10  347.78   13.46
  -1   3  11  750.16   20.21
  -1   3 -11  760.22   21.23
   1   3 -11  763.91   22.36
  -1  -3 -11  768.58   22.36
   1  -3 -11  742.80   21.41
  -1   3 -11  740.10   22.20
  -1  -3  11  720.09   22.74
   1  -3  11  763.44   26.88
  -1   3  12  245.26    7.75
  -1   3 -12  249.28    9.57
   1   3 -12  238.70    8.62
  -1  -3 -12  213.22   10.63
   1  -3 -12  287.05   15.59
  -1  -3  12  260.63   14.35
   1  -3  12  258.19   10.83
  -1   3 -13  123.57    3.69
   1   3 -13  157.99   10.65
  -1  -3 -13  141.85    5.87
   1  -3 -13  148.84   16.13
  -1  -3  13  118.30   11.53
   1  -3  13  144.34    8.18
   1   3 -14    6.67    2.05
  -1  -3 -14    5.29    1.46
   1  -3 -14    7.08    2.17
   1  -3  14    4.29    2.46
  -1  -3  14    4.34    1.94
  -1  -3 -15  117.84   17.44
   1  -3  15  106.35   10.05
  -1  -3  15  101.11    6.98
  -1  -3 -16   69.53   14.34
   1  -3  16   81.84    8.01
  -1  -3  16   60.94   11.71
  -1  -3 -17   43.91   11.55
   1  -3  17   64.24   15.73
  -1  -3  17   63.50    6.93
  -1  -3 -18   58.42    6.51
  -1  -3  18   62.78   20.00
   1  -3  18   78.49   20.76
  -1  -3 -19    6.89    1.69
   1  -3  19    4.66    2.66
  -1  -3  19    4.28    1.60
   1  -3  20   43.16   10.95
  -1  -3  20   50.22   16.03
  -1   4   0   26.61    4.65
   1   4   0   25.55    2.67
  -1  -4   0   25.39    2.40
   1  -4   0   12.26    5.97
  -1   4   1   60.80    4.10
  -1   4  -1   77.05    4.89
   1   4   1   81.60    5.04
   1   4  -1   64.25    4.29
  -1  -4   1   85.69    5.65
   1  -4  -1   78.49    4.57
  -1  -4  -1   63.22    4.13
   1  -4   1   70.18    5.07
  -1  -4   1   78.67    5.42
  -1   4   2  982.07   12.40
  -1   4  -2  932.60   12.14
   1   4   2  930.14   11.52
   1   4  -2  956.15   12.34
   1  -4  -2  940.70   10.57
  -1  -4  -2  958.92   12.05
   1  -4   2  970.11   13.43
  -1  -4   2  933.67   12.72
  -1   4  -3  677.23    9.64
   1   4  -3  602.37   32.76
  -1  -4  -3  623.08    8.77
   1  -4   3  601.15   32.89
  -1  -4   3  660.89    9.92
  -1   4   4  423.27   11.15
   1   4   4  356.85    9.42
   1   4  -4  407.57   11.48
  -1   4   4  428.60   10.84
  -1  -4  -4  431.37   11.52
   1  -4  -4  386.97    9.67
   1  -4   4  420.27   11.97
  -1  -4   4  369.79   10.64
  -1   4   5  504.22   13.14
  -1   4  -5  451.60   12.28
   1   4   5  442.13   11.50
   1   4  -5  497.08   13.28
  -1  -4  -5  512.66   13.44
   1  -4  -5  460.69   11.84
   1  -4   5  498.21   14.05
  -1  -4   5  456.94   12.78
  -1   4   6  485.78   14.21
  -1   4  -6  420.46   12.84
   1   4   6  433.19   12.59
   1   4  -6  435.36   13.36
  -1  -4  -6  448.64   13.52
   1  -4  -6  485.37   14.05
   1  -4   6  487.13   16.07
  -1  -4   6  430.65   13.66
  -1   4   7 1214.72   25.41
  -1   4  -7 1216.34   26.23
   1   4   7 1227.35   25.31
   1   4  -7 1144.37   25.43
  -1  -4  -7 1179.69   25.51
   1  -4  -7 1218.23   25.79
   1  -4   7 1231.12   29.94
  -1  -4   7 1207.95   27.03
  -1   4   8  390.00   12.62
  -1   4  -8  404.85    6.14
   1   4   8  399.23   12.41
   1   4  -8  398.39   13.35
  -1  -4  -8  383.36   12.90
   1  -4  -8  398.14   13.08
   1  -4   8  376.06   13.53
  -1  -4   8  386.46   13.91
  -1   4   9  292.58    9.52
  -1   4  -9  287.61    9.98
   1   4   9  271.07    8.46
   1   4  -9  259.31    9.65
   1   4   9  270.84    8.45
  -1  -4  -9  249.75   10.71
   1  -4  -9  306.20   10.52
   1  -4   9  267.37   10.87
  -1  -4   9  265.16   10.67
  -1   4  10   76.39    4.09
  -1   4 -10   82.18    6.60
   1   4 -10   83.03    7.98
  -1  -4 -10   80.81    5.69
   1  -4 -10   78.87    4.15
   1  -4  10   78.61    4.67
  -1  -4  10   75.43    4.78
  -1   4  11   26.52    1.42
  -1   4 -11   32.45    3.76
   1   4 -11   27.05    2.72
  -1  -4 -11   28.51    7.03
   1  -4 -11   27.67    5.20
   1  -4  11   26.07    9.65
  -1  -4  11   30.06   11.50
  -1   4 -12  178.57    7.05
   1   4 -12  188.38    5.19
  -1  -4 -12  203.55   15.71
   1  -4 -12  183.49    8.84
   1  -4  12  185.42    7.05
  -1  -4  12  174.60   12.73
  -1   4 -13  235.11    6.20
   1   4 -13  205.83    5.99
  -1  -4 -13  207.57   10.83
   1  -4 -13  239.39    8.12
   1  -4  13  205.96   15.55
  -1  -4  13  238.63    9.06
  -1   4 -14    3.70    1.39
   1   4 -14   -0.66    1.37
  -1  -4 -14    0.19    1.32
   1  -4 -14    2.87    1.14
   1  -4  14    1.38    2.09
  -1  -4  14    4.77    2.30
  -1  -4 -15   91.38    6.33
   1  -4  15   89.68   12.72
  -1  -4  15  105.24    7.17
  -1  -4 -16   78.66    7.63
   1  -4  16   85.44   11.63
  -1  -4  16   80.97    9.38
  -1  -4 -17   10.42    2.27
   1  -4  17    9.59    6.11
  -1  -4  17   14.54    4.12
  -1  -4 -18   14.93    6.38
   1  -4  18   20.19    3.83
  -1  -4  18   12.91    7.68
  -1  -4 -19   74.77    7.52
   1  -4  19   85.75    7.86
  -1  -4  19   79.63    8.27
   1  -4  20   31.32   11.06
  -1  -4  20   28.70    9.77
  -1   5   0  691.45   10.12
   1   5   0  701.70   10.11
  -1  -5   0  727.16   10.69
   1  -5   0  718.29   11.34
  -1   5   1   39.83    3.26
  -1   5  -1   37.46    3.49
   1   5   1   43.76    6.37
   1   5  -1   43.97    4.85
  -1  -5   1   39.71    3.00
   1  -5  -1   38.91    3.38
  -1  -5  -1   42.32    3.39
   1  -5   1   43.78    7.36
  -1  -5   1   38.00    4.61
  -1   5   2  601.79   32.78
  -1   5  -2  570.45   15.27
   1   5   2  569.86   14.86
   1   5  -2  592.66   15.64
   1  -5  -2  581.18   14.73
  -1  -5  -2  609.81    8.97
   1  -5   2  595.59   32.69
  -1  -5   2  580.00   15.69
  -1   5   3  652.49    9.74
  -1   5  -3  633.62    9.81
   1   5   3  642.83    9.12
   1   5  -3  626.81    9.68
  -1  -5  -3  658.73    9.56
   1  -5  -3  671.46    8.22
   1  -5   3  656.55   14.55
  -1  -5   3  637.62   10.28
  -1   5   4  670.41    9.78
  -1   5  -4  667.27   10.26
   1   5   4  677.57    9.46
   1   5  -4  695.05   10.72
  -1  -5  -4  678.40   10.01
   1  -5   4  694.19   11.36
  -1  -5   4  687.67   11.13
  -1   5   5  359.19   11.11
  -1   5  -5  378.34   11.91
   1   5   5  384.21   11.91
   1   5  -5  362.40   11.55
  -1  -5  -5  382.78   11.84
   1  -5  -5  412.37   11.91
   1  -5   5  382.52   14.64
  -1  -5   5  368.70   12.04
  -1   5   6  351.08   10.80
  -1   5  -6  360.05   11.95
   1   5   6  361.11   11.29
   1   5  -6  352.68   11.85
  -1  -5  -6  367.03   11.48
   1  -5  -6  363.36   10.94
   1  -5   6  349.75   12.32
  -1  -5   6  375.21   12.58
  -1   5   7  875.07   19.42
  -1   5  -7  829.90   19.10
   1   5   7  849.37   18.21
   1   5  -7  857.54   19.80
  -1  -5  -7  895.66   20.94
   1  -5  -7  825.79   18.04
   1  -5   7  830.88   25.16
  -1  -5   7  827.27   19.82
  -1   5  -8  623.48   15.64
   1   5   8  617.01   13.39
   1   5  -8  663.08   16.13
  -1  -5  -8  679.26   15.63
   1  -5  -8  615.44   13.70
   1  -5   8  668.86   18.18
  -1  -5   8  630.76   16.83
  -1   5   9  140.26    6.91
  -1   5  -9  140.35    9.30
   1   5   9  154.54    6.93
   1   5  -9  139.99    7.26
  -1  -5  -9  135.09    9.31
   1  -5  -9  147.32    7.07
   1  -5   9  137.31    8.00
  -1  -5   9  148.69    8.78
  -1   5  10  382.79   11.27
  -1   5 -10  382.97   12.33
   1   5  10  370.62   10.40
   1   5 -10  377.21   12.16
  -1  -5 -10  381.02   11.95
   1  -5 -10  388.22   12.26
   1  -5  10  370.21   12.92
  -1  -5  10  377.64   14.08
  -1   5  11    8.74    2.94
  -1   5 -11   20.43    5.34
   1   5 -11   20.00    6.46
  -1  -5 -11   16.71    4.63
   1  -5 -11   19.56    3.40
   1  -5  11   20.83    4.84
  -1  -5  11   21.36    7.76
  -1   5 -12  569.21   13.82
   1   5 -12  524.12   12.76
  -1  -5 -12  527.14   12.88
   1  -5 -12  572.63   13.19
   1  -5  12  510.36   20.82
  -1  -5  12  585.69   16.61
  -1   5 -13    4.06    1.16
   1   5 -13    3.00    1.67
  -1  -5 -13    2.51    2.02
   1  -5 -13    5.41    1.18
   1  -5  13    5.49    1.78
  -1  -5  13    2.85    2.90
  -1   5 -14   67.73    7.96
   1   5 -14   80.24    4.24
  -1  -5 -14   82.20    6.10
   1  -5 -14   68.25    5.96
   1  -5  14   86.49   11.31
  -1  -5  14   74.61   21.20
   1   5 -15   20.70    6.75
  -1  -5 -15   17.57    5.60
   1  -5 -15   20.96    4.82
   1  -5  15   21.17    7.85
  -1  -5  15   22.99    6.64
  -1  -5 -16  189.16   15.42
   1  -5  16  173.76    9.20
  -1  -5  16  196.15   12.16
  -1  -5 -17   19.35    4.76
   1  -5  17   27.96    6.83
  -1  -5  17   31.95    8.53
  -1  -5 -18   18.06    3.33
   1  -5  18   24.35    8.91
  -1  -5  18   25.36    8.60
   1  -5  19    4.21    3.29
  -1  -5  19    6.03    4.04
   1  -5  20   30.49    8.58
  -1  -5  20   33.05   10.44
  -1   6   0   14.75    2.52
   1   6   0   15.08    3.96
  -1  -6   0   15.93    6.02
  -1   6   1  170.60    5.77
  -1   6  -1  173.91    6.01
   1   6   1  177.74    7.97
   1   6  -1  171.96    5.95
  -1  -6   1  177.76    6.05
   1  -6  -1  176.05    5.28
  -1  -6  -1  171.81    5.82
   1  -6   1  162.05    9.87
  -1  -6   1  166.89    6.21
  -1   6   2   11.21    3.33
  -1   6  -2    3.93    1.79
   1   6   2    4.92    1.10
   1   6  -2   12.58    4.29
   1  -6  -2    5.81    1.78
  -1  -6  -2   11.81    5.65
   1  -6   2   13.88    3.83
  -1  -6   2    3.04    1.75
  -1   6   3  602.11   13.98
  -1   6  -3  647.38   15.33
   1   6   3  668.07   15.28
   1   6  -3  603.03   14.37
   1  -6  -3  668.65   14.37
  -1  -6  -3  614.22   14.80
   1  -6   3  624.14   16.20
  -1  -6   3  654.25   15.99
  -1   6   4  314.94   10.18
  -1   6  -4  295.54    9.95
   1   6   4  295.73    9.44
   1   6  -4  335.70   11.17
  -1  -6  -4  324.79   10.28
   1  -6  -4  334.18    9.98
   1  -6   4  352.69   12.54
  -1  -6   4  292.19   10.21
  -1   6   5    8.54    2.65
  -1   6  -5    9.75    2.15
   1   6   5    8.72    2.45
   1   6  -5   10.74    2.88
  -1  -6  -5    9.36    2.73
   1  -6  -5    6.63    1.51
   1  -6   5   15.57    4.81
  -1  -6   5    6.58    3.39
  -1   6   6 1419.25   29.83
  -1   6  -6 1379.88   30.12
   1   6   6 1393.87   29.19
   1   6  -6 1437.57   31.09
  -1  -6  -6 1479.10   31.20
   1  -6  -6 1425.98   29.27
   1  -6   6 1459.84   33.14
  -1  -6   6 1427.27   31.43
  -1   6   7  300.82   10.34
  -1   6  -7  304.97   11.32
   1   6   7  311.41   10.55
   1   6  -7  301.40   11.63
  -1  -6  -7  311.05   10.80
   1  -6  -7  308.78   10.61
   1  -6   7  319.03   13.00
  -1  -6   7  303.33   11.88
  -1   6   8   50.31    2.49
   1   6   8   56.27    4.13
  -1   6  -8   65.04    5.63
   1   6  -8   61.44    8.72
  -1  -6  -8   52.96    3.17
   1  -6  -8   56.16    2.24
   1  -6   8   54.49    6.38
  -1  -6   8   49.94    4.74
  -1   6   9  297.87    9.23
   1   6   9  266.56    4.22
  -1   6  -9  258.76   12.22
   1   6  -9  302.28   10.46
  -1  -6  -9  306.61    9.95
   1  -6  -9  262.33   13.37
   1  -6   9  299.34   11.66
  -1  -6   9  262.68   14.01
  -1   6  10  156.79    3.85
   1   6  10  144.42    3.50
  -1   6 -10  142.47    4.89
   1   6 -10  164.41    8.51
  -1  -6 -10  156.00    4.96
   1  -6 -10  142.33    5.26
   1  -6  10  154.44    6.43
  -1  -6  10  134.58   14.36
  -1   6  11   51.97    2.48
  -1   6 -11   51.81    3.15
   1   6 -11   53.79    4.93
  -1  -6 -11   56.72    3.57
   1  -6 -11   52.01    8.12
   1  -6  11   52.51    4.97
  -1  -6  11   54.22   18.15
  -1   6 -12   73.33    4.89
   1   6 -12   90.20    6.40
  -1  -6 -12   84.86    4.25
   1  -6 -12   72.76    4.16
   1  -6  12   89.38   10.39
  -1  -6  12   71.70    9.27
  -1   6 -13   56.02    4.93
   1   6 -13   63.44    3.65
  -1  -6 -13   58.08   12.87
   1  -6 -13   59.94    4.29
   1  -6  13   63.97    6.70
  -1  -6  13   60.35   13.95
  -1   6 -14   30.43    6.91
   1   6 -14   31.86    8.16
  -1  -6 -14   26.60    5.73
   1  -6 -14   24.92    5.51
   1  -6  14   27.40    9.15
  -1  -6  14   29.46    9.22
   1   6 -15  122.84   15.36
  -1  -6 -15  134.30    9.30
   1  -6  15  134.38    8.36
  -1  -6  15  131.89    7.93
  -1  -6 -16   48.05    8.91
   1  -6  16   52.79   22.58
  -1  -6  16   40.86   15.07
  -1  -6 -17   43.86    8.39
   1  -6  17   58.87   13.65
  -1  -6  17   51.99   18.45
   1  -6  18   92.70   19.45
  -1  -6  18   86.42   12.37
   1  -6  19   25.75    5.86
  -1  -6  19   21.35    7.41
  -1   7   0  476.44   15.06
   1   7   0  478.73   15.00
   1  -7   0  467.93   14.11
  -1  -7   0  471.84   15.57
  -1   7   1  347.33   11.72
  -1   7  -1  322.53   10.83
   1   7   1  326.21   10.76
   1   7  -1  329.50   14.06
  -1  -7   1  337.37   11.12
   1  -7  -1  334.92   10.34
  -1  -7  -1  331.70   11.05
   1  -7   1  321.85   11.49
  -1   7   2 1014.89   23.02
  -1   7  -2 1034.53   23.87
   1   7   2 1038.19   24.17
   1   7  -2  967.53   23.97
  -1  -7   2 1068.15   24.22
   1  -7  -2 1055.32   22.59
  -1  -7  -2 1002.22   22.28
   1  -7   2  999.15   23.57
  -1  -7   2 1024.92   26.05
  -1   7   3  157.15    6.24
  -1   7  -3  143.41    6.17
   1   7   3  145.01    6.84
   1   7  -3  149.27    6.26
   1  -7  -3  146.44    6.09
  -1  -7  -3  153.73    6.01
   1  -7   3  151.34   11.32
  -1  -7   3  147.90    6.67
  -1   7   4  515.28   15.81
  -1   7  -4  478.97   16.61
   1   7   4  490.89   15.19
   1   7  -4  498.46   17.18
  -1  -7  -4  505.27   15.54
   1  -7  -4  503.01   14.72
   1  -7   4  496.21   16.48
  -1  -7   4  485.20   16.09
  -1   7   5  189.46    8.38
  -1   7  -5  188.69    9.52
   1   7   5  206.23    7.87
   1   7  -5  196.04    8.00
  -1  -7  -5  195.88    7.28
   1  -7  -5  202.07    8.06
   1  -7   5  209.60    9.90
  -1  -7   5  190.04    8.97
  -1   7   6  511.36   13.13
  -1   7  -6  494.44   12.72
   1   7   6  502.43   12.50
   1   7  -6  524.98   13.65
  -1  -7  -6  531.36   12.98
   1  -7  -6  506.53   11.25
   1  -7   6  509.17   14.00
  -1  -7   6  489.88   13.68
  -1   7   7  190.62    9.14
  -1   7  -7  186.61    9.74
   1   7   7  186.56   10.31
   1   7  -7  198.02   10.09
  -1  -7  -7  195.59    9.41
   1  -7  -7  191.39    8.87
   1  -7   7  192.76   10.90
  -1  -7   7  184.56   16.71
  -1   7   8  414.20   13.40
   1   7   8  447.87   13.78
  -1   7  -8  450.51   15.44
   1   7  -8  401.58   14.02
  -1  -7  -8  416.69   12.80
   1  -7  -8  442.67   13.08
   1  -7   8  423.11   19.17
  -1  -7   8  444.33   14.87
  -1   7   9  118.92    7.15
   1   7   9  115.48    3.23
  -1   7  -9  110.12    4.34
   1   7  -9  118.47    4.72
  -1  -7  -9  119.14    7.01
   1  -7  -9  112.58    3.23
   1  -7   9  117.42   10.62
  -1  -7   9  114.22   10.47
  -1   7  10  340.48   11.80
   1   7  10  324.69   11.74
  -1   7 -10  342.95   12.83
   1   7 -10  329.75   11.83
  -1  -7 -10  337.98   11.92
   1  -7 -10  338.76   11.27
   1  -7  10  353.64   14.04
  -1  -7  10  326.48   14.30
  -1   7  11   46.86    5.27
  -1   7 -11   48.34    5.60
   1   7 -11   56.18    7.63
  -1  -7 -11   51.94    2.74
   1  -7 -11   47.03    2.74
   1  -7  11   54.16   17.23
  -1  -7  11   48.73   13.78
  -1   7 -12  231.85   15.69
   1   7 -12  204.81    7.19
  -1  -7 -12  205.64   11.07
   1  -7 -12  220.70    6.93
   1  -7  12  200.90    9.14
  -1  -7  12  224.24    9.36
  -1   7 -13    2.19    2.09
   1   7 -13    5.29    2.41
  -1  -7 -13    6.21    1.79
   1  -7 -13    2.44    1.02
   1  -7  13    1.95    2.17
  -1  -7  13    5.68    3.19
  -1   7 -14  238.42    7.52
   1   7 -14  222.04    7.76
  -1  -7 -14  222.83   13.07
   1  -7  14  212.07    9.34
  -1  -7  14  234.03   10.05
  -1   7 -15   40.87    9.47
   1   7 -15   44.32    5.04
  -1  -7 -15   38.18    7.21
   1  -7  15   41.32   12.72
  -1  -7  15   40.13   13.08
   1  -7  16  114.40   28.28
  -1  -7  16   97.64   13.07
   1  -7  17    3.08    2.72
  -1  -7  17   -0.65    1.98
   1  -7  18   31.15   11.92
  -1  -7  18   30.34    8.92
   1  -7  19    8.57    5.22
  -1  -7  19    7.36    3.70
  -1   8   0  218.46    8.77
   1   8   0  216.82    8.61
   1  -8   0  223.44    8.65
  -1  -8   0  207.76    7.98
  -1   8   1  254.19    9.63
  -1   8  -1  250.71    9.67
   1   8   1  258.58    9.87
   1   8  -1  279.35   10.59
  -1  -8   1  261.53    9.74
   1  -8  -1  265.86    9.49
  -1  -8  -1  252.11    9.31
   1  -8   1  256.15   10.46
  -1   8   2  194.32    7.97
  -1   8  -2  201.64    8.30
   1   8   2  204.61    8.16
   1   8  -2  192.93    8.04
  -1  -8   2  209.89    9.50
   1  -8  -2  203.82    7.84
  -1  -8  -2  196.28    8.02
   1  -8   2  187.37    8.61
  -1  -8   2  204.19    9.15
  -1   8   3  545.57   14.01
  -1   8  -3  577.08   14.69
   1   8   3  557.40   13.64
   1   8  -3  555.49   14.43
   1  -8  -3  560.86   12.92
  -1  -8  -3  540.96   14.83
   1  -8   3  548.30   15.29
  -1  -8   3  546.10   15.46
  -1   8   4  381.79   13.45
  -1   8  -4  372.41   13.28
   1   8   4  375.62   12.93
   1   8  -4  378.65   13.55
  -1  -8  -4  390.81   13.71
   1  -8  -4  391.59   12.75
   1  -8   4  371.16   14.12
  -1  -8   4  389.05   14.75
  -1   8   5  205.78   10.34
  -1   8  -5  212.39   10.70
   1   8   5  206.19   10.38
   1   8  -5  201.87   10.16
  -1  -8  -5  200.38    9.65
   1  -8  -5  198.69    9.15
   1  -8   5  194.66   15.27
  -1  -8   5  202.59   10.84
  -1   8   6   98.09    5.59
  -1   8  -6  110.67    7.00
   1   8   6  109.29    8.84
   1   8  -6   96.60    6.02
  -1  -8  -6   92.99    5.30
   1  -8  -6  115.72    5.65
   1  -8   6   93.42    6.67
  -1  -8   6  114.51    7.69
  -1   8   7  243.82    7.50
  -1   8  -7  246.06    8.61
   1   8   7  263.01    8.21
   1   8  -7  255.62    8.59
  -1  -8  -7  255.30    7.76
   1  -8  -7  257.98    6.81
   1  -8   7  235.12    7.84
  -1  -8   7  269.74   13.27
  -1   8   8  153.48    4.84
   1   8   8  141.82    5.03
  -1   8  -8  138.07    5.46
   1   8  -8  164.32    8.94
  -1  -8  -8  158.92    8.00
   1  -8  -8  134.70    3.66
   1  -8   8  151.25    6.51
  -1  -8   8  145.56    7.12
  -1   8   9  296.92   10.67
   1   8   9  308.26   10.51
  -1   8  -9  290.23   16.31
   1   8  -9  297.03   11.26
  -1  -8  -9  307.72   14.14
   1  -8  -9  294.48   10.31
   1  -8   9  330.96   13.51
  -1  -8   9  323.45   13.31
  -1   8  10   47.99    7.02
   1   8  10   32.61    3.34
  -1   8 -10   41.27   11.70
   1   8 -10   43.98    4.46
  -1  -8 -10   46.50    3.63
   1  -8 -10   32.81    2.48
   1  -8  10   48.20    6.17
  -1  -8  10   42.17   14.60
  -1   8  11   26.29    3.96
  -1   8 -11   38.05   10.56
   1   8 -11   25.34   10.65
  -1  -8 -11   24.97    6.16
   1  -8  11   27.22    8.12
  -1  -8  11   29.65    8.67
  -1   8 -12   73.11    6.42
   1   8 -12   59.70    3.74
  -1  -8 -12   52.61    4.19
   1  -8  12   57.28    6.50
  -1  -8  12   53.90    4.83
  -1   8 -13   17.63    4.69
   1   8 -13   14.05    3.83
  -1  -8 -13   12.84    3.13
   1  -8  13   12.90    4.35
  -1  -8  13   20.11    6.00
  -1   8 -14   28.65    8.09
   1   8 -14   23.26    6.23
  -1  -8 -14   23.86    5.63
   1  -8  14   30.28   10.49
  -1  -8  14   31.52    9.69
  -1   8 -15   64.00    5.57
   1   8 -15   62.56    5.97
   1  -8  15   60.04   17.40
  -1  -8  15   59.30   17.17
   1  -8  16   74.75   19.21
  -1  -8  16   65.44   11.54
   1  -8  17    1.10    2.87
  -1  -8  17    3.68    2.41
   1  -8  18   35.88    9.70
  -1  -8  18   32.22   13.90
  -1   9   0    4.90    2.23
   1   9   0    2.86    1.67
   1  -9   0    5.00    1.93
  -1  -9   0    3.20    2.29
  -1   9   1  701.61   21.05
  -1   9  -1  705.58   21.64
   1   9   1  729.60   21.96
   1   9  -1  728.95   22.03
   1  -9   1  687.68   19.82
  -1  -9   1  751.97   22.26
   1  -9  -1  726.81   20.52
  -1  -9  -1  694.23   20.56
  -1   9   2   72.08    5.01
  -1   9  -2   77.81    7.01
   1   9   2   69.96    5.10
   1   9  -2   74.17    4.52
  -1  -9   2   76.89    7.94
   1  -9  -2   75.73    4.76
  -1  -9  -2   66.80    5.19
   1  -9   2   64.62    5.48
  -1   9   3   24.90    5.40
  -1   9  -3   17.23    5.21
   1   9   3   16.37    6.21
   1   9  -3   24.65    7.16
  -1  -9   3   21.75    7.56
   1  -9  -3   16.39    3.29
  -1  -9  -3   22.48    5.67
   1  -9   3   28.79    4.90
  -1  -9   3   19.74    6.24
  -1   9   4  756.34   22.82
  -1   9  -4  777.52   23.58
   1   9   4  816.86   24.09
   1   9  -4  743.72   22.36
  -1  -9  -4  755.53   21.75
   1  -9  -4  778.57   21.45
   1  -9   4  766.52   25.03
  -1  -9   4  766.54   25.08
  -1   9   5  122.48    6.97
  -1   9  -5  119.26   13.80
   1   9   5  117.68    8.33
   1   9  -5  118.50    7.95
  -1  -9  -5  127.76    9.00
   1  -9  -5  122.60    7.82
   1  -9   5  126.96   11.80
  -1  -9   5  121.81    7.79
  -1   9   6   61.43    3.30
  -1   9  -6   61.58    5.36
   1   9   6   62.85    4.22
   1   9  -6   72.22    7.32
  -1  -9  -6   71.63    3.35
   1  -9  -6   61.52    3.25
   1  -9   6   62.57    5.08
  -1  -9   6   64.95    5.99
  -1   9   7    3.43    1.89
  -1   9  -7   10.04    2.97
   1   9   7    6.00    1.55
   1   9  -7    2.54    1.80
  -1  -9  -7    6.15    2.16
   1  -9  -7    7.01    1.90
   1  -9   7    2.99    3.45
  -1  -9   7    6.48    4.61
  -1   9   8   65.54    8.67
  -1   9  -8   68.46   13.28
   1   9   8   71.33    7.81
   1   9  -8   57.60    6.31
  -1  -9  -8   62.69    5.94
   1  -9  -8   63.95    2.33
   1  -9   8   49.61   16.03
  -1  -9   8   68.96    6.81
  -1   9   9    5.87    1.94
   1   9   9    7.45    2.34
  -1   9  -9    5.20    2.64
   1   9  -9    6.73    2.35
  -1  -9  -9    3.99    2.31
   1  -9  -9    4.82    1.38
   1  -9   9    7.58    3.89
  -1  -9   9   12.55    5.12
  -1   9  10  190.90    6.49
   1   9  10  209.25    5.91
  -1   9 -10  217.47    7.67
   1   9 -10  196.71   13.74
  -1  -9 -10  201.01    6.60
   1  -9  10  178.61   12.95
  -1  -9  10  213.35    9.06
  -1   9  11  163.63    5.08
  -1   9 -11  156.36    6.77
   1   9 -11  169.24   15.97
  -1  -9 -11  170.99    7.96
   1  -9  11  162.21    7.56
  -1  -9  11  146.75    7.50
  -1   9 -12   32.70   11.86
   1   9 -12   31.82    9.60
  -1  -9 -12   26.54    7.05
   1  -9  12   30.68    4.66
  -1  -9  12   34.03    9.59
  -1   9 -13  118.89    6.32
   1   9 -13   99.05   18.02
   1  -9  13  114.95   17.29
  -1  -9  13  118.50    7.34
  -1   9 -14   45.95   10.83
   1   9 -14   43.34   12.71
   1  -9  14   42.46   16.22
  -1  -9  14   41.34   15.52
  -1   9 -15   53.25    8.75
   1   9 -15   58.16   15.31
   1  -9  15   66.13   11.10
  -1  -9  15   51.13   20.27
   1   9 -16   35.99   10.44
   1  -9  16   36.72   13.27
  -1  -9  16   37.78   15.32
   1  -9  17   32.99   11.69
  -1  -9  17   26.78    9.30
   1  -9  18    7.11    4.44
  -1  -9  18    5.00    4.45
  -1  10   0  101.20    4.83
   1  10   0   97.78   10.03
   1 -10   0  101.54   11.83
  -1 -10   0   99.40    8.34
  -1  10   1  134.41    5.27
  -1  10  -1  136.76    5.48
   1  10   1  137.60    9.02
   1  10  -1  139.09    5.35
   1 -10   1  142.57    6.89
  -1 -10   1  139.73    5.47
   1 -10  -1  150.47   11.14
  -1 -10  -1  138.38    5.32
  -1  10   2  277.08    9.09
  -1  10  -2  282.20    9.52
   1  10   2  283.60   10.00
   1  10  -2  263.58    8.95
  -1 -10   2  281.75    9.37
   1 -10  -2  279.91    8.52
  -1 -10  -2  274.88    8.93
   1 -10   2  282.33   10.61
  -1  10   3  207.41    6.27
  -1  10  -3  199.32    6.97
   1  10   3  203.58    6.60
   1  10  -3  203.89    6.37
  -1 -10   3  203.21    7.72
   1 -10  -3  193.73    5.19
  -1 -10  -3  214.19   12.11
   1 -10   3  215.32   10.70
  -1 -10   3  196.54    7.24
  -1  10   4  248.49   10.99
  -1  10  -4  253.12    8.95
   1  10   4  242.25    6.72
   1  10  -4  251.05    9.19
  -1 -10   4  266.23   17.65
  -1 -10  -4  241.08    6.34
   1 -10  -4  243.40    7.88
   1 -10   4  232.93   11.42
  -1 -10   4  254.35    9.89
  -1  10   5   62.90    6.64
  -1  10  -5   49.43    4.41
   1  10   5   51.13    5.88
   1  10  -5   66.96   10.77
  -1 -10  -5   64.00    4.33
   1 -10  -5   48.21    4.03
   1 -10   5   56.46    7.85
  -1 -10   5   50.15    7.30
  -1  10   6   86.91    4.54
  -1  10  -6   96.33    5.94
   1  10   6   96.14    4.53
   1  10  -6   97.55    9.62
  -1 -10  -6   90.26    6.48
   1 -10  -6  100.30    4.38
   1 -10   6   84.55    7.18
  -1 -10   6  105.93   17.78
  -1  10   7   66.46    5.81
  -1  10  -7   64.08    4.76
   1  10   7   68.01    4.40
   1  10  -7   67.07   13.70
  -1 -10  -7   68.09    5.50
   1 -10  -7   65.21    2.66
   1 -10   7   68.58    8.74
  -1 -10   7   72.63    9.21
  -1  10   8   49.59   12.98
   1  10   8   54.14    9.23
  -1  10  -8   50.47    6.25
   1  10  -8   59.47   11.24
  -1 -10  -8   47.57    9.46
   1 -10   8   61.83   10.97
  -1 -10   8   47.62   14.46
  -1  10   9   93.38    4.56
   1  10   9   92.95    9.45
  -1  10  -9   96.34    8.68
   1  10  -9   98.35   14.71
  -1 -10  -9   93.97    7.65
   1 -10   9   95.68    7.76
  -1 -10   9   87.33    6.21
  -1  10  10   71.95    3.74
   1  10  10   74.31    5.99
  -1  10 -10   78.46    6.80
   1  10 -10   78.52    8.33
  -1 -10 -10   71.65    5.86
   1 -10  10   75.16   12.36
  -1 -10  10   83.52    7.66
  -1  10  11   11.31    3.29
  -1  10 -11   10.59    2.32
   1  10 -11    7.92    2.34
   1 -10  11   13.52    4.17
  -1 -10  11   12.55    8.08
  -1  10 -12    3.43    1.39
   1  10 -12    5.56    2.26
   1 -10  12    8.77    5.03
  -1 -10  12    2.85    3.35
  -1  10 -13   67.50   11.27
   1  10 -13   76.35   16.45
   1 -10  13   94.25   18.09
  -1 -10  13   65.56   20.10
  -1  10 -14  105.79   20.40
   1  10 -14  124.66   13.91
   1 -10  14   97.15   20.81
  -1 -10  14  125.00    7.81
  -1  10 -15   23.35    5.18
   1  10 -15   21.09    5.17
   1 -10  15   23.10    8.98
   1  10 -16   20.66    5.19
   1 -10  16   20.09    8.42
  -1 -10  16   21.45    6.90
   1 -10  17    6.38    4.09
  -1 -10  17    8.99    4.92
  -1  11   0  211.27    9.36
   1  11   0  217.11    9.33
   1 -11   0  209.81    8.75
  -1 -11   0  210.02   12.44
  -1  11   1  217.59    9.22
  -1  11  -1  213.29    9.03
   1  11   1  226.43    9.58
   1  11  -1  223.26   11.56
   1 -11   1  221.48    8.80
  -1 -11   1  215.50    8.90
   1 -11  -1  217.56    8.53
  -1 -11  -1  220.11   11.38
  -1  11   2   46.89    8.08
  -1  11  -2   37.46   11.22
   1  11   2   39.15    9.30
   1  11  -2   41.81   12.00
   1 -11   2   50.72    4.75
  -1 -11   2   37.85   10.29
   1 -11  -2   41.04    4.46
  -1 -11  -2   41.92   11.04
  -1  11   3  149.21    6.14
  -1  11  -3  148.41    6.12
   1  11   3  157.88    9.91
   1  11  -3  142.85    8.82
  -1 -11   3  151.13    8.90
   1 -11  -3  148.52    4.65
  -1 -11  -3  150.05    5.39
   1 -11   3  161.63    7.51
  -1  11   4    4.06    2.64
  -1  11  -4    2.54    1.09
   1  11   4   -0.75    2.14
   1  11  -4    4.81    2.67
  -1 -11   4    3.94    2.19
  -1 -11  -4    0.55    1.72
   1 -11  -4    1.85    1.28
   1 -11   4    1.14    1.74
  -1 -11   4    5.68    2.68
  -1  11   5  156.63   10.65
  -1  11  -5  173.29   13.98
   1  11   5  192.31    6.97
   1  11  -5  162.57    7.11
  -1 -11   5  169.98    7.05
  -1 -11  -5  163.10    6.05
   1 -11  -5  176.58    5.25
   1 -11   5  167.51    8.16
  -1 -11   5  181.13    8.32
  -1  11   6    4.38    1.99
  -1  11  -6    1.55    2.77
   1  11   6    2.46    1.67
   1  11  -6    8.55    3.31
  -1 -11  -6    3.20    1.38
   1 -11   6    8.75    4.89
  -1 -11   6    6.37    3.75
  -1  11   7   29.51    6.80
  -1  11  -7   31.67    8.34
   1  11   7   27.92    8.23
   1  11  -7   28.28    7.36
  -1 -11  -7   23.76    7.14
   1 -11   7   27.92   15.92
  -1 -11   7   27.98    5.68
  -1  11   8   34.17   10.32
  -1  11  -8   35.06    9.94
   1  11   8   41.12    6.42
   1  11  -8   37.19    6.61
  -1 -11  -8   35.18    8.19
   1 -11   8   36.87    8.12
  -1 -11   8   34.84   15.62
  -1  11   9  138.65    5.79
   1  11   9  137.63    5.27
  -1  11  -9  152.25   16.64
   1  11  -9  126.06   10.02
   1 -11   9  148.74    7.74
  -1 -11   9  139.73    8.29
  -1  11  10   33.24   10.01
   1  11  10   32.95    7.13
  -1  11 -10   39.41   12.42
   1  11 -10   41.49   10.72
   1 -11  10   43.53    5.46
  -1 -11  10   45.06   14.93
  -1  11 -11  145.51   11.97
   1  11 -11  146.88   12.45
   1 -11  11  136.71    9.26
  -1 -11  11  138.66   11.57
  -1  11 -12   62.99    5.73
   1  11 -12   63.23   15.79
   1 -11  12   54.81   22.97
  -1 -11  12   67.30   21.61
  -1  11 -13   32.72    9.54
   1  11 -13   32.15   11.93
   1 -11  13   30.95    6.34
  -1 -11  13   29.03   12.84
  -1  11 -14   32.48    4.53
   1  11 -14   32.93    5.00
   1 -11  14   31.99    8.37
  -1 -11  14   31.16    8.45
  -1  11 -15   10.89    3.14
   1  11 -15   13.91    3.08
   1 -11  15    8.87    5.05
  -1 -11  15   14.35    5.22
   1  11 -16    9.21    3.72
   1 -11  16    6.70    3.08
  -1 -11  16    5.78    5.26
  -1  12   0   -3.23    2.44
   1  12   0   -1.84    2.30
   1 -12   0    0.57    0.89
  -1 -12   0    1.74    1.23
  -1  12   1  126.66    7.16
  -1  12  -1  120.73    5.80
   1  12   1  118.30   13.66
   1  12  -1  113.06    6.36
   1 -12   1  134.91    9.93
  -1 -12   1  113.12    6.53
   1 -12  -1  106.56    5.20
  -1 -12  -1  121.54    7.77
  -1  12   2   11.81    4.84
  -1  12  -2   12.24    3.55
   1  12   2   11.79    2.62
   1  12  -2   14.84    4.02
   1 -12   2   11.04    3.17
  -1 -12   2   10.18    2.02
   1 -12  -2   11.27    3.03
  -1 -12  -2   11.79    2.65
  -1  12   3  160.58   11.70
  -1  12  -3  184.29    7.84
   1  12   3  181.29    7.38
   1  12  -3  183.33    7.56
   1 -12   3  187.09   10.16
  -1 -12   3  183.27    7.36
   1 -12  -3  175.27    6.20
  -1 -12  -3  185.97   11.51
  -1  12   4  245.81    8.57
  -1  12  -4  249.15    8.96
   1  12   4  258.61    9.19
   1  12  -4  235.45   13.40
  -1 -12   4  241.23    8.59
   1 -12  -4  231.01    7.36
  -1 -12  -4  228.18   14.80
   1 -12   4  245.08   15.97
  -1  12   5   10.02    3.03
  -1  12  -5   10.84    2.74
   1  12   5   13.04    3.03
   1  12  -5   11.33    3.06
  -1 -12   5    7.88    3.41
  -1 -12  -5    8.28    2.56
   1 -12   5    7.79    3.89
  -1 -12   5   11.82    4.29
  -1  12   6   15.38    4.02
  -1  12  -6   13.13    2.86
   1  12   6   11.76    3.71
   1  12  -6   14.13    4.18
  -1 -12   6    7.82    2.61
  -1 -12  -6   13.34    3.80
   1 -12   6   10.37    4.02
  -1 -12   6   12.68    3.49
  -1  12   7   68.38    6.58
  -1  12  -7   74.37    7.39
   1  12   7   69.40    6.44
   1  12  -7   76.77    9.03
   1 -12   7   74.26   20.89
  -1 -12   7   82.07    7.04
  -1  12   8  197.36    6.44
  -1  12  -8  179.26   15.31
   1  12  -8  188.53    7.46
   1 -12   8  189.22    8.65
  -1 -12   8  181.55    9.84
  -1  12   9   57.69   11.18
  -1  12  -9   60.38   15.67
   1  12   9   57.67    6.89
   1  12  -9   49.24   11.00
   1 -12   9   64.21    7.44
  -1 -12   9   58.38   14.18
  -1  12  10   25.59    7.71
  -1  12 -10   25.27    4.60
   1  12 -10   23.85    6.01
   1 -12  10   22.77    4.75
  -1 -12  10   25.04    8.76
  -1  12 -11   18.27    4.05
   1  12 -11   15.24    3.43
   1 -12  11   16.80    8.22
  -1 -12  11   20.46    4.94
  -1  12 -12   10.17    2.62
   1  12 -12    9.00    4.01
   1 -12  12   14.62    5.59
  -1 -12  12    7.89    1.36
  -1  12 -13   14.11    2.54
   1  12 -13   16.75    4.21
   1 -12  13   12.76    4.34
  -1 -12  13    5.57    2.31
   1  12 -14    5.27    2.71
   1 -12  14    7.89    4.33
  -1 -12  14   12.98    5.23
  -1  12 -15   32.87    9.26
   1  12 -15   32.90   11.22
   1 -12  15   36.83   16.28
  -1 -12  15   30.94   10.41
  -1  13   0   33.90    7.56
   1  13   0   32.55    8.15
   1 -13   0   33.60    8.71
  -1 -13   0   32.39    9.25
  -1  13   1  175.44   10.24
  -1  13  -1  179.37   13.34
   1  13   1  176.41   12.47
   1  13  -1  176.63    7.22
   1 -13   1  180.45    9.73
  -1 -13   1  189.01    7.59
   1 -13  -1  178.38   11.66
  -1 -13  -1  188.22    7.44
  -1  13   2    5.19    2.51
  -1  13  -2    3.05    4.13
   1  13   2    4.24    1.77
   1  13  -2    5.24    2.02
   1 -13   2    3.24    2.12
  -1 -13   2    8.53    2.09
   1 -13  -2    3.87    1.78
  -1 -13  -2    4.63    2.11
  -1  13   3    6.15    3.48
  -1  13  -3    5.22    2.75
   1  13   3    6.97    3.44
   1  13  -3    4.37    2.91
   1 -13   3    9.78    2.44
  -1 -13   3    5.42    2.00
  -1 -13  -3    4.49    2.79
  -1  13   4   17.40    4.43
  -1  13  -4   19.12    6.20
   1  13   4   15.91    4.64
   1  13  -4   18.28    6.64
   1 -13   4   19.23    5.40
  -1 -13   4   15.46    4.51
  -1 -13  -4   16.92    4.23
   1 -13   4   14.86    7.07
  -1  13   5  153.40    6.26
  -1  13  -5  156.33   14.20
   1  13   5  152.71   10.98
   1  13  -5  176.52    8.22
  -1 -13   5  149.56   10.40
  -1 -13  -5  147.16    9.14
   1 -13   5  160.14    8.53
  -1 -13   5  158.94   12.87
  -1  13   6    1.93    1.40
  -1  13  -6    1.98    1.67
   1  13   6    2.58    1.95
   1  13  -6    0.94    1.24
  -1 -13   6   -0.30    2.96
   1 -13   6    3.86    4.53
  -1 -13   6    0.83    4.32
  -1  13   7  155.55    6.32
  -1  13  -7  151.15   15.47
   1  13   7  150.38    6.15
   1  13  -7  162.81   17.78
  -1 -13   7  163.64   10.63
   1 -13   7  179.32   15.41
  -1 -13   7  176.00   16.34
  -1  13   8   16.20    6.58
  -1  13  -8   23.87    4.94
   1  13   8   22.08    7.53
   1  13  -8   22.09    5.42
   1 -13   8   27.38    5.76
  -1 -13   8   24.87    6.40
  -1  13   9    6.56    2.30
  -1  13  -9   12.37    4.24
   1  13   9    8.11    2.75
   1  13  -9   10.28    2.75
   1 -13   9   16.16    6.77
  -1 -13   9   10.86    5.01
  -1  13  10    7.49    2.43
  -1  13 -10   11.50    2.88
   1  13 -10    6.46    2.52
   1 -13  10   14.64    4.50
  -1 -13  10   16.43    5.50
  -1  13 -11  106.22   10.86
   1  13 -11  103.36   13.22
   1 -13  11   99.03   25.85
  -1 -13  11  101.51   28.15
  -1  13 -12   27.59    5.66
   1  13 -12   23.82    7.54
   1 -13  12   20.04    6.05
  -1 -13  12   24.31   10.75
  -1  13 -13   21.61    6.11
   1  13 -13   20.91    6.49
   1 -13  13   23.26    8.47
  -1 -13  13   19.53    5.75
  -1  13 -14   14.96    2.94
   1  13 -14   17.75    3.80
   1 -13  14    5.30    2.74
  -1 -13  14   12.01    7.18
  -1  14   0   -1.31    2.21
   1  14   0   -2.85    2.41
   1 -14   0    0.52    0.63
  -1 -14   0    2.35    1.85
  -1  14   1   43.88   11.93
  -1  14  -1   40.42   13.29
   1  14   1   38.40   13.50
   1  14  -1   37.81   11.20
   1 -14   1   43.08    4.97
  -1 -14   1   45.25   12.28
   1 -14  -1   37.39    8.91
  -1 -14  -1   42.62    9.85
  -1  14   2  142.27   15.80
  -1  14  -2  143.33    7.48
   1  14   2  148.97    7.17
   1  14  -2  139.89   10.08
   1 -14   2  163.28   12.16
  -1 -14   2  171.88   12.11
  -1 -14  -2  160.61   11.49
  -1  14   3  105.79   13.32
  -1  14  -3  102.92   17.87
   1  14   3  101.04    9.09
   1  14  -3  114.99   12.84
   1 -14   3  102.17   18.75
  -1 -14   3  116.98   13.82
  -1 -14  -3  104.15    7.68
  -1  14   4   15.19    4.03
  -1  14  -4   22.66    6.21
   1  14   4   15.75    5.23
   1  14  -4   21.02    5.65
   1 -14   4   19.33    4.42
  -1 -14   4   19.88    4.36
  -1  14   5   21.98    7.79
  -1  14  -5   29.19    8.04
   1  14   5   34.42    9.72
   1  14  -5   28.31    6.16
   1 -14   5   24.47    5.96
  -1 -14   5   27.65    4.74
   1 -14   5   32.05    6.25
  -1  14   6   96.39    5.67
  -1  14  -6  101.26   10.60
   1  14   6  108.50    9.01
   1  14  -6  105.42   12.58
  -1 -14   6  106.19    8.15
   1 -14   6   95.93    9.22
  -1 -14   6  110.80    9.94
  -1  14   7   25.12    9.94
  -1  14  -7   34.81    9.65
   1  14   7   31.69    9.86
   1  14  -7   31.88    7.19
  -1 -14   7   31.22    6.11
   1 -14   7   34.12    9.56
  -1 -14   7   31.89   12.50
  -1  14   8    9.26    3.45
  -1  14  -8   11.92    2.66
   1  14   8   11.23    3.92
   1  14  -8    6.60    2.81
  -1 -14   8   13.87    3.72
   1 -14   8   11.95    4.54
  -1 -14   8   14.57    5.01
  -1  14   9   76.17    4.87
  -1  14  -9   60.31   16.40
   1  14   9   74.73    7.08
   1  14  -9   61.14   15.26
  -1 -14   9   74.25    7.90
   1 -14   9   72.00   20.45
  -1 -14   9   84.27   11.53
  -1  14 -10   26.55    3.69
   1  14 -10   30.48    8.66
   1 -14  10   32.89    8.26
  -1 -14  10   40.36    7.28
  -1  14 -11   16.28    5.15
   1  14 -11   12.44    4.70
   1 -14  11   18.43    4.98
  -1 -14  11   13.47    5.47
  -1  14 -12    3.37    1.60
   1  14 -12    4.72    1.96
   1 -14  12    6.89    4.42
  -1 -14  12    0.02    2.46
  -1  14 -13   17.22    5.20
   1  14 -13   19.67    4.76
   1 -14  13   15.50    8.32
  -1 -14  13   17.90    4.84
  -1  15   0    4.55    1.98
   1  15   0   10.29    2.77
  -1 -15   0   11.98    3.02
  -1  15   1   57.31   16.30
  -1  15  -1   53.14   11.81
   1  15   1   53.88   15.53
   1  15  -1   55.55   12.30
   1 -15   1   50.77   13.35
  -1 -15   1   58.09   11.01
  -1 -15  -1   56.78   14.08
  -1  15   2    4.70    2.88
  -1  15  -2   10.62    3.46
   1  15   2   11.60    3.29
   1  15  -2    6.28    3.31
   1 -15   2    9.37    2.91
  -1 -15   2   12.18    3.42
  -1  15   3   12.87    4.61
  -1  15  -3   11.56    5.29
   1  15   3   17.16    5.43
   1  15  -3   17.58    4.46
   1 -15   3   15.38    3.59
  -1 -15   3   17.90    4.44
  -1  15   4   58.23   18.02
  -1  15  -4   54.73   18.40
   1  15   4   47.40   14.68
   1  15  -4   52.03   18.85
   1 -15   4   52.09   13.76
  -1 -15   4   52.12    9.31
  -1  15   5   25.66    7.26
  -1  15  -5   27.59    7.21
   1  15   5   26.80    7.30
   1  15  -5   25.32    4.75
   1 -15   5   22.81    7.71
  -1 -15   5   26.34    7.29
  -1  15   6   68.96   11.18
  -1  15  -6   65.60    7.40
   1  15   6   72.44    8.52
   1  15  -6   66.42   13.29
   1 -15   6   78.61    5.37
  -1 -15   6   64.81   18.19
   1 -15   6   71.36   27.64
  -1  15   7   17.93    5.60
  -1  15  -7   24.99    5.22
   1  15   7   22.06    7.37
   1  15  -7   15.35    4.87
   1 -15   7   18.22    4.66
  -1 -15   7   19.81    5.59
   1 -15   7   24.22    8.23
  -1 -15   7   18.27    7.61
  -1  15   8   36.28   13.00
  -1  15  -8   39.82   10.06
   1  15  -8   45.80    9.75
  -1 -15   8   44.61   10.34
   1 -15   8   44.05   16.17
  -1 -15   8   45.38   19.31
  -1  15   9    1.63    1.21
  -1  15  -9   -0.74    2.38
   1  15  -9    0.85    1.21
  -1 -15   9    1.13    2.92
   1 -15   9    2.01    4.41
  -1 -15   9    1.08    2.36
  -1  15 -10   13.47    2.59
   1  15 -10   20.97    6.87
  -1 -15  10   22.46    6.06
   1 -15  10   25.10    7.49
  -1 -15  10   15.38    6.93
  -1  15 -11   68.67   20.33
   1  15 -11   68.60   21.67
  -1 -15  11   63.23   15.56
   1 -15  11   70.99   26.31
  -1 -15  11   89.02    9.19
  -1  16   0   45.15   12.69
   1  16   0   44.44   18.52
  -1  16   1    5.44    2.93
  -1  16  -1    8.28    3.38
   1  16   1   15.71    6.25
  -1 -16   1   12.13    3.18
  -1  16   2    3.44    2.35
  -1  16  -2    2.48    2.04
   1  16   2    3.34    2.41
   1  16  -2    3.00    2.83
  -1 -16   2    3.28    1.02
  -1  16   3   39.29   12.03
  -1  16  -3   29.41    8.94
   1  16   3   34.24   10.34
   1  16  -3   38.28   10.49
   1 -16   3   37.23    9.25
  -1 -16   3   35.35   10.07
  -1  16   4   23.31   10.03
  -1  16  -4   28.23    7.28
   1  16   4   27.03    7.79
   1  16  -4   30.45    7.57
   1 -16   4   28.23    9.10
  -1 -16   4   23.22    6.59
  -1  16   5   20.60    6.80
  -1  16  -5   22.57    6.65
   1  16   5   21.71    7.12
   1  16  -5   24.13    6.86
   1 -16   5   21.24    6.64
  -1 -16   5   23.23    5.33
  -1  16   6   11.87    4.54
  -1  16  -6   12.57    3.17
   1  16   6   13.68    4.18
   1  16  -6   14.92    2.97
   1 -16   6    7.09    3.14
  -1 -16   6   15.56    4.43
  -1  16   7   39.49   11.73
  -1  16  -7   40.71   11.39
   1  16   7   30.47   11.42
   1  16  -7   43.48   11.71
   1 -16   7   43.53   11.47
  -1 -16   7   38.67    7.79
  -1  16   8   17.65    6.10
  -1  16  -8   23.67    7.24
   1  16   8   16.02    5.85
   1  16  -8   24.60    6.05
   1 -16   8   22.22    5.26
  -1 -16   8   13.68    4.82
   1 -16   8   25.74    6.81
  -1  16  -9   14.28    4.04
   1  16  -9   13.44    3.39
   1 -16   9   15.19    3.15
  -1 -16   9   13.69    2.75
   1 -16   9   10.79    5.49
  -1 -16   9   14.97    6.70
  -1  16 -10    3.78    2.31
   1  16 -10    2.97    2.58
  -1 -16  10   -0.26    3.54
   1 -16  10    1.61    2.60
  -1 -16  10    6.31    5.91
  -1  17   0   53.02   14.34
   1  17   0   50.86   19.73
  -1  17   1   10.42    4.45
   1  17   1    8.04    4.72
   1  17  -1    5.79    3.14
  -1  17   2   16.64    4.57
  -1  17  -2   24.76    6.51
   1  17   2   16.51    4.18
   1  17  -2   16.79    5.35
  -1  17   3   -0.62    2.46
  -1  17  -3    5.66    2.88
   1  17   3    6.13    2.91
   1  17  -3    3.28    2.20
  -1 -17   3    2.90    1.51
  -1  17   4   11.89    4.06
  -1  17  -4    8.16    3.11
   1  17   4    6.62    4.24
   1  17  -4    7.49    3.55
  -1 -17   4    9.87    3.86
  -1  17   5   13.88    5.58
  -1  17  -5   23.24    4.88
   1  17   5   15.76    5.90
   1  17  -5   22.38    4.89
  -1 -17   5   19.86    4.89
  -1  17   6   14.94    4.29
  -1  17  -6   17.59    5.10
   1  17   6   13.29    7.11
   1  17  -6   10.98    5.25
   1 -17   6   15.22    5.31
  -1 -17   6   10.38    4.50
  -1  17   7    9.12    2.41
  -1  17  -7   14.53    4.52
   1  17   7    9.49    4.15
   1  17  -7    6.14    4.22
   1 -17   7    9.41    3.15
  -1 -17   7   11.59    2.73
  -1  18   0    7.18    2.66
   1  18   0    8.88    4.52
  -1  18   1   19.48    7.68
  -1  18  -1   23.15    8.42
   1  18   1   28.00    7.79
   1  18  -1   24.00    8.24
  -1  18   2   -1.21    2.69
  -1  18  -2    6.00    2.22
   1  18   2    1.63    1.82
   1  18  -2    4.22    2.21
  -1  18   3    9.05    2.87
  -1  18  -3    9.42    5.47
   1  18   3    6.82    5.22
   2   0   0   31.03    2.03
  -2   0   0   31.70    2.08
  -2   0   0   33.54    1.92
   2   0   0   31.62    1.82
   2   0  -1   42.83    3.18
   2   0   1   44.73    2.71
  -2   0   1   43.30    2.68
  -2   0  -1   42.76    3.64
   2   0   1   45.14    2.75
  -2   0  -2  278.42    7.38
   2   0  -2  271.13    7.19
  -2   0   2  275.61    7.16
  -2   0  -2  313.05    8.36
  -2   0  -3  351.90    8.96
   2   0  -3  334.28    8.99
  -2   0  -3  331.88    8.53
  -2   0  -3  356.51    9.73
  -2   0  -4   24.49    1.58
   2   0  -4   25.52    4.52
  -2   0  -4   23.56    6.33
  -2   0  -5 2751.71   27.96
   2   0  -5 2765.68   29.43
  -2   0  -5 2712.60   30.12
   2   0   7  367.00   10.30
  -2   0  -7  359.86   10.10
   2   0  -7  356.53   10.80
  -2   0  -7  355.85   11.48
   2   0   8    3.14    0.71
  -2   0  -8    4.66    0.92
   2   0  -8    4.82    2.05
  -2   0  -8    4.95    2.47
  -2   0  -9  193.88    5.97
   2   0  -9  190.42    7.01
  -2   0  -9  188.41   10.51
   2   0 -10  826.41   17.85
  -2   0 -10  764.31   18.44
   2   0 -11  292.54    8.92
  -2   0 -11  299.26   10.44
   2   0 -12    0.86    0.79
  -2   0 -12    1.20    2.26
   2   0 -13   43.65    4.65
  -2   0 -13   40.15   11.20
   2   0  13   45.18    7.70
  -2   0 -14   44.30    9.95
  -2   0  14   50.55   17.25
   2   0  14   44.84   11.79
  -2   0 -15    6.34    2.86
  -2   0  15   12.09    5.94
   2   0  15    8.90    4.72
  -2   0 -16   -1.16    2.38
  -2   0  16    3.18    1.92
   2   0  16   -1.73    2.95
  -2   0 -17   45.60   10.17
  -2   0  17   43.48   14.43
   2   0  17   57.02   19.27
  -2   0 -18  270.56   10.92
  -2   0  18  264.90    9.94
   2   0  18  271.51   11.97
  -2   0  19   44.01   14.37
   2   0  19   34.49   12.14
  -2   0  20   15.67    4.95
   2   0  20   24.52    8.45
  -2   1   0 1088.75   12.34
   2   1   0 1089.63   12.26
  -2  -1   0 1099.10   12.74
  -2   1   0 1111.95   12.08
  -2   1   0 1130.01   12.24
   2  -1   0 1104.37   12.06
  -2   1   1 1237.30   13.83
  -2   1  -1 1204.79   13.36
   2   1  -1 1177.73   13.31
   2   1   1 1187.07   13.05
  -2  -1   1 1175.70   13.50
  -2   1   1 1233.29   13.11
  -2  -1  -1 1220.08   14.05
  -2   1  -1 1217.59   13.44
   2  -1   1 1193.64   13.21
   2   1  -1 1185.36   12.25
  -2  -1   1 1156.45   12.00
  -2   1   1 1203.93   12.98
  -2   1   2 2158.29   23.12
   2   1  -2 2029.36   22.03
   2   1   2 2111.21   21.99
  -2  -1   2 2070.90   22.57
  -2  -1  -2 2103.00   22.99
   2  -1   2 2096.10   22.56
  -2  -1   2 2095.18   21.58
  -2  -1  -3  271.28    7.91
  -2   1  -4  106.44    6.09
  -2  -1  -4  100.60    5.61
   2   1  -4   97.43    5.81
   2   1   4   99.35    5.56
   2  -1  -4  111.71    6.54
  -2  -1  -4  108.95    6.67
  -2   1  -4  108.42    6.54
  -2  -1   4   94.12    5.54
   2  -1   4   97.21    6.06
  -2  -1  -5  141.07    7.75
  -2   1  -5  114.89    7.61
  -2  -1  -5  130.49    7.16
   2   1  -5  129.20    7.59
   2  -1  -5  109.69    6.43
  -2  -1  -5  135.60    8.16
  -2   1  -5  107.93    6.62
  -2  -1   5  105.68    6.42
   2  -1   5  137.87    8.44
  -2   1  -6  512.83   12.80
   2   1  -6  509.33   13.26
   2  -1  -6  517.08   13.24
  -2  -1  -6  509.89   13.80
  -2   1  -6  501.05   13.69
  -2  -1   6  492.56   13.33
   2  -1   6  518.66   16.16
  -2   1  -7  342.04    9.93
   2   1  -7  289.75    9.08
   2  -1  -7  353.79   10.96
  -2  -1  -7  302.28   10.02
  -2   1  -7  345.91   11.29
  -2  -1   7  330.95   10.71
   2  -1   7  318.24   10.82
  -2   1  -8   70.14    5.39
   2   1  -8   66.16    6.10
   2  -1  -8   87.33    6.58
  -2  -1  -8   85.83    5.87
  -2   1  -8   85.17    5.88
  -2  -1   8   64.62    6.61
   2  -1   8   82.35   11.01
  -2   1  -9  819.58   16.93
   2   1  -9  769.93   16.90
   2  -1  -9  832.35   18.29
  -2  -1  -9  752.93   18.10
  -2   1  -9  789.24   18.54
   2  -1   9  787.10   19.72
  -2   1 -10  298.27    9.70
   2   1 -10  311.25   10.65
   2  -1 -10  290.33    9.62
  -2  -1 -10  330.04   12.02
  -2   1 -10  300.39   11.23
  -2  -1  10  271.03   10.82
   2  -1  10  345.15   13.06
  -2   1  11  161.16    7.64
  -2   1 -11  157.90    7.17
   2   1 -11  161.43    7.85
  -2  -1 -11  140.47    9.73
  -2   1 -11  140.86    7.73
  -2  -1  11  152.01    8.45
   2  -1  11  155.67    8.93
  -2   1  12   46.13    3.12
  -2   1 -12   41.18    2.62
   2   1 -12   36.88    3.29
  -2  -1 -12   40.54   12.71
  -2   1 -12   44.47   12.12
  -2  -1  12   34.05   11.39
   2  -1  12   47.59   14.20
  -2   1  13  496.94   15.58
   2   1 -13  459.56   15.34
  -2  -1 -13  466.94   16.50
  -2   1 -13  453.99   16.82
  -2  -1  13  476.88   18.51
   2  -1  13  482.21   18.12
   2   1 -14  195.24    6.90
  -2  -1 -14  177.50   14.71
  -2  -1  14  223.72    8.45
   2  -1  14  229.38    9.51
  -2  -1 -15    2.38    2.30
  -2   1 -15    7.41    1.51
  -2  -1  15    9.29    6.28
   2  -1  15    2.13    2.28
  -2  -1 -16   66.57   15.29
  -2   1 -16   71.37    7.15
   2   1  16   62.74    5.20
  -2  -1  16   68.35   11.49
   2  -1  16   70.44   18.04
  -2  -1 -17    3.66    1.81
  -2   1 -17    4.22    1.40
  -2   1  17    6.02    2.57
   2   1  17    8.08    4.21
  -2  -1  17    7.44    2.93
   2  -1  17   10.51    5.46
  -2  -1 -18   61.77   17.79
  -2   1  18   70.97   17.22
   2   1  18   52.01   17.50
   2  -1  18   74.07   11.74
  -2  -1  18   72.47   20.90
  -2  -1 -19  187.30   15.66
  -2   1  19  193.24    9.14
   2   1  19  174.43   15.80
   2  -1  19  187.67   15.09
  -2  -1  19  178.73   17.72
  -2   1  20   15.02    6.22
   2   1  20   14.28    5.32
   2  -1  20   20.08    5.34
  -2  -1  20   18.16    5.37
  -2   2   0  508.43   12.88
   2   2   0  493.95   12.97
  -2  -2   0  505.88   13.04
  -2   2   0  521.93   12.75
   2  -2   0  526.99   13.42
  -2   2  -1 7018.76   71.03
   2   2  -1 7054.13   71.68
   2   2   1 7068.38   71.42
  -2  -2  -1 7151.22   73.01
   2  -2   1 7176.91   72.80
  -2   2   2 1104.23   13.18
  -2   2  -2 1119.98   13.12
   2   2  -2 1086.64   13.31
   2   2   2 1115.22   12.68
  -2  -2   2 1077.53   13.50
  -2   2   2 1157.01   11.87
  -2  -2  -2 1108.38   13.95
  -2   2  -2 1114.47   13.62
   2  -2   2 1113.92   14.49
  -2  -2   2 1124.77   13.16
  -2   2   3  372.47    9.76
  -2   2  -3  380.62    9.97
  -2  -2  -3  369.73    9.36
   2   2  -3  375.47   10.09
   2   2   3  375.53    9.44
  -2  -2  -3  358.39   10.01
  -2   2  -3  387.06   10.34
  -2   2   3  376.40    9.19
   2  -2   3  380.51   10.41
  -2  -2   3  375.81    9.99
  -2   2   4  137.89    7.92
  -2   2  -4  117.26    7.60
  -2  -2  -4  152.48    8.49
   2   2  -4  148.43    8.66
   2   2   4  114.48    6.54
  -2  -2  -4  154.93    9.08
  -2   2  -4  116.60    7.04
  -2   2   4  147.90    8.38
   2  -2   4  145.91    8.70
  -2  -2   4  107.41    7.39
  -2   2   5   95.21    5.69
  -2   2  -5   89.28    5.34
  -2  -2  -5   89.06    4.98
   2   2  -5   83.39    5.46
   2   2   5   89.41    5.03
  -2  -2  -5   85.75    5.75
  -2   2  -5   88.95    5.70
   2  -2   5   89.23    5.83
  -2  -2   5   87.79    5.46
  -2   2   6   94.36    5.63
  -2  -2  -6   86.43    4.78
  -2   2  -6   89.30    5.37
   2   2  -6   88.89    5.51
   2   2   6   84.43    4.68
  -2  -2  -6   92.33    5.95
  -2   2  -6   85.11    5.56
   2  -2   6   92.93    6.09
  -2  -2   6   80.86    5.43
  -2   2   7  483.17   14.54
  -2   2  -7  494.10   14.45
   2   2  -7  469.65   14.10
  -2  -2  -7  472.91   14.57
  -2   2  -7  490.32   16.09
   2  -2   7  488.99   15.39
  -2  -2   7  476.19   14.70
  -2   2   8    1.26    0.76
  -2   2  -8    0.62    0.50
   2   2  -8    0.24    1.07
  -2  -2  -8    2.24    2.05
  -2   2  -8    1.50    2.56
  -2  -2   8   -0.29    1.45
   2  -2   8   -0.58    2.48
  -2   2   9   21.85    1.83
  -2   2  -9   24.23    3.35
   2   2  -9   22.63    2.43
  -2  -2  -9   21.67    6.06
  -2   2  -9   22.68    7.59
  -2  -2   9   22.72    9.44
   2  -2   9   21.32   10.00
  -2   2  10   20.77    2.34
  -2   2 -10   22.56    1.81
   2   2 -10   24.99    2.78
  -2  -2 -10   23.82    6.56
  -2   2 -10   26.13    5.61
  -2  -2  10   17.78    6.00
   2  -2  10   25.07    8.66
  -2   2  11  275.10    4.98
  -2   2 -11  255.65   11.42
   2   2 -11  262.66   12.48
  -2  -2 -11  257.91   12.47
  -2   2 -11  255.09   12.64
   2  -2  11  268.49    7.68
  -2  -2  11  250.50   12.42
  -2   2  12  851.69   20.01
  -2   2 -12  862.66   19.55
   2   2 -12  824.51   19.68
  -2  -2 -12  760.61   19.90
  -2   2 -12  846.38   22.21
  -2  -2  12  852.09   25.18
   2  -2  12  862.49   23.10
   2   2 -13 1007.28   21.43
  -2  -2 -13 1068.23   14.01
  -2   2 -13 1028.71   21.28
   2  -2  13 1063.90   31.87
  -2  -2  13 1058.19   24.97
   2   2 -14   17.16    4.58
  -2  -2 -14   21.92    6.32
  -2   2 -14   18.11    5.13
  -2  -2  14   14.62    3.73
   2  -2  14   14.36    7.06
  -2  -2 -15  113.65   18.91
  -2   2 -15  123.49   19.04
  -2  -2  15  127.90    9.68
   2  -2  15  129.82    7.29
  -2  -2 -16  126.97    7.59
  -2   2 -16  120.16   14.26
  -2  -2  16  101.35    9.52
   2  -2  16  132.95   10.11
  -2  -2 -17   15.05    3.55
   2  -2  17   17.50    4.52
  -2  -2  17   19.57    5.19
  -2  -2 -18   16.36    4.03
   2   2  18   13.92    3.63
   2  -2  18   12.47    6.11
  -2  -2  18   14.90    3.06
  -2  -2 -19   -0.83    2.46
  -2   2  19    3.58    2.89
   2   2  19   -2.61    3.46
   2  -2  19   -0.25    3.99
  -2  -2  19    1.32    2.86
  -2  -2 -20   19.22    4.99
  -2   2  20   10.89    3.90
   2   2  20    9.05    4.75
   2  -2  20   12.88    5.66
  -2  -2  20    5.84    4.88
  -2   3   0   26.26    2.36
   2   3   0   25.98    6.39
  -2  -3   0   26.42    7.03
   2  -3   0   27.63    1.99
  -2   3   0   31.11    2.60
   2  -3   0   32.53    4.35
  -2   3   1 2615.99   28.33
  -2   3  -1 2463.68   26.85
   2   3   1 2459.19   26.51
   2   3  -1 2623.02   28.60
  -2  -3   1 2431.91   27.35
  -2  -3  -1 2616.69   28.75
   2  -3  -1 2619.27   26.46
  -2   3  -1 2504.39   26.45
  -2   3   2 1046.02   12.78
  -2   3  -2 1057.61   12.97
   2   3   2 1084.26   12.71
   2   3  -2 1062.33   13.50
  -2  -3   2 1050.13   13.39
  -2  -3  -2 1061.17   16.38
  -2   3  -2 1078.37   12.95
   2  -3   2 1036.96   13.27
  -2  -3   2 1044.80   12.78
  -2   3   3  782.41   10.17
  -2   3  -3  763.73   10.52
   2   3   3  790.90    9.60
   2   3  -3  788.30   10.55
  -2  -3  -3  801.68   11.42
  -2   3  -3  761.20   10.18
   2  -3   3  765.95   10.78
  -2  -3   3  769.59   10.23
  -2   3   4  767.80    9.99
  -2   3  -4  844.68   10.93
   2   3   4  822.85    9.91
   2   3  -4  775.39   10.92
  -2  -3  -4  767.90   11.37
  -2   3   4  807.00    8.73
  -2   3  -4  839.21   11.49
   2  -3   4  771.29   11.30
  -2  -3   4  829.50   11.18
  -2   3   5  575.57   14.74
  -2   3  -5  599.89   32.60
   2   3  -5  555.52   14.62
   2   3   5  577.19   14.34
  -2  -3  -5  578.07   15.25
  -2   3  -5  583.06   17.47
   2  -3   5  562.47   15.30
  -2  -3   5  564.41   15.23
  -2   3   6  558.37   14.33
  -2  -3  -6  538.08   13.20
  -2   3  -6  566.85   14.64
   2   3  -6  534.55   14.27
   2   3   6  553.82   13.60
  -2  -3  -6  563.08   15.09
  -2   3  -6  574.26   15.68
   2  -3   6  545.27   15.11
  -2  -3   6  550.59   14.78
  -2   3   7  270.87    8.81
  -2  -3  -7  263.14    7.47
  -2   3  -7  252.93    8.12
   2   3  -7  263.91    8.79
  -2  -3  -7  268.23    9.34
  -2   3  -7  243.96    8.83
   2  -3   7  267.09   11.25
  -2  -3   7  235.19    8.23
  -2   3   8 1184.39   25.24
  -2   3  -8 1132.64   24.20
   2   3  -8 1155.93   25.19
  -2  -3  -8 1176.80   26.07
  -2   3  -8 1122.25   26.34
   2  -3   8 1178.17   27.01
  -2   3   9  191.01    7.42
   2   3  -9  194.23    7.28
  -2  -3  -9  189.91    9.76
  -2   3  -9  240.14    9.43
   2  -3   9  184.15   11.18
  -2  -3   9  226.13   13.11
   2   3 -10    2.12    1.18
  -2  -3 -10    1.47    1.36
  -2   3 -10    6.85    2.98
   2  -3  10    4.26    2.71
  -2  -3  10   -0.70    2.39
  -2   3  11   81.16    3.06
  -2   3 -11   88.17    6.02
   2   3 -11   76.06    5.47
  -2  -3 -11   68.40    8.40
  -2   3 -11   83.54   10.88
   2  -3  11   84.86    9.93
  -2  -3  11   68.62    5.24
  -2   3  12  180.84    4.90
  -2   3 -12  213.25    7.63
   2   3 -12  175.29    5.39
  -2  -3 -12  167.92    5.69
   2  -3  12  186.15    7.30
  -2  -3  12  195.14    8.37
  -2   3 -13  172.41   11.13
   2   3 -13  197.77    6.70
  -2  -3 -13  184.07    6.82
  -2   3 -13  160.88   13.21
   2  -3  13  203.30    8.67
  -2  -3  13  161.25    7.82
   2   3 -14   81.69    6.41
  -2  -3 -14   74.95    9.88
  -2   3 -14   78.89   11.25
   2  -3  14   82.35    9.72
  -2  -3  14   76.90    7.96
  -2  -3 -15  128.33    9.13
  -2   3 -15  132.60    6.49
   2  -3  15  145.94    7.53
  -2  -3  15  128.51    7.03
  -2  -3 -16   89.39    9.69
   2  -3  16   94.55   12.97
  -2  -3  16  103.30   12.50
  -2  -3 -17   89.82    8.91
   2  -3  17   97.93   12.09
  -2  -3  17   91.76   10.26
  -2  -3 -18    1.91    1.39
   2  -3  18    2.19    2.50
  -2  -3  18    2.05    2.14
  -2  -3 -19    8.17    2.35
   2  -3  19    8.62    3.54
  -2  -3  19    5.21    4.75
  -2  -3 -20   39.80   11.50
   2   3  20   43.08   16.19
   2  -3  20   58.47   16.07
  -2  -3  20   43.18   11.79
  -2   4   0   64.26    4.29
   2   4   0   38.90    2.91
  -2  -4   0   42.85    7.59
   2  -4   0   64.63    4.92
  -2   4   1  402.78   10.97
  -2   4  -1  390.36   10.63
   2   4   1  380.78   11.11
   2   4  -1  400.74   10.84
  -2  -4   1  401.97   11.10
  -2  -4  -1  393.19   10.86
   2  -4  -1  400.80    9.89
   2  -4   1  399.07   11.24
  -2  -4   1  383.46   10.53
  -2   4   2  220.15    6.64
  -2   4  -2  239.34    7.30
   2   4   2  233.31    6.64
   2   4  -2  217.41    7.10
  -2  -4   2  229.67    7.05
   2  -4  -2  248.48    6.11
  -2  -4  -2  223.91    6.91
   2  -4  -2  246.82    6.02
  -2   4  -2  238.07    7.83
   2  -4   2  219.03    7.05
  -2  -4   2  238.27    8.49
  -2   4   3  115.37    7.40
  -2   4  -3  110.13    6.82
   2   4   3   84.96    5.13
   2   4  -3   94.23    5.93
  -2  -4  -3   99.26    6.96
  -2   4  -3  107.04    6.58
   2  -4   3  117.97    8.26
  -2  -4   3   83.71    5.48
  -2   4   4  680.38    9.81
  -2   4  -4  725.21   10.48
   2   4   4  691.76    8.96
   2   4  -4  672.88   10.67
  -2   4   4  673.80    7.23
  -2  -4  -4  660.94    9.88
  -2   4  -4  721.52   10.62
   2  -4   4  693.21   11.21
  -2  -4   4  692.96   10.55
  -2   4   5  551.22   14.47
   2   4   5  576.50   14.54
   2   4  -5  523.96   14.17
  -2   4   5  548.68   13.43
  -2  -4  -5  522.21   14.84
  -2   4  -5  593.01   15.80
   2  -4  -5  573.53   13.98
   2  -4   5  559.51   15.66
  -2  -4   5  576.56   16.26
  -2   4   6 1349.22   29.09
  -2   4  -6 1320.05   28.14
   2   4   6 1322.25   27.25
   2   4  -6 1368.73   29.42
  -2  -4  -6 1371.36   30.70
  -2   4  -6 1237.52   27.24
   2  -4  -6 1304.31   26.72
   2  -4   6 1382.66   30.50
  -2  -4   6 1289.82   28.34
  -2   4   7  563.68   17.14
  -2   4  -7  534.08   16.05
   2   4   7  478.69   13.87
   2   4  -7  510.05   15.97
  -2  -4  -7  512.04   15.66
  -2   4  -7  491.71   16.05
   2  -4  -7  473.69   14.37
  -2  -4   7  483.66   15.34
  -2  -4  -8 1137.97   22.92
  -2   4   8 1144.20   24.35
  -2   4  -8 1146.91   25.49
   2   4  -8 1148.48   25.14
   2   4   8 1125.59   22.78
  -2  -4  -8 1153.29   25.34
  -2   4  -8 1121.47   25.41
   2  -4  -8 1175.20   25.02
   2  -4   8 1196.04   27.51
  -2   4   9  234.53    8.44
  -2   4  -9  231.02    8.68
   2   4  -9  228.38    8.51
  -2  -4  -9  207.69    8.00
  -2   4  -9  222.87   13.55
   2  -4  -9  244.99    8.51
   2  -4   9  236.16   10.07
  -2  -4   9  220.46    9.07
  -2   4  10   55.04    2.27
  -2   4 -10   63.54    2.93
   2   4 -10   54.48    7.74
  -2  -4 -10   51.89    3.44
  -2   4 -10   64.08    8.02
   2  -4  10   52.27    6.98
  -2  -4  10   63.85    6.69
  -2   4  11  265.25    7.21
  -2   4 -11  275.20    8.15
   2   4 -11  246.20    7.69
  -2  -4 -11  246.33    8.32
  -2   4 -11  272.22    9.58
   2  -4  11  273.77   10.75
  -2  -4  11  253.70   14.60
  -2   4  12   23.71    5.90
  -2   4 -12   14.04    3.89
   2   4 -12   21.56    6.68
  -2  -4 -12   21.11    6.11
  -2   4 -12   23.16    5.37
   2  -4  12   23.45    7.59
  -2  -4  12   13.89    4.24
  -2   4 -13   23.49    3.55
   2   4 -13   23.37    5.17
  -2  -4 -13   28.57    7.89
  -2   4 -13   33.92    9.90
   2  -4  13   29.33    8.37
  -2  -4  13   27.64    6.45
   2   4 -14   47.07   10.02
  -2  -4 -14   49.79    3.89
   2  -4  14   57.25   14.85
   2   4 -15   11.22    2.74
  -2  -4 -15   14.62    3.76
   2  -4  15   14.35    6.17
  -2  -4  15   12.65    3.05
  -2  -4 -16  225.15   17.70
   2  -4  16  222.69   16.30
  -2  -4  16  228.47    9.54
  -2  -4 -17   73.25   17.92
   2  -4  17   98.93   10.45
  -2  -4  17   88.10    7.12
  -2  -4 -18    8.66    1.98
   2  -4  18    9.62    5.12
  -2  -4  18   11.23    4.97
  -2  -4 -19   42.62    4.06
   2  -4  19   49.17   11.75
  -2  -4  19   46.78   14.45
  -2  -4 -20   29.70    6.75
   2  -4  20   41.37   11.61
  -2  -4  20   37.11   15.15
  -2   5   0  345.43    9.93
   2   5   0  340.92    9.66
  -2  -5   0  334.28   10.55
   2  -5   0  347.48   10.44
  -2   5   1  134.20    8.27
   2   5   1  139.81    8.36
  -2  -5   1  141.41   10.88
  -2  -5  -1  105.26    8.21
   2  -5   1  135.02    8.61
  -2   5   2 1597.19   19.47
  -2   5  -2 1545.30   19.54
   2   5   2 1524.26   18.47
   2   5  -2 1501.11   18.73
  -2  -5   2 1524.00   19.48
   2  -5  -2 1554.92   16.61
  -2  -5  -2 1525.06   18.97
   2  -5  -2 1538.34   16.12
   2  -5   2 1559.35   20.20
  -2  -5   2 1469.77   19.55
  -2   5   3  307.43    8.90
  -2   5  -3  319.31    9.43
   2   5   3  324.95    9.29
   2   5  -3  312.05    9.17
  -2  -5  -3  321.02    9.35
   2  -5  -3  349.35    8.52
   2  -5   3  300.52    9.26
  -2  -5   3  317.94    9.63
  -2   5  -4  147.25    5.93
   2   5   4  111.59    6.69
   2   5  -4  120.07    7.41
  -2  -5  -4  123.05    4.95
   2  -5  -4  115.86    6.30
   2  -5   4  144.29    6.18
  -2  -5   4  121.50    7.86
  -2   5   5  983.08   21.73
  -2   5  -5 1010.01   22.36
   2   5   5  977.84   20.91
   2   5  -5  967.92   21.84
  -2   5   5  996.71   20.36
  -2  -5  -5  975.17   21.82
   2  -5  -5  974.08   19.77
   2  -5   5 1003.58   23.19
  -2  -5   5 1012.98   23.49
  -2   5   6  508.74   15.34
  -2   5  -6  488.53   15.03
   2   5   6  490.52   14.31
   2   5  -6  505.98   15.70
  -2  -5  -6  519.23   15.93
   2  -5  -6  499.17   14.21
  -2   5  -6  468.71   14.91
   2  -5   6  486.39   16.43
  -2  -5   6  492.38   15.67
  -2   5   7  608.05   14.17
  -2   5  -7  603.14   14.21
   2   5   7  614.86   13.37
   2   5  -7  608.22   14.68
  -2  -5  -7  620.18   14.70
   2  -5  -7  609.55   13.10
  -2   5  -7  584.50   16.11
   2  -5   7  602.04   16.30
  -2   5   8  244.33    8.51
  -2   5  -8  209.56    7.85
   2   5   8  215.29    7.61
   2   5  -8  253.36    9.48
  -2  -5  -8  254.48    9.76
   2  -5  -8  221.24    8.46
  -2   5  -8  210.57    8.67
   2  -5   8  248.60   10.62
  -2  -5   8  221.38    9.16
  -2   5   9  128.54    6.38
  -2   5  -9  109.94    7.68
   2   5  -9  130.25    6.93
   2   5   9  111.66    5.46
  -2  -5  -9  124.11    6.82
   2  -5  -9  115.32    5.79
   2  -5   9  121.33    7.86
  -2  -5   9  110.68    6.79
  -2   5  10  305.90    8.14
  -2   5 -10  314.73    9.46
   2   5 -10  312.09   11.22
   2   5  10  315.37    7.46
  -2  -5 -10  322.81    9.90
   2  -5 -10  315.84   10.05
   2  -5  10  322.82   13.56
  -2  -5  10  319.59   11.24
  -2   5  11  254.85    8.82
  -2   5 -11  244.43    8.79
   2   5 -11  263.27    9.98
  -2  -5 -11  252.95    9.95
   2  -5 -11  243.18    8.57
   2  -5  11  249.20   13.29
  -2  -5  11  237.98   11.16
  -2   5  12  254.48    6.28
  -2   5 -12  232.56    6.60
   2   5 -12  261.69    8.42
  -2  -5 -12  244.63    7.40
   2  -5  12  256.09    9.38
  -2  -5  12  229.99    8.78
  -2   5 -13   48.88    4.67
   2   5 -13   41.58    8.94
  -2  -5 -13   44.52    4.73
   2  -5  13   40.50    9.23
  -2  -5  13   50.87   15.02
  -2   5 -14  155.01    6.93
   2   5 -14  157.85   11.68
  -2  -5 -14  146.61   12.69
   2  -5  14  131.28   16.29
   2   5 -15   36.61    4.30
  -2  -5 -15   31.30    5.12
   2  -5  15   33.98    8.97
  -2  -5  15   46.13   14.76
  -2  -5 -16  103.65    8.92
   2  -5  16  101.21   15.22
  -2  -5  16  104.30    6.61
  -2  -5 -17   46.41    8.08
   2  -5  17   61.63   19.45
  -2  -5  17   51.77   15.31
  -2  -5 -18   53.08   14.94
   2  -5  18   62.12   18.70
  -2  -5  18   53.84   23.09
  -2  -5 -19    5.22    1.81
   2  -5  19    2.79    3.57
  -2  -5  19    1.39    1.95
   2  -5  20   19.36    4.75
  -2  -5  20   21.90    9.18
  -2   6   0  143.28    9.03
   2   6   0  122.20    7.63
  -2  -6   0  120.57    7.68
   2  -6   0  143.83    9.26
  -2   6   1  696.41   16.12
  -2   6  -1  695.41   16.16
   2   6   1  732.92   17.45
   2   6  -1  712.66   16.60
  -2  -6   1  711.49   16.70
  -2  -6  -1  713.85   16.79
   2  -6   1  686.26   16.59
  -2   6   2 1017.68   22.58
  -2   6  -2  908.73   20.71
   2   6   2  916.17   20.43
   2   6  -2  961.65   21.92
  -2  -6   2  893.32   20.46
   2  -6  -2  886.79   18.57
  -2  -6  -2  987.15   22.08
   2  -6   2 1013.30   23.24
  -2  -6   2  855.42   19.77
  -2   6  -3  291.28   10.04
   2   6   3  280.53    9.49
   2   6  -3  221.69    7.95
  -2  -6   3  266.15    9.37
  -2  -6  -3  223.68    7.97
   2  -6   3  255.50    9.87
  -2  -6   3  267.72    9.47
  -2   6   4   29.24    7.53
  -2   6  -4   24.73    2.40
   2   6   4   29.75    2.66
   2   6  -4   30.01    6.99
  -2  -6  -4   32.47    3.00
   2  -6  -4   32.91    2.14
   2  -6   4   28.82    3.88
  -2  -6   4   32.28    3.29
  -2   6   5  166.13    6.22
  -2   6  -5  180.38    6.76
   2   6   5  190.84    6.77
   2   6  -5  162.59    7.49
  -2   6   5  172.38    5.16
  -2  -6  -5  164.70    6.47
   2  -6  -5  197.37    5.80
   2  -6   5  165.24    7.58
  -2  -6   5  193.37    7.70
  -2   6   6  198.39    7.66
  -2   6  -6  167.50    9.20
   2   6   6  167.84    6.82
   2   6  -6  178.43    9.14
  -2   6   6  179.55    5.90
  -2  -6  -6  193.50    7.51
   2  -6  -6  177.39    5.77
   2  -6   6  179.99    8.83
  -2   6   7  301.50   10.88
  -2   6  -7  290.70   10.78
   2   6   7  278.77    9.47
   2   6  -7  298.43   10.94
  -2  -6  -7  301.46   10.76
   2  -6  -7  287.68    9.35
   2  -6   7  289.36   11.52
  -2  -6   7  293.56   11.54
  -2   6   8   19.40    5.72
  -2   6  -8   19.14    3.89
   2   6   8   17.06    4.09
   2   6  -8   22.55    5.94
  -2  -6  -8   17.83    6.21
   2  -6  -8   17.62    2.52
   2  -6   8   19.13    7.21
  -2  -6   8   19.76    5.87
  -2   6   9  144.59    7.53
  -2   6  -9  129.04   12.25
   2   6   9  122.80    6.75
   2   6  -9  124.72    8.14
  -2  -6  -9  120.29    6.68
   2  -6  -9  125.88    6.13
   2  -6   9  115.92   12.18
  -2  -6   9  121.38    9.11
  -2   6  10  318.59    9.36
  -2   6 -10  334.86   10.07
   2   6 -10  311.84    9.94
   2   6  10  320.48    8.12
  -2  -6 -10  308.12   10.88
   2  -6 -10  324.90    8.66
   2  -6  10  330.64   12.17
  -2  -6  10  318.14   10.91
  -2   6  11  489.07   15.26
  -2   6 -11  466.59   15.65
   2   6 -11  478.07   16.40
  -2  -6 -11  485.58   16.91
   2  -6 -11  449.77   15.33
   2  -6  11  498.21   20.75
  -2  -6  11  448.68   17.45
  -2   6  12    8.77    3.47
  -2   6 -12   14.21    4.61
   2   6 -12   12.17    3.39
  -2  -6 -12   13.92    2.07
   2  -6  12   11.69    4.66
  -2  -6  12   14.39    5.61
  -2   6 -13   90.12    4.71
   2   6 -13   94.98    4.71
  -2  -6 -13   89.78    7.50
   2  -6  13   87.29    7.50
  -2   6 -14  200.23    9.64
   2   6 -14  213.14   16.94
  -2  -6 -14  199.28   13.43
   2  -6  14  205.57   15.69
  -2  -6  14  191.92   15.91
   2   6 -15  133.56   10.40
  -2  -6 -15  136.33    9.67
   2  -6  15  139.28    7.62
  -2  -6  15  133.10    7.08
  -2  -6 -16   40.42    8.53
   2  -6  16   41.39   13.94
  -2  -6  16   47.18   13.10
  -2  -6 -17   30.23    9.04
   2  -6  17   37.04    8.87
  -2  -6  17   30.78   11.63
  -2  -6 -18   15.90    5.26
   2  -6  18   18.38    6.57
  -2  -6  18   12.18    2.90
   2  -6  19   19.74    4.87
  -2  -6  19    8.39    3.18
  -2   7   0    3.33    1.38
   2   7   0    3.14    2.38
  -2  -7   0    2.56    1.17
  -2   7   1  191.81    7.34
  -2   7  -1  209.76    7.88
   2   7   1  216.28    7.79
   2   7  -1  215.58    7.97
   2  -7  -1  218.83    7.23
  -2  -7   1  218.45    8.08
  -2  -7  -1  206.96    7.78
   2  -7   1  202.69   11.13
  -2   7   2  866.51   19.94
  -2   7  -2  884.02   20.52
   2   7   2  879.21   20.34
   2   7  -2  875.68   21.58
  -2  -7   2  886.67   20.60
   2  -7  -2  928.96   19.92
  -2  -7  -2  909.75   21.04
   2  -7   2  848.47   20.56
  -2  -7   2  879.95   21.02
  -2   7   3  426.74   13.81
  -2   7  -3  415.94   13.59
   2   7   3  422.29   13.20
   2   7  -3  409.42   13.47
  -2  -7   3  427.27   14.05
   2  -7  -3  437.64   12.81
  -2  -7  -3  432.28   13.86
   2  -7   3  433.08   15.24
  -2  -7   3  413.29   14.10
  -2   7  -4  665.73   16.28
   2   7   4  687.49   15.90
   2   7  -4  674.27   17.08
  -2  -7  -4  677.99   16.01
   2  -7  -4  708.20   14.81
   2  -7   4  651.78   16.83
  -2  -7   4  690.75   17.64
  -2   7   5  654.79   15.63
  -2   7  -5  625.28   15.72
   2   7   5  638.19   15.24
   2   7  -5  612.21   15.62
  -2  -7  -5  618.74   16.42
   2  -7  -5  649.03   13.51
   2  -7   5  651.62   17.11
  -2  -7   5  645.74   16.98
  -2   7   6  358.28   12.52
  -2   7  -6  338.07   12.55
   2   7   6  350.28   11.81
   2   7  -6  356.37   12.98
  -2   7   6  366.62   11.44
  -2  -7  -6  351.03   13.59
   2  -7  -6  352.29   10.86
   2  -7   6  335.88   14.88
  -2  -7   6  346.92   13.56
  -2   7   7  447.24   13.55
  -2   7  -7  408.68   14.66
   2   7   7  416.22   12.48
   2   7  -7  464.35   14.75
  -2  -7  -7  468.36   14.23
   2  -7  -7  431.40   12.02
   2  -7   7  455.28   15.56
  -2  -7   7  423.59   14.50
  -2   7   8  168.46    4.88
  -2   7  -8  174.98    5.54
   2   7   8  176.96    4.13
   2   7  -8  166.71    5.72
  -2  -7  -8  177.50    5.62
   2  -7  -8  185.65    3.92
   2  -7   8  166.22    9.87
  -2  -7   8  180.95   10.56
  -2   7   9   52.06    4.14
  -2   7  -9   43.34    3.42
   2   7   9   37.79    2.01
   2   7  -9   52.15    4.92
  -2  -7  -9   43.67    3.70
   2  -7  -9   40.25    2.38
   2  -7   9   55.05    9.29
  -2  -7   9   37.17   12.03
  -2   7  10  217.71    8.19
  -2   7 -10  254.20    9.70
   2   7  10  235.86    8.81
   2   7 -10  209.59   11.71
  -2  -7 -10  225.20    9.31
   2  -7 -10  250.49    8.27
   2  -7  10  218.92   10.28
  -2  -7  10  249.49   11.51
  -2   7  11   62.34    2.88
  -2   7 -11   61.35    4.55
   2   7 -11   58.89    5.54
  -2  -7 -11   63.33    4.62
   2  -7 -11   63.09    4.79
   2  -7  11   64.50   19.35
  -2  -7  11   64.70    5.62
  -2   7  12    5.62    2.57
  -2   7 -12   16.64    2.76
   2   7 -12    8.01    2.51
   2  -7  12    8.85    4.27
  -2  -7  12   18.20    6.06
  -2   7 -13   53.85    4.47
   2   7 -13   53.54   10.43
  -2  -7 -13   52.30    3.37
   2  -7  13   53.09   16.05
  -2  -7  13   55.78   15.78
  -2   7 -14   88.31    7.50
   2   7 -14   75.81    5.44
  -2  -7 -14   83.97    4.77
   2  -7  14   84.48    8.29
  -2  -7  14   87.75    9.33
   2   7 -15    6.21    2.24
  -2  -7 -15    7.89    2.13
   2  -7  15    2.39    2.33
  -2  -7  15    2.82    1.59
  -2  -7 -16   19.84    5.50
   2  -7  16   27.67    9.14
  -2  -7  16   19.29    5.79
   2  -7  17   40.58    9.52
  -2  -7  17   32.56   10.05
   2  -7  18   78.55   19.31
  -2  -7  18   61.75   24.98
   2  -7  19   22.08    8.76
  -2  -7  19   20.00    8.16
  -2   8   0    5.63    2.48
   2   8   0    5.26    2.34
  -2  -8   0    4.24    2.49
  -2   8   1    3.55    2.62
  -2   8  -1    6.05    2.47
   2   8   1    8.59    2.99
   2   8  -1    4.22    2.61
   2  -8  -1    6.54    1.62
  -2  -8   1    8.00    2.37
  -2  -8  -1    3.37    1.73
   2  -8   1    3.08    3.42
  -2   8   2  110.08    4.66
  -2   8  -2  127.51    5.01
   2   8   2  124.71    8.74
   2   8  -2  113.90    4.61
  -2  -8   2  127.33    5.61
   2  -8  -2  128.27    3.16
  -2  -8  -2  116.67    4.40
  -2   8   3  691.10   16.72
  -2   8  -3  700.01   16.99
   2   8   3  719.03   17.66
   2   8  -3  700.69   18.66
  -2  -8   3  732.19   18.16
   2  -8  -3  720.59   15.63
  -2  -8  -3  727.48   17.82
   2  -8   3  796.66   20.51
  -2  -8   3  719.24   17.94
  -2   8   4  691.63   16.68
  -2   8  -4  674.30   17.85
   2   8   4  663.75   16.42
   2   8  -4  708.10   17.45
  -2  -8   4  679.25   17.42
  -2  -8  -4  703.10   16.84
   2  -8  -4  705.47   14.91
   2  -8   4  680.03   18.19
  -2  -8   4  707.88   18.37
  -2   8   5  611.44   20.03
  -2   8  -5  605.39   18.63
   2   8   5  613.18   18.41
   2   8  -5  597.35   18.73
  -2  -8  -5  613.65   18.75
   2  -8  -5  618.62   16.64
   2  -8   5  589.17   26.09
  -2  -8   5  618.51   19.68
  -2   8   6  445.16   13.76
  -2   8  -6  432.61   15.00
   2   8   6  445.64   13.56
   2   8  -6  441.36   14.17
  -2  -8  -6  432.37   13.66
   2  -8  -6  443.96   12.08
   2  -8   6  438.20   14.99
  -2  -8   6  442.01   15.17
  -2   8   7  143.01    5.50
  -2   8  -7  141.22    5.14
   2   8   7  149.10    4.24
   2   8  -7  146.54    5.33
  -2  -8  -7  147.77    4.96
   2  -8  -7  152.57    2.79
   2  -8   7  145.86    6.62
  -2  -8   7  155.30   10.55
  -2   8   8  435.84   11.85
  -2   8  -8  446.47   14.00
   2   8   8  457.53   12.51
   2   8  -8  443.47   13.46
  -2  -8  -8  430.05   13.07
   2  -8  -8  441.19   10.76
   2  -8   8  430.03   14.65
  -2  -8   8  432.56   13.69
  -2   8   9  176.80    5.46
  -2   8  -9  174.75    5.81
   2   8   9  172.89    5.07
   2   8  -9  175.99    6.31
  -2  -8  -9  188.56    9.85
   2  -8  -9  173.72    3.33
   2  -8   9  179.67    9.31
  -2  -8   9  175.32    8.05
  -2   8  10   59.34    5.40
  -2   8 -10   46.62   12.42
   2   8  10   43.61    4.47
   2   8 -10   54.49   11.35
  -2  -8 -10   54.96    3.23
   2  -8  10   56.90    6.21
  -2  -8  10   42.11   15.50
  -2   8  11   41.93    4.51
  -2   8 -11   51.09    5.57
   2   8 -11   43.50   11.30
  -2  -8 -11   39.07    7.84
   2  -8  11   47.77   13.59
  -2  -8  11   42.76    4.76
  -2   8 -12   45.03    8.35
   2   8 -12   41.47   11.44
  -2  -8 -12   39.30    6.81
   2  -8  12   39.60   14.37
  -2  -8  12   44.08   17.22
  -2   8 -13    6.38    1.40
   2   8 -13    7.96    2.60
  -2  -8 -13    7.05    2.21
   2  -8  13    6.95    4.09
  -2  -8  13    4.80    4.81
  -2   8 -14   37.42    8.18
   2   8 -14   35.86    8.03
  -2  -8 -14   31.92    7.53
   2  -8  14   34.50   11.42
  -2  -8  14   39.48   15.33
  -2   8 -15   12.31    2.90
   2   8 -15   12.14    3.22
  -2  -8 -15   10.86    3.34
   2  -8  15   12.81    4.94
  -2  -8  15   12.57    5.75
   2   8 -16   34.39    9.47
   2  -8  16   42.19   20.14
  -2  -8  16   40.30   13.89
   2  -8  17   37.67   13.95
  -2  -8  17   36.50   12.22
   2  -8  18    2.99    2.78
  -2  -8  18    3.91    2.45
  -2   9   0  332.07   11.40
   2   9   0  355.47   12.20
   2  -9   0  344.28   16.48
  -2  -9   0  336.58   11.35
  -2   9   1  185.39    9.70
  -2   9  -1  178.64    9.35
   2   9   1  186.45    9.54
   2   9  -1  189.07   12.61
   2  -9  -1  181.47    8.75
  -2  -9   1  174.31    9.20
  -2  -9  -1  187.77    9.71
  -2   9   2   50.55   11.58
  -2   9  -2   52.65    5.88
   2   9   2   48.51    4.03
   2   9  -2   53.69    4.79
  -2  -9   2   56.78   10.48
   2  -9  -2   54.07    2.46
  -2  -9  -2   44.94    3.80
   2  -9   2   54.05    9.11
  -2   9   3  145.83    7.95
  -2   9  -3  171.08    9.12
   2   9   3  168.53    8.68
   2   9  -3  144.36    8.07
  -2  -9   3  179.25   13.69
   2  -9  -3  173.14   10.17
  -2  -9  -3  138.16    7.44
   2  -9   3  149.95    8.98
  -2  -9   3  173.69   15.56
  -2   9   4  606.49   18.41
  -2   9  -4  643.60   20.02
   2   9   4  622.39   20.51
   2   9  -4  612.03   19.95
  -2  -9   4  647.92   20.06
  -2  -9  -4  607.19   19.13
   2  -9  -4  658.71   18.21
   2  -9   4  603.63   21.27
  -2  -9   4  643.46   20.36
  -2   9   5  117.09   10.23
  -2   9  -5  104.24    4.88
   2   9   5  111.18    4.24
   2   9  -5  113.16    7.77
  -2  -9  -5  110.50    7.90
   2  -9  -5  109.02    3.67
   2  -9   5  120.51    6.44
  -2  -9   5  108.53    7.33
  -2   9   6    7.60    2.56
  -2   9  -6    9.66    3.65
   2   9   6    9.98    2.90
   2   9  -6    7.95    3.06
  -2  -9  -6    6.88    2.30
   2  -9  -6    7.85    2.06
   2  -9   6    7.66    3.20
  -2  -9   6    8.22    3.19
  -2   9   7   41.30    3.94
  -2   9  -7   44.15    5.32
   2   9   7   53.41    8.00
   2   9  -7   50.14    5.33
  -2  -9  -7   42.17    3.62
   2  -9   7   39.15    5.61
  -2  -9   7   50.98    6.60
  -2   9   8  304.07    8.21
  -2   9  -8  315.98    9.27
   2   9   8  326.26    9.71
   2   9  -8  303.94    9.17
  -2  -9  -8  326.31    8.70
   2  -9   8  297.47   10.79
  -2  -9   8  341.47   13.02
  -2   9   9  128.50    5.57
  -2   9  -9  107.62    8.27
   2   9   9  110.34    3.92
   2   9  -9  130.68   13.08
  -2  -9  -9  135.27   10.35
   2  -9   9  107.97    8.54
  -2  -9   9  116.67    7.30
  -2   9  10   44.94    3.77
  -2   9 -10   44.55    4.45
   2   9  10   40.31    5.69
   2   9 -10   48.06    4.51
  -2  -9 -10   49.56    5.06
   2  -9  10   46.08   15.35
  -2  -9  10   45.25   14.22
  -2   9  11   10.10    2.05
  -2   9 -11    7.64    3.84
   2   9 -11   12.39    3.56
  -2  -9 -11   12.08    2.81
   2  -9  11    7.39    4.31
  -2  -9  11   10.46    6.08
  -2   9 -12   21.23    7.23
   2   9 -12   17.43    3.71
  -2  -9 -12   14.48    4.54
   2  -9  12   20.91    5.88
  -2  -9  12   20.83    6.16
  -2   9 -13   55.12   12.01
   2   9 -13   44.68   10.70
  -2  -9 -13   36.39    6.16
   2  -9  13   37.56   14.82
  -2  -9  13   58.67    6.22
  -2   9 -14   26.48    7.12
   2   9 -14   27.54    4.81
   2  -9  14   28.38   12.79
  -2  -9  14   29.96    9.97
  -2   9 -15  109.96   11.60
   2   9 -15  110.87   11.43
   2  -9  15  108.60   13.30
  -2  -9  15  123.92    9.89
   2   9 -16   80.17    6.83
   2  -9  16   71.44   21.13
  -2  -9  16   80.01   17.83
   2  -9  17   31.93    9.62
  -2  -9  17   30.04   14.06
   2  -9  18    0.38    3.09
  -2  -9  18    2.05    1.83
  -2  10   0  505.17   14.56
   2  10   0  510.58   17.24
   2 -10   0  506.17   14.77
  -2 -10   0  482.96   20.64
  -2  10   1  283.83   14.57
  -2  10  -1  246.35    8.66
   2  10   1  244.37   10.46
   2  10  -1  293.24    9.79
   2 -10  -1  258.06   10.53
  -2 -10   1  263.49    9.05
  -2 -10  -1  294.64    9.78
  -2  10   2   65.07    4.00
  -2  10  -2   61.85    7.26
   2  10   2   61.64   10.17
   2  10  -2   60.61   13.70
  -2 -10   2   57.98    4.52
   2 -10  -2   55.97    2.94
  -2 -10  -2   62.62    6.85
   2 -10   2   60.20    4.77
  -2  10   3  110.25    6.85
  -2  10  -3  107.87   10.54
   2  10   3  103.15    4.83
   2  10  -3  100.81    4.96
  -2 -10   3  101.39    7.11
   2 -10  -3  106.40    5.00
  -2 -10  -3  110.47    6.96
   2 -10   3  113.03    6.43
  -2  10   4  120.03    6.12
  -2  10  -4  152.12    6.27
   2  10   4  149.63    5.38
   2  10  -4  120.42   12.82
  -2 -10   4  156.12   13.11
   2 -10  -4  144.48    4.51
   2 -10   4  115.69    9.23
  -2 -10   4  150.96    9.54
  -2  10   5    0.87    0.99
  -2  10  -5   -0.24    1.58
   2  10   5    1.43    1.42
   2  10  -5    2.22    1.17
  -2 -10   5   -0.70    1.85
  -2 -10  -5    0.80    1.29
   2 -10  -5   -0.11    0.46
   2 -10   5    0.09    3.26
  -2 -10   5    4.93    3.80
  -2  10   6    6.55    2.46
  -2  10  -6    8.47    1.69
   2  10   6    6.90    2.16
   2  10  -6    6.17    3.18
  -2 -10  -6    8.29    1.82
   2 -10   6    6.99    4.55
  -2 -10   6    7.52    4.45
  -2  10   7   13.94    4.83
  -2  10  -7   10.60    2.33
   2  10   7    8.62    1.83
   2  10  -7   13.11    5.56
  -2 -10  -7   12.01    1.94
   2 -10   7   13.47    6.44
  -2 -10   7   10.22    5.16
  -2  10   8   21.66    6.09
  -2  10  -8   19.09    6.54
   2  10   8   17.31    5.75
   2  10  -8   27.25    8.47
  -2 -10  -8   23.46    7.07
   2 -10   8   20.57    5.51
  -2 -10   8   18.67    5.42
  -2  10   9    2.29    1.50
  -2  10  -9    5.96    1.64
   2  10   9    4.59    1.60
   2  10  -9    5.32    2.01
  -2 -10  -9    2.76    0.90
   2 -10   9   -0.47    3.73
  -2 -10   9    4.10    3.60
  -2  10  10  102.59    9.07
  -2  10 -10  114.30   10.00
   2  10  10  101.66    3.94
   2  10 -10  103.56    8.01
  -2 -10 -10  115.04    5.53
   2 -10  10  109.16    6.90
  -2 -10  10  106.74    6.83
  -2  10  11   63.78    6.81
  -2  10 -11   79.53   12.66
   2  10 -11   71.05   18.50
  -2 -10 -11   75.88    6.72
   2 -10  11   78.63    7.00
  -2 -10  11   88.32    8.25
  -2  10 -12  131.04   10.67
   2  10 -12  128.10   11.39
   2 -10  12  124.01    8.55
  -2 -10  12  129.98    7.26
  -2  10 -13  140.31   12.22
   2  10 -13  150.83   10.00
   2 -10  13  153.34    8.34
  -2 -10  13  145.96    7.87
  -2  10 -14   58.20   13.66
   2  10 -14   69.51   13.70
   2 -10  14   73.20   18.53
  -2 -10  14   48.17   16.48
  -2  10 -15   80.88   10.43
   2  10 -15   68.38    7.51
   2 -10  15   69.34   23.50
  -2 -10  15   73.65   11.75
   2  10 -16   73.77   12.46
   2 -10  16   78.77   14.05
  -2 -10  16   66.14   14.20
   2 -10  17   13.41    7.27
  -2 -10  17   11.60    5.35
  -2  11   0    5.75    1.89
   2  11   0    4.35    1.92
   2 -11   0    5.73    1.73
  -2 -11   0    3.72    2.52
  -2  11   1  143.70    5.87
  -2  11  -1  144.23   16.28
   2  11   1  132.21    7.35
   2  11  -1  135.00    8.93
   2 -11   1  152.05    9.55
   2 -11  -1  136.19    5.04
  -2 -11   1  152.32   10.60
  -2 -11  -1  153.97   13.50
  -2  11   2  227.88   10.88
  -2  11  -2  218.37   12.39
   2  11   2  210.45    9.07
   2  11  -2  232.53    9.88
  -2 -11   2  231.03   12.39
   2 -11  -2  219.00   13.80
  -2 -11  -2  216.61    9.08
  -2  11   3  345.49   12.92
  -2  11  -3  347.66   13.24
   2  11   3  356.88   13.24
   2  11  -3  358.56   13.57
  -2 -11   3  359.22   14.25
   2 -11  -3  343.11   11.30
  -2 -11  -3  368.13   13.53
   2 -11   3  366.21   15.04
  -2  11   4   33.67   10.52
  -2  11  -4   34.01    9.04
   2  11   4   30.02    9.78
   2  11  -4   42.94   11.89
  -2 -11   4   29.50    5.74
  -2 -11  -4   39.18    3.95
   2 -11  -4   29.28    2.90
   2 -11   4   29.69   10.79
  -2 -11   4   29.82    7.06
  -2  11   5   62.01    7.22
  -2  11  -5   80.57   11.12
   2  11   5   82.88    7.87
   2  11  -5   72.13   11.97
  -2 -11   5   80.64   16.50
  -2 -11  -5   66.85    8.15
   2 -11   5   67.71    6.26
  -2 -11   5   69.68   19.78
  -2  11   6   44.26    4.64
  -2  11  -6   38.46   13.13
   2  11   6   40.51    5.52
   2  11  -6   48.03    4.05
  -2 -11   6   39.79   12.09
  -2 -11  -6   40.30    9.45
   2 -11   6   47.15   14.35
  -2 -11   6   38.97   13.12
  -2  11   7  117.14    5.10
  -2  11  -7  117.16    7.68
   2  11   7  137.41    5.37
   2  11  -7  122.17    5.88
  -2 -11  -7  121.13    7.29
   2 -11   7  117.27   14.15
  -2 -11   7  132.54    7.43
  -2  11   8   22.93    7.81
  -2  11  -8   27.74    7.73
   2  11   8   28.42    9.51
   2  11  -8   27.56    7.39
  -2 -11  -8   25.17    6.12
   2 -11   8   30.24    7.01
  -2 -11   8   30.86    5.46
  -2  11  -9  354.75   10.09
   2  11   9  340.21    8.98
   2  11  -9  325.89   17.54
  -2 -11  -9  344.06    8.86
   2 -11   9  340.08   12.87
  -2 -11   9  355.58   11.14
  -2  11  10   66.64    5.60
  -2  11 -10   53.80   11.71
   2  11 -10   48.44   13.64
  -2 -11 -10   48.69    5.23
   2 -11  10   52.51    5.95
  -2 -11  10   57.00    6.57
  -2  11 -11   24.20    4.83
   2  11 -11   25.99    6.71
   2 -11  11   18.90    5.61
  -2 -11  11   23.08    7.84
  -2  11 -12    1.62    1.07
   2  11 -12    6.08    3.04
   2 -11  12    0.23    2.31
  -2 -11  12    2.01    3.98
  -2  11 -13   18.50    3.62
   2  11 -13   18.17    3.68
   2 -11  13   14.90    6.00
  -2 -11  13   19.89    7.12
  -2  11 -14   34.10    3.91
   2  11 -14   31.37    6.26
   2 -11  14   29.76    8.17
  -2 -11  14   30.11   10.20
  -2  11 -15   43.70   13.32
   2  11 -15   43.73    8.02
   2 -11  15   60.34   13.05
  -2 -11  15   36.73   15.57
   2  11 -16    8.93    4.04
   2 -11  16    4.91    2.50
  -2 -11  16    5.73    4.70
  -2  12   0    2.23    2.12
   2  12   0   -1.12    2.36
   2 -12   0    1.86    1.37
  -2 -12   0    1.13    1.11
  -2  12   1   37.47   10.37
  -2  12  -1   34.95   11.84
   2  12   1   47.53   11.05
   2  12  -1   43.63    7.38
   2 -12   1   38.85   11.08
   2 -12  -1   33.48    8.00
  -2 -12   1   38.22   12.27
  -2 -12  -1   46.18   14.34
  -2  12   2  128.80   10.21
  -2  12  -2  132.76    6.49
   2  12   2  123.00    7.84
   2  12  -2  130.37   12.28
   2 -12   2  142.58    6.24
  -2 -12   2  130.06    8.26
   2 -12  -2  128.99    5.04
  -2 -12  -2  137.64    6.23
  -2  12   3   22.56    5.03
  -2  12  -3   11.54    4.58
   2  12   3   15.80    4.73
   2  12  -3   17.76    6.10
  -2 -12   3   16.98    3.11
  -2 -12  -3   15.87    5.50
   2 -12   3   10.46    6.45
  -2  12   4   30.67   11.73
  -2  12  -4   32.61    9.79
   2  12   4   30.88    7.79
   2  12  -4   39.88   13.39
  -2 -12   4   32.76   11.31
  -2 -12  -4   28.13    8.53
   2 -12   4   33.71    8.75
  -2  12   5   99.61   15.48
  -2  12  -5  117.55   10.59
   2  12   5  115.51    5.84
   2  12  -5  100.90    7.57
  -2 -12   5  113.07    7.02
  -2 -12  -5  104.37    7.74
   2 -12   5   95.67   11.46
  -2 -12   5  107.71   12.84
  -2  12   6  220.28    7.26
  -2  12  -6  192.96    8.65
   2  12   6  212.17    6.88
   2  12  -6  238.04    8.09
  -2 -12   6  207.44   10.52
  -2 -12  -6  221.34    7.52
   2 -12   6  231.02   13.34
  -2 -12   6  208.89   19.47
  -2  12   7  138.58    5.78
  -2  12  -7  162.21   13.77
   2  12   7  165.59    5.98
   2  12  -7  145.13   17.97
  -2 -12   7  166.02   15.45
  -2 -12  -7  136.14   10.82
   2 -12   7  144.18    8.37
  -2 -12   7  161.27   12.30
  -2  12   8    2.48    0.99
  -2  12  -8    0.92    2.08
   2  12  -8    3.01    1.78
  -2 -12   8    0.27    2.20
  -2 -12  -8   -1.18    1.51
   2 -12   8   -1.48    3.79
  -2 -12   8   -0.75    3.45
  -2  12   9   12.74    5.19
  -2  12  -9   16.54    4.44
   2  12   9   14.92    4.70
   2  12  -9   19.90    6.67
   2 -12   9   28.25    5.82
  -2 -12   9   12.05    4.09
  -2  12  10  124.95    5.51
  -2  12 -10  116.16   11.67
   2  12 -10  124.42   17.27
   2 -12  10  125.77   17.47
  -2 -12  10  141.53    7.96
  -2  12 -11   49.73   16.20
   2  12 -11   52.27   11.73
   2 -12  11   49.44   13.74
  -2 -12  11   44.88   17.82
  -2  12 -12    0.03    2.27
   2  12 -12    2.14    1.66
   2 -12  12    0.33    4.05
  -2 -12  12    3.71    3.44
  -2  12 -13    3.16    1.75
   2  12 -13    1.18    1.93
   2 -12  13    2.53    2.79
  -2 -12  13    3.20    2.63
  -2  12 -14    2.99    3.08
   2  12 -14    1.21    1.93
   2 -12  14   -0.27    4.32
  -2 -12  14   -1.82    3.97
  -2  12 -15    3.69    2.23
   2  12 -15    5.04    3.14
   2 -12  15    6.94    3.98
  -2 -12  15    3.51    2.88
  -2  13   0    2.14    1.82
   2  13   0    5.31    1.75
   2 -13   0    2.75    1.62
  -2 -13   0    5.03    2.05
  -2  13   1   88.11   19.95
  -2  13  -1  106.62   16.22
   2  13   1   98.72    8.14
   2  13  -1   91.11    6.65
   2 -13   1   95.20   11.58
   2 -13  -1   91.44    4.69
  -2 -13   1   87.93    7.90
  -2 -13  -1   94.06    8.39
  -2  13   2   66.43   14.09
  -2  13  -2   77.09   11.87
   2  13   2   69.35    9.00
   2  13  -2   63.41   14.54
   2 -13   2   65.50    4.55
  -2 -13   2   65.22   14.53
  -2 -13  -2   71.55    9.18
  -2  13   3  202.65    7.80
  -2  13  -3  214.85    8.25
   2  13   3  224.13    7.93
   2  13  -3  221.04    8.51
   2 -13   3  234.64   12.77
  -2 -13   3  214.38   13.40
  -2 -13  -3  209.02   15.08
  -2  13   4   17.17    4.12
  -2  13  -4   14.30    3.85
   2  13   4   23.38    5.28
   2  13  -4   15.76    4.17
  -2 -13   4   17.28    4.47
  -2 -13  -4   12.67    3.76
   2 -13   4    9.65    5.37
  -2  13   5   48.90    6.69
  -2  13  -5   44.56    9.87
   2  13   5   43.16   12.51
   2  13  -5   50.67   14.56
  -2 -13   5   45.34   14.44
  -2 -13  -5   46.28    6.78
   2 -13   5   51.15   16.22
  -2  13   6  124.15   10.57
  -2  13  -6  135.07    6.71
   2  13   6  135.74    5.94
   2  13  -6  154.71   17.21
  -2 -13   6  136.91    9.13
  -2 -13  -6  126.24    7.10
   2 -13   6  127.85    8.21
  -2 -13   6  132.81   18.35
  -2  13   7   48.28   13.99
  -2  13  -7   57.39    6.32
   2  13   7   49.56   13.74
   2  13  -7   50.11   12.92
  -2 -13   7   48.86   14.25
   2 -13   7   53.69    6.50
  -2 -13   7   54.41   13.09
  -2  13   8   22.62   10.26
  -2  13  -8   23.41    7.39
   2  13   8   17.92    6.71
   2  13  -8   24.33    6.35
  -2 -13   8   19.82    6.05
   2 -13   8   13.10    4.96
  -2 -13   8   19.59    8.22
  -2  13   9   76.20   12.95
  -2  13  -9   70.83   14.45
   2  13   9   73.49    4.27
   2  13  -9   75.43   20.66
  -2 -13   9   81.67    8.54
   2 -13   9   86.90    7.32
  -2 -13   9   85.02    6.78
  -2  13  10   18.35    7.53
  -2  13 -10   20.92    2.65
   2  13 -10   21.46    6.19
  -2 -13  10   20.66    5.32
   2 -13  10   13.06    4.47
  -2 -13  10   21.86    6.99
  -2  13 -11   52.27   13.28
   2  13 -11   48.22    9.86
   2 -13  11   41.86   17.90
  -2 -13  11   41.79   15.35
  -2  13 -12    2.42    1.62
   2  13 -12    1.71    2.85
   2 -13  12    0.59    2.56
  -2 -13  12    5.03    3.99
  -2  13 -13   66.20    7.23
   2  13 -13   53.29   13.97
   2 -13  13   61.17   11.18
  -2 -13  13   58.10   15.64
  -2  13 -14   26.63    8.82
   2  13 -14   33.18    8.02
   2 -13  14   29.42   15.33
  -2 -13  14   21.58   10.36
  -2  14   0  176.66   11.61
   2  14   0  181.82   17.63
  -2 -14   0  196.51   15.12
  -2  14   1   56.96   16.76
  -2  14  -1   62.36    7.20
   2  14   1   50.68   17.23
   2  14  -1   71.74    5.75
   2 -14   1   52.08    9.73
  -2 -14   1   51.10   18.10
  -2 -14  -1   49.03   14.78
  -2  14   2    1.95    1.21
  -2  14  -2    0.95    2.02
   2  14   2   -0.36    2.34
   2  14  -2    2.35    1.25
   2 -14   2    1.58    1.16
  -2 -14   2    2.69    1.55
  -2 -14  -2   -0.39    2.17
  -2  14   3   38.41    9.45
  -2  14  -3   32.70   10.04
   2  14   3   34.59   14.14
   2  14  -3   41.77    9.14
   2 -14   3   34.41    9.07
  -2 -14   3   36.81    9.36
  -2 -14  -3   48.69    4.68
  -2  14   4   63.83    5.81
  -2  14  -4   58.11   14.34
   2  14   4   54.09   16.18
   2  14  -4   65.12   13.98
   2 -14   4   59.16   10.82
  -2 -14   4   62.80   14.05
  -2 -14  -4   67.78    9.32
  -2  14   5    0.88    1.07
  -2  14  -5   -1.54    2.30
   2  14   5    1.62    1.42
   2  14  -5    0.97    2.94
  -2 -14   5    0.54    1.31
  -2 -14  -5    2.20    1.89
   2 -14   5   -2.27    3.84
  -2  14   6    3.54    1.55
  -2  14  -6   -1.75    2.65
   2  14   6    3.71    2.12
   2  14  -6    3.17    2.19
  -2 -14   6    2.48    2.71
   2 -14   6    2.37    2.52
  -2  14   7    2.54    1.33
  -2  14  -7    1.85    1.09
   2  14   7    4.10    2.59
   2  14  -7    4.15    2.34
  -2 -14   7    2.05    3.67
   2 -14   7    5.76    5.69
  -2 -14   7    5.76    3.48
  -2  14   8    8.55    3.34
  -2  14  -8    7.78    1.92
   2  14   8    7.29    2.23
   2  14  -8   13.88    3.41
  -2 -14   8    8.59    1.64
   2 -14   8    8.57    5.42
  -2 -14   8    9.75    4.78
  -2  14   9   11.65    4.93
  -2  14  -9   16.07    5.29
   2  14  -9    9.78    4.35
  -2 -14   9    7.66    2.52
   2 -14   9    9.00    4.58
  -2 -14   9   19.62    5.32
  -2  14  10    5.77    1.62
  -2  14 -10    9.44    3.00
   2  14 -10    7.97    2.53
  -2 -14  10    8.27    3.17
   2 -14  10    5.50    3.66
  -2 -14  10    7.08    5.99
  -2  14 -11   38.69    8.57
   2  14 -11   32.50    6.07
  -2 -14  11   32.39   10.98
   2 -14  11   34.01    7.65
  -2 -14  11   33.73    9.12
  -2  14 -12   91.07   11.58
   2  14 -12   85.02   12.11
  -2 -14  12   65.32   17.83
   2 -14  12   77.19   27.70
  -2 -14  12   87.80   29.28
  -2  14 -13   11.64    2.90
   2  14 -13   16.72    4.20
   2 -14  13   14.74    7.00
  -2 -14  13   11.33    8.37
  -2  15   0   10.62    4.20
   2  15   0    9.41    2.45
  -2 -15   0   13.63    3.95
  -2  15   1   43.89    8.01
  -2  15  -1   38.59    6.29
   2  15   1   38.36    9.51
   2  15  -1   39.39   10.63
  -2 -15   1   36.02    8.39
  -2 -15  -1   46.69    6.26
  -2  15   2   -1.78    2.64
  -2  15  -2    2.42    2.16
   2  15   2    3.87    2.24
   2  15  -2    3.10    2.50
   2 -15   2    0.81    1.35
  -2 -15   2    1.61    1.57
  -2 -15  -2    1.88    1.50
  -2  15   3   24.59    7.55
  -2  15  -3   15.06    3.58
   2  15   3   24.41    6.04
   2  15  -3   27.43    5.60
   2 -15   3   20.13    4.96
  -2 -15   3   29.47    5.79
  -2  15   4   42.13   12.79
  -2  15  -4   48.12   13.83
   2  15   4   36.23   14.04
   2  15  -4   43.45    6.97
   2 -15   4   31.94    6.02
  -2 -15   4   47.27   16.43
  -2  15   5   45.23   14.31
  -2  15  -5   49.73   17.65
   2  15   5   44.72   17.03
   2  15  -5   60.62   18.80
   2 -15   5   54.76   13.38
  -2 -15   5   52.32   14.31
  -2  15   6    4.82    2.40
  -2  15  -6    3.61    2.32
   2  15   6    4.51    1.71
   2  15  -6    1.69    1.84
   2 -15   6    5.03    2.33
  -2 -15   6   10.11    3.58
   2 -15   6    1.50    3.62
  -2  15   7   19.07    6.94
  -2  15  -7   15.61    5.05
   2  15   7   15.51    6.11
   2  15  -7   17.25    3.34
  -2 -15   7   19.39    5.31
   2 -15   7   19.70    5.61
  -2  15   8   49.25    8.62
  -2  15  -8   49.01   16.06
   2  15   8   56.48    4.46
   2  15  -8   50.74    7.34
  -2 -15   8   43.37   17.04
   2 -15   8   54.46   18.12
  -2 -15   8   50.52   23.01
  -2  15   9    5.51    3.50
  -2  15  -9    8.72    2.66
   2  15  -9    7.61    2.78
  -2 -15   9    7.24    3.14
   2 -15   9   11.94    8.21
  -2 -15   9   16.04    5.39
  -2  15 -10    1.70    2.05
   2  15 -10   -0.59    2.54
  -2 -15  10    1.23    2.45
   2 -15  10    3.27    4.41
  -2 -15  10    0.99    3.59
  -2  15 -11    6.17    2.53
   2  15 -11    5.44    2.12
  -2 -15  11    5.61    2.02
   2 -15  11    6.21    6.53
  -2 -15  11    6.04    5.84
  -2  16   0   -1.74    3.15
   2  16   0    1.02    1.53
  -2 -16   0    4.53    2.56
  -2  16   1   25.60    8.93
  -2  16  -1   24.01    7.98
   2  16   1   22.51    7.62
   2  16  -1   23.62    7.93
  -2 -16   1   29.26    6.04
  -2 -16  -1   23.97    6.34
  -2  16   2    3.55    2.81
  -2  16  -2    1.74    2.59
   2  16   2    1.90    1.29
   2  16  -2    1.60    1.98
  -2 -16   2    2.33    1.23
  -2  16   3    6.31    2.50
  -2  16  -3   13.65    3.95
   2  16   3   13.44    3.70
   2  16  -3   11.28    3.32
  -2 -16   3   10.25    4.20
  -2  16   4   36.99    9.48
  -2  16  -4   55.76   10.77
   2  16   4   43.90   12.76
   2  16  -4   46.83   12.88
  -2 -16   4   42.79   12.26
  -2  16   5   27.65   10.28
  -2  16  -5   31.35    5.04
   2  16   5   24.41    7.90
   2  16  -5   40.17   10.79
   2 -16   5   35.78    9.43
  -2 -16   5   31.62    6.65
  -2  16   6   26.77    8.05
  -2  16  -6   31.22    7.45
   2  16   6   25.79   11.61
   2  16  -6   32.80    7.87
   2 -16   6   31.85    9.26
  -2 -16   6   27.61    8.89
  -2  16   7   23.07    8.59
  -2  16  -7   32.63    9.71
   2  16   7   29.45    9.37
   2  16  -7   28.34    8.08
   2 -16   7   28.51    8.30
  -2 -16   7   33.99    8.64
   2 -16   7   30.84   11.60
  -2  16   8   30.71   10.52
  -2  16  -8   42.96   11.22
   2  16   8   35.27   12.25
   2  16  -8   41.77   12.43
  -2 -16   8   45.14   12.45
   2 -16   8   35.08   12.46
  -2  16   9   23.84   11.79
  -2  16  -9   28.86   11.11
   2  16  -9   32.15    9.05
  -2 -16   9   28.88    9.94
   2 -16   9   29.00   10.94
  -2  17   0   31.65   11.42
   2  17   0   34.99   10.69
  -2  17   1    5.17    2.94
  -2  17  -1    5.06    2.72
   2  17   1    7.67    2.20
   2  17  -1    9.89    3.82
  -2 -17   1    7.17    2.39
  -2  17   2   48.07   12.96
  -2  17  -2   48.09   13.76
   2  17   2   55.26   18.83
   2  17  -2   56.34   17.34
  -2 -17   2   49.67   13.10
  -2  17   3    1.37    1.23
  -2  17  -3    2.40    1.60
   2  17   3    1.62    1.42
   2  17  -3    0.37    1.83
  -2 -17   3    4.18    2.53
  -2  17   4    0.67    2.17
  -2  17  -4    8.64    2.96
   2  17   4    2.95    3.03
   2  17  -4    4.49    2.11
  -2 -17   4    5.88    4.35
  -2  17   5    1.66    2.64
  -2  17  -5    7.23    3.49
   2  17   5    8.41    3.12
   2  17  -5    8.31    3.61
  -2 -17   5    5.00    3.33
  -2  17   6   24.03    9.88
  -2  17  -6   18.15    4.63
   2  17   6   18.33    6.86
   2  17  -6   23.84    5.43
  -2 -17   6   22.80    7.32
  -2  17   7    7.70    3.62
  -2  17  -7   11.04    3.85
   2  17   7    8.26    3.56
   2  17  -7   11.41    3.25
   2 -17   7   11.78    3.63
  -2 -17   7    9.16    2.83
  -2  18   0   -3.53    3.49
   2  18   0    2.46    1.15
  -2  18   1   32.57    7.65
  -2  18  -1   33.94    6.34
   2  18  -1   32.99   11.19
   2  18   1   32.65   10.19
  -2  18   2   20.14   10.55
  -2  18  -2   20.82    5.48
   2  18   2   17.66    5.73
   2  18  -2   18.71    5.35
   3   0   0    2.70    1.81
  -3   0   0    6.80    2.77
   3   0   0    2.23    1.01
   3   0  -1    9.85    2.29
   3   0   1    8.36    1.98
  -3   0   1    6.05    3.15
  -3   0  -1    9.40    3.30
   3   0   1    6.49    1.44
  -3   0   1    7.27    1.34
   3   0  -2   23.99    2.39
   3   0   2   20.74    1.96
  -3   0   2   22.39    6.00
  -3   0  -2   22.74    4.45
   3   0   2   24.46    2.60
  -3   0  -3  150.79    8.53
   3   0  -3  152.85    9.52
  -3   0   3  155.47    8.83
  -3   0  -3  178.44    5.80
  -3   0  -4  143.67    8.13
   3   0  -4  144.30    8.39
  -3   0  -4  144.89    8.58
  -3   0  -5 2153.26   22.81
   3   0  -5 2073.70   23.33
  -3   0  -5 2112.73   24.76
  -3   0  -6  506.50   12.75
   3   0  -6  449.48   12.04
  -3   0  -6  493.70   13.59
  -3   0  -7  405.75   11.66
   3   0  -7  407.50   12.37
  -3   0  -7  445.73   14.08
  -3   0  -8   48.63    2.87
   3   0  -8   48.26    3.48
  -3   0  -8   48.75    2.90
  -3   0  -8   50.63    4.37
  -3   0  -9    1.56    0.35
   3   0  -9    1.64    0.87
  -3   0  -9    0.97    0.32
  -3   0  -9    2.38    2.04
   3   0 -10  532.46   15.29
  -3   0 -10  548.94   17.12
   3   0 -11   87.62    4.78
  -3   0 -11   96.36    7.70
   3   0 -12   10.66    1.98
  -3   0 -12    8.81    3.06
   3   0  12   10.74    4.18
   3   0 -13   16.36    5.46
  -3   0 -13   23.87    3.26
   3   0  13   17.04    9.77
   3   0 -14  482.70   11.07
  -3   0 -14  465.12   12.81
  -3   0  14  474.26   18.25
   3   0  14  485.01   15.13
  -3   0 -15   13.63    3.33
  -3   0  15    9.19    5.52
   3   0  15   13.83    4.49
  -3   0 -16    1.48    2.65
  -3   0  16    2.09    2.59
   3   0  16    1.09    4.10
  -3   0 -17   86.15    8.79
  -3   0  17   94.87   15.26
   3   0  17   78.34   22.56
  -3   0 -18  129.13    9.04
  -3   0  18  131.41    8.09
   3   0  18  136.63   20.53
  -3   0 -19   29.75    8.77
  -3   0  19   28.82    7.48
   3   0  19   26.88    6.67
  -3   0 -20    1.00    1.87
   3   0  20    0.26    2.81
  -3   0  20    3.17    2.21
  -3   1   0 7804.18   79.17
   3   1   0 7761.72   78.92
  -3  -1   0 7865.51  419.06
  -3   1   1  924.20   13.13
  -3   1  -1  939.38   11.90
   3   1  -1  909.04   11.47
  -3   1   1  927.46   11.15
  -3  -1  -1  932.06   12.38
   3  -1   1  874.02   11.17
   3   1  -1  889.84    9.14
  -3   1  -2  748.61    9.56
   3   1  -2  727.86    9.67
   3   1   2  777.82    9.70
   3  -1  -2  747.73    9.84
  -3  -1   2  769.15   10.92
  -3   1   2  736.49    9.25
  -3  -1  -2  720.83   10.00
  -3   1  -2  765.60   10.15
   3  -1   2  726.54    9.67
  -3  -1   2  772.70    8.82
  -3   1  -3  336.05    8.84
   3   1  -3  341.22    9.35
   3   1   3  325.83    8.51
   3  -1  -3  306.68    8.40
  -3  -1   3  311.69    8.71
  -3   1   3  349.56    9.04
  -3  -1  -3  364.44   10.14
  -3   1  -3  338.38    9.34
   3  -1   3  340.15    9.28
  -3  -1   3  320.16    8.14
  -3   1  -4  443.55   11.35
   3   1  -4  387.77   10.60
   3   1   4  437.26   10.99
   3  -1  -4  435.17   11.49
  -3  -1  -4  426.98   11.77
  -3   1  -4  445.73   12.57
  -3  -1   4  421.74   10.78
   3  -1   4  384.60   10.61
  -3  -1  -5  529.32   13.08
  -3   1  -5  565.49   14.19
   3   1  -5  531.45   13.94
   3  -1  -5  594.40   32.34
  -3  -1  -5  537.31   14.55
  -3   1  -5  563.85   15.02
  -3  -1   5  574.09   14.67
   3  -1   5  522.78   14.16
  -3  -1  -6  867.66    9.79
  -3   1  -6  825.09   10.45
  -3  -1  -6  850.40    9.60
   3   1  -6  821.94   11.52
   3  -1  -6  824.74   11.08
  -3  -1  -6  879.37   12.88
  -3   1  -6  809.55   13.32
  -3  -1   6  805.89   11.30
   3  -1   6  837.24   12.87
  -3  -1  -7   71.93    4.09
  -3   1  -7   54.64    3.50
  -3  -1  -7   72.72    4.10
   3   1  -7   77.50    5.02
   3  -1  -7   53.36    4.41
  -3  -1  -7   69.27    4.92
  -3   1  -7   50.82    3.99
  -3  -1   7   54.14    3.84
   3  -1   7   69.75    5.04
  -3   1  -8  122.58    7.62
  -3  -1  -8  154.87    4.38
   3   1  -8  155.28    6.09
  -3  -1  -8  157.09    6.46
  -3   1  -8  122.09    8.02
  -3  -1   8  128.93    5.26
   3  -1   8  150.03    6.50
  -3   1  -9   36.60    1.99
   3   1  -9   40.55    4.10
   3  -1  -9   39.49    4.43
  -3  -1  -9   39.76    3.83
  -3   1  -9   39.70    6.63
  -3  -1   9   34.07    4.07
   3  -1   9   44.08    7.20
  -3   1 -10  445.23   12.17
   3   1 -10  445.72   13.22
   3  -1 -10  462.77   14.06
  -3  -1 -10  449.12   14.28
  -3   1 -10  446.20   14.30
  -3  -1  10  460.46   14.92
   3  -1  10  436.60   17.67
  -3   1 -11  219.76    5.05
  -3  -1 -11  221.11    6.27
  -3  -1  11  217.33    7.12
   3  -1  11  205.56   14.96
  -3   1  12  436.75   15.68
   3   1 -12  423.76   13.81
  -3  -1 -12  421.14   14.92
  -3   1 -12  406.08   14.70
  -3  -1  12  386.97   15.09
   3  -1  12  410.74   20.22
  -3   1  13   92.73    6.00
   3   1 -13   97.36    6.36
  -3  -1 -13   91.46    6.34
  -3   1 -13  124.41   11.00
  -3  -1  13  117.96    5.47
   3  -1  13   93.67    5.73
  -3  -1 -14    3.16    2.12
  -3   1 -14    3.71    1.99
  -3  -1  14    4.33    3.20
   3  -1  14    5.22    3.46
  -3  -1 -15  115.66    9.11
  -3   1 -15  106.49    8.86
  -3  -1  15  101.83    6.27
   3  -1  15  106.54   10.07
  -3  -1 -16   81.52    8.69
  -3   1 -16   91.78   11.02
   3   1  16   92.08   15.56
  -3  -1  16   88.18    8.25
   3  -1  16   83.88   12.55
  -3  -1 -17   48.12   11.70
  -3   1 -17   43.79   12.24
  -3   1  17   58.51   11.23
   3   1  17   45.80   15.01
  -3  -1  17   39.74   11.79
   3  -1  17   58.89   15.64
  -3  -1 -18  175.41   15.93
  -3   1 -18  153.59    8.71
  -3   1  18  158.82   12.84
   3   1  18  145.32    8.66
   3  -1  18  169.91   17.13
  -3  -1  18  173.64    8.77
  -3  -1 -19    3.61    1.74
  -3   1 -19    2.75    2.08
  -3   1  19    4.91    3.48
   3   1  19   -0.61    3.16
   3  -1  19    3.27    2.59
  -3  -1  19    3.64    2.89
  -3  -1 -20   23.60    3.84
  -3   1  20   25.07    8.16
   3   1  20   16.73    8.92
   3  -1  20   24.75    8.67
  -3  -1  20   24.26    7.02
  -3   2   0   77.89    4.92
   3   2   0   84.23    6.58
  -3  -2   0   90.31    6.03
  -3   2   0   77.48    4.84
   3  -2   0   84.74    6.04
  -3   2  -1 2788.70   30.14
   3   2  -1 2604.35   28.60
  -3  -2   1 2753.78   30.47
  -3   2   1 2734.49   28.21
   3  -2   1 2636.07   28.38
  -3   2   2  675.44    9.27
  -3   2  -2  659.41    8.90
   3   2  -2  665.14    9.35
   3   2   2  642.51    8.39
  -3  -2   2  625.86    9.27
  -3   2   2  681.96    7.95
  -3  -2  -2  656.69    9.63
  -3   2  -2  654.89    8.80
   3   2  -2  645.87    7.72
   3  -2   2  676.12    9.49
  -3   2   3  338.64    9.62
  -3   2  -3  328.40    8.93
   3   2  -3  308.40    8.71
   3   2   3  292.62    7.78
  -3  -2   3  285.06    8.31
  -3   2   3  287.43    7.46
  -3  -2  -3  291.02    8.42
  -3   2  -3  328.65    9.11
   3  -2   3  338.28    9.51
  -3  -2   3  296.08    7.91
  -3   2   4  769.15   10.51
  -3   2  -4  749.45    9.92
   3   2  -4  768.11   11.95
   3   2   4  740.17    9.00
  -3   2   4  776.68    9.18
  -3  -2  -4  765.24   11.18
  -3   2  -4  743.81   10.61
   3  -2   4  770.87   11.10
  -3  -2   4  749.68    9.65
  -3   2   5  574.29   15.29
  -3   2  -5  567.32   14.70
   3   2  -5  559.11   14.83
   3   2   5  562.92   13.93
  -3  -2  -5  553.29   15.15
  -3   2  -5  559.48   14.97
   3  -2   5  573.91   17.58
  -3  -2   5  552.66   14.37
  -3   2   6  630.21   14.25
  -3   2  -6  613.21   13.54
  -3  -2  -6  607.85   12.73
   3   2  -6  632.68   15.17
   3   2   6  608.53   12.73
  -3  -2  -6  616.99   14.67
  -3   2  -6  609.88   14.44
   3  -2   6  629.64   15.55
  -3  -2   6  584.23   17.74
  -3   2   7  202.81    7.12
  -3  -2  -7  186.24    5.44
  -3   2  -7  222.69    7.14
  -3  -2  -7  192.18    5.61
   3   2  -7  196.85    7.01
  -3  -2  -7  209.62    7.68
  -3   2  -7  210.96    7.81
   3  -2   7  202.33    7.94
  -3  -2   7  203.94    7.33
  -3   2   8 1238.62   27.16
  -3   2  -8 1212.67   25.59
   3   2  -8 1193.09   25.91
  -3  -2  -8 1190.95   27.65
  -3   2  -8 1205.80   27.35
   3  -2   8 1203.38   27.71
  -3  -2   8 1163.42   26.18
  -3   2   9  138.41    3.66
  -3   2  -9  126.15    5.61
   3   2  -9  120.73    3.94
  -3  -2  -9  120.60    4.29
  -3   2  -9  114.87    4.60
   3  -2   9  140.38    7.39
  -3  -2   9  108.69    6.47
  -3   2  10   90.13    4.85
  -3   2 -10   86.85    6.72
   3   2 -10   96.42    7.68
  -3  -2 -10   89.05    6.44
  -3   2 -10   74.58    4.10
  -3  -2  10   80.00    3.96
   3  -2  10   88.87    6.45
  -3   2  11  218.20    5.38
  -3   2 -11  230.88    4.33
   3   2 -11  210.39    6.15
  -3  -2 -11  213.65   12.05
  -3   2 -11  208.73    6.74
  -3  -2  11  211.37    7.27
   3  -2  11  223.83    7.73
  -3   2  12  248.66    9.28
  -3   2 -12  245.72    8.66
   3   2 -12  239.50    8.89
  -3  -2 -12  230.74    9.46
  -3   2 -12  245.93   11.48
   3  -2  12  248.37   11.20
  -3  -2  12  246.09   10.49
  -3   2  13  103.62    3.97
   3   2 -13   92.62    4.00
  -3  -2 -13   89.77   10.34
  -3   2 -13  119.27   10.23
   3  -2  13  113.37   16.62
  -3  -2  13  126.38    6.49
   3   2 -14   11.28    2.98
  -3  -2 -14   12.17    3.35
  -3   2 -14   14.45    4.04
  -3  -2  14    8.38    3.72
   3  -2  14   17.85    5.13
  -3  -2 -15  124.80    6.37
  -3   2 -15  130.12    8.86
   3  -2  15  145.14    7.94
  -3  -2  15  128.84    8.35
  -3  -2 -16   95.84   13.31
  -3   2 -16   89.29    9.74
   3  -2  16   90.77    6.86
  -3  -2  16   78.79   12.59
  -3  -2 -17  113.20   10.57
  -3   2 -17  113.33    8.45
   3  -2  17  115.91   15.50
  -3  -2  17  112.25    7.04
  -3  -2 -18    4.21    2.76
  -3   2 -18   -0.37    2.13
   3   2  18   -1.18    3.17
   3  -2  18    1.28    1.85
  -3  -2  18    2.41    1.93
  -3  -2 -19   17.59    4.55
  -3   2  19   19.51    5.46
   3   2  19   22.99    4.19
   3  -2  19   18.14    5.37
  -3  -2  19   20.64    6.24
  -3  -2 -20   73.23   23.91
  -3   2  20   83.79    9.06
   3   2  20   84.17   23.73
   3  -2  20   84.31   22.35
  -3  -2  20   92.96   16.14
  -3   3   0 7693.48   79.25
   3   3   0 7525.60   76.99
  -3  -3   0 7533.78   78.79
  -3   3   1  863.26   11.38
  -3   3  -1  854.56   11.29
   3   3  -1  877.53   11.56
   3   3   1  863.56   11.22
  -3  -3   1  842.24   14.65
  -3  -3  -1  872.66   12.26
  -3   3   1  891.65    9.91
  -3   3  -1  888.36   10.81
   3  -3   1  901.00   12.23
  -3   3   2  728.15   10.08
  -3   3  -2  712.69   10.18
   3   3  -2  723.64   10.27
   3   3   2  706.54    9.39
  -3  -3   2  707.75   10.49
  -3  -3  -2  715.43   10.59
  -3   3   2  742.17    7.95
  -3   3  -2  719.80    9.60
   3  -3   2  713.66   10.19
  -3  -3   2  698.28    9.17
  -3   3   3  559.98   14.72
  -3   3  -3  563.53   14.69
   3   3  -3  563.69   14.93
   3   3   3  562.06   14.25
  -3  -3   3  542.90   14.61
  -3  -3  -3  543.95   14.58
  -3   3   3  589.38   14.06
  -3   3  -3  558.92   14.59
   3  -3   3  551.28   14.67
  -3  -3   3  544.35   13.94
  -3   3   4  269.04    7.88
  -3   3  -4  252.76    7.37
   3   3  -4  269.10    8.95
   3   3   4  265.05    7.40
  -3   3   4  290.27    7.22
  -3  -3  -4  269.48    8.25
  -3   3  -4  259.61    7.76
  -3   3   4  275.60    6.84
   3  -3   4  264.68    8.33
  -3  -3   4  260.80    7.64
  -3   3   5 1271.10   15.90
  -3   3  -5 1275.49   15.88
   3   3  -5 1217.65   15.94
   3   3   5 1260.97   14.35
  -3  -3  -5 1246.95   16.62
  -3   3   5 1279.03   13.88
  -3   3  -5 1293.43   16.89
   3  -3   5 1249.95   17.17
  -3  -3   5 1269.18   16.09
  -3   3   6  126.09    3.60
  -3   3  -6  125.57    3.40
   3   3  -6  122.53    8.20
   3   3   6  127.42    2.38
  -3  -3  -6  116.17    7.39
  -3   3  -6  115.93    7.25
   3  -3   6  120.44    8.41
  -3  -3   6  126.13    4.04
  -3   3   7 1215.82   26.11
  -3   3  -7 1203.55   25.79
  -3  -3  -7 1183.96   24.20
   3   3  -7 1165.72   26.00
   3   3   7 1149.43   23.56
  -3  -3  -7 1161.41   25.87
  -3   3  -7 1150.76   25.93
   3  -3   7 1197.67   27.04
  -3  -3   7 1137.83   24.99
  -3   3   8  319.90   10.93
  -3  -3  -8  308.50    9.38
  -3   3  -8  311.22   10.41
   3   3  -8  333.97   11.79
  -3  -3  -8  300.49   10.90
  -3   3  -8  305.90   12.58
   3  -3   8  304.12   11.75
  -3  -3   8  292.58   10.61
  -3   3   9  347.17   11.65
  -3   3  -9  350.31   11.77
   3   3  -9  345.78   12.16
  -3  -3  -9  315.68   11.60
  -3   3  -9  327.21   12.17
   3  -3   9  335.83   12.79
  -3  -3   9  324.08   13.72
  -3   3  10  256.81   11.68
  -3   3 -10  274.90   13.37
   3   3 -10  247.62   11.64
  -3  -3 -10  230.13   11.25
  -3   3 -10  243.58   12.10
   3  -3  10  249.88   12.73
  -3  -3  10  235.67   11.66
  -3   3  11   15.92    5.48
  -3   3 -11   20.90    4.72
   3   3 -11   16.38    4.28
  -3  -3 -11   21.50    4.21
  -3   3 -11   20.65    6.42
   3  -3  11   25.15    3.28
  -3  -3  11   19.13    6.16
  -3   3  12 1072.39   32.39
  -3   3 -12 1047.08   31.66
   3   3 -12 1024.01   32.29
  -3  -3 -12  984.85   31.13
  -3   3 -12 1018.04   33.44
   3  -3  12 1092.09   35.67
  -3  -3  12  966.74   31.10
  -3   3  13   23.33    5.30
  -3   3 -13   17.63    1.84
   3   3 -13   23.64    6.15
  -3  -3 -13   25.53    4.91
  -3   3 -13   20.13    5.69
   3  -3  13   27.44    7.76
  -3  -3  13   17.79    5.12
   3   3 -14  122.48    8.86
  -3  -3 -14  121.27    6.47
  -3   3 -14  139.69    8.14
   3  -3  14  134.80   13.48
  -3  -3  14  140.47    6.97
   3   3 -15  127.36   13.00
  -3  -3 -15  129.89   10.48
  -3   3 -15  131.15   11.60
   3  -3  15  147.57    7.69
  -3  -3  15  141.20    6.55
  -3  -3 -16   62.38    7.38
  -3   3 -16   65.42   10.68
   3  -3  16   86.21   14.36
  -3  -3  16   55.77   18.15
  -3  -3 -17   58.46    7.56
  -3   3 -17   63.07   17.29
   3  -3  17   65.07   20.94
  -3  -3  17   61.28   18.23
  -3  -3 -18    2.71    3.02
   3  -3  18    2.10    3.33
  -3  -3  18    5.94    3.79
  -3  -3 -19   14.57    3.53
   3  -3  19   16.74    5.08
  -3  -3  19   13.63    5.64
  -3  -3 -20    5.82    2.15
   3   3  20    7.46    4.04
   3  -3  20   14.93    5.99
  -3  -3  20    4.74    3.06
  -3   4   0  883.84   12.31
   3   4   0  915.74   13.08
  -3  -4   0  899.68   12.77
  -3   4   0  909.69   10.69
   3  -4   0  890.08   13.22
  -3   4   1 1351.47   17.02
  -3   4  -1 1298.10   16.30
   3   4   1 1338.08   16.44
   3   4  -1 1418.03   17.58
  -3  -4   1 1352.25   17.66
  -3  -4  -1 1367.92   17.60
   3  -4  -1 1381.37   14.88
  -3   4  -1 1337.33   15.45
  -3   4   1 1374.83   14.68
   3  -4   1 1376.08   17.50
  -3  -4   2  807.99   11.99
   3  -4  -2  851.36    8.97
  -3  -4   2  803.07   11.06
  -3   4   3  622.38    9.49
  -3   4  -3  630.30    9.57
   3   4  -3  597.48   32.73
   3   4   3  620.82    8.78
  -3  -4   3  620.82   11.90
  -3  -4  -3  597.53   32.75
  -3   4  -3  662.07    9.83
   3  -4   3  620.32   12.68
  -3  -4   3  592.99   15.39
  -3   4   4  226.98    7.07
  -3   4  -4  248.61    7.58
   3   4  -4  228.69    7.30
   3   4   4  260.09    7.30
  -3  -4   4  249.19    7.99
  -3  -4  -4  231.15    7.43
  -3   4  -4  248.59    7.59
   3  -4   4  227.72    8.44
  -3  -4   4  252.14    7.63
  -3   4   5  602.95   13.96
  -3   4  -5  576.97   17.21
   3   4  -5  619.04   14.67
   3   4   5  611.26   13.55
  -3  -4  -5  607.35   14.47
  -3   4   5  629.79   12.81
  -3   4  -5  561.88   17.07
   3  -4   5  582.17   18.15
  -3  -4   5  631.50   15.33
  -3   4   6 1080.11   23.95
  -3   4  -6 1099.24   24.44
   3   4  -6 1030.55   23.38
   3   4   6 1024.29   21.60
  -3  -4  -6 1021.29   23.16
  -3   4   6 1122.58   23.03
  -3   4  -6 1090.33   24.43
   3  -4   6 1069.06   24.70
  -3  -4   6 1028.40   23.11
  -3   4   7  615.55   14.25
  -3   4  -7  621.41   14.56
   3   4  -7  634.10   15.28
   3   4   7  631.20   13.73
  -3  -4  -7  617.55   15.66
  -3   4  -7  606.55   15.31
   3  -4   7  621.06   15.84
  -3  -4   7  615.01   14.94
  -3   4   8   33.07    2.40
  -3   4  -8   36.20    2.90
   3   4  -8   33.64    3.21
   3   4   8   37.73    1.24
  -3  -4  -8   38.14    5.49
  -3   4  -8   38.16    5.52
   3  -4   8   33.41    4.63
  -3  -4   8   39.13    5.27
  -3   4   9   87.26    6.60
  -3  -4  -9   89.56    3.94
  -3   4  -9   96.65    5.18
   3   4  -9   98.87    5.71
   3   4   9   89.64    3.96
  -3  -4  -9   91.88    5.63
  -3   4  -9   96.94    6.75
   3  -4   9   93.06    6.91
  -3  -4   9   94.12    9.93
  -3   4  10  263.72   12.56
  -3   4 -10  273.81    7.51
   3   4 -10  254.30   12.33
  -3  -4 -10  244.97   11.92
  -3   4 -10  267.16    7.23
   3  -4  10  271.96    8.01
  -3  -4  10  254.02   12.89
  -3   4  11  299.57    8.86
  -3   4 -11  326.87    9.56
   3   4 -11  305.09    9.37
  -3  -4 -11  289.87   10.11
  -3   4 -11  296.51   10.77
   3  -4  11  293.15   14.95
  -3  -4  11  297.34   10.35
  -3   4  12   25.16    5.51
  -3   4 -12   30.64    5.98
   3   4 -12   24.59    7.55
  -3  -4 -12   23.00    7.45
  -3   4 -12   30.37    9.53
   3  -4  12   24.47    7.71
  -3  -4  12   30.33   10.13
  -3   4 -13  214.59    8.55
   3   4 -13  219.96    7.54
  -3  -4 -13  206.10   12.87
  -3   4 -13  220.00   13.38
   3  -4  13  212.57    8.96
  -3  -4  13  204.26    7.97
   3   4 -14  170.87   12.76
  -3  -4 -14  166.21   16.60
  -3   4 -14  137.67   11.08
   3  -4  14  163.98   12.71
  -3  -4  14  146.42    7.15
   3   4 -15   78.18    6.20
  -3  -4 -15   89.20    8.91
  -3   4 -15   92.37    9.41
   3  -4  15  103.79   16.38
  -3  -4  15   70.20    8.75
  -3  -4 -16   39.95   12.44
   3  -4  16   44.33   12.61
  -3  -4  16   51.85   11.85
  -3  -4 -17  128.25   11.50
   3  -4  17  132.17   19.95
  -3  -4  17  122.25   11.80
  -3  -4 -18   55.62   14.38
   3  -4  18   63.27   20.73
  -3  -4  18   59.50   17.85
  -3  -4 -19   15.05    5.94
   3  -4  19   14.11    5.74
  -3  -4  19   15.69    5.57
  -3  -4 -20    3.48    1.45
   3  -4  20    0.90    3.03
  -3  -4  20    0.99    2.22
  -3   5   0  340.35    9.95
   3   5   0  347.20   12.08
  -3  -5   0  348.38   10.54
   3  -5   0  348.01   10.57
  -3   5  -1  382.30   10.88
   3   5  -1  414.70   11.94
  -3  -5  -1  402.57   11.67
  -3   5  -1  389.41   10.28
  -3   5   2  546.05   14.77
  -3   5  -2  570.23   15.40
   3   5   2  578.35   15.24
   3   5  -2  550.76   14.93
  -3  -5   2  584.64   16.17
  -3  -5  -2  557.24   15.39
  -3   5  -2  573.58   15.47
   3  -5   2  541.83   15.09
  -3  -5   2  559.52   15.11
  -3   5   3  875.33   19.65
  -3   5  -3  821.24   18.68
   3   5   3  793.08   17.62
   3   5  -3  883.38   20.01
  -3  -5   3  797.30   18.63
  -3  -5  -3  880.53   20.01
  -3   5  -3  821.49   18.77
   3  -5   3  884.44   20.33
  -3  -5   3  786.40   18.45
  -3   5   4   13.07    4.43
  -3   5  -4   21.53    5.19
   3   5   4   17.32    2.14
   3   5  -4   18.05    4.25
  -3  -5   4   17.60    5.44
  -3  -5  -4   17.76    6.58
  -3   5  -4   16.36    6.08
   3  -5   4   15.60    4.04
  -3  -5   4   18.51    6.43
  -3   5   5   50.52    7.59
  -3   5  -5   59.42    4.34
   3   5   5   51.85    4.21
   3   5  -5   52.03    8.67
  -3  -5  -5   45.13    3.72
  -3   5  -5   52.44    7.31
   3  -5   5   51.20    6.91
  -3  -5   5   49.23    4.25
  -3   5   6 1218.88   26.56
  -3   5  -6 1166.09   25.87
   3   5  -6 1233.49   27.67
   3   5   6 1171.45   24.75
  -3   5   6 1241.05   24.90
  -3  -5  -6 1234.73   27.44
  -3   5  -6 1143.82   25.64
   3  -5   6 1241.32   28.42
  -3  -5   6 1161.33   26.29
  -3   5   7  452.48   11.00
  -3   5  -7  461.18   12.16
   3   5  -7  439.33   11.45
   3   5   7  439.61   10.46
  -3   5   7  457.70   10.14
  -3  -5  -7  446.46   12.50
  -3   5  -7  429.14   12.01
   3  -5   7  460.54   13.21
  -3  -5   7  442.86   12.38
  -3   5   8   10.42    2.69
  -3   5  -8    8.84    2.42
   3   5  -8   11.45    3.23
   3   5   8    9.27    2.39
  -3  -5  -8   11.04    4.00
  -3   5  -8   10.79    3.13
   3  -5   8   10.22    3.11
  -3  -5   8   11.15    2.70
  -3   5   9  232.26   10.88
  -3   5  -9  212.51   10.17
   3   5  -9  220.29   13.62
   3   5   9  203.65    8.89
  -3  -5  -9  222.38   10.86
  -3   5  -9  196.44   10.13
   3  -5   9  226.46   16.14
  -3  -5   9  200.21   10.41
  -3   5  10  118.47    4.05
  -3   5 -10  129.54    5.63
   3   5 -10  110.92    4.44
   3   5  10  117.02    1.77
  -3  -5 -10  120.76    4.71
  -3   5 -10  119.80    5.09
   3  -5  10  119.53    9.51
  -3  -5  10  113.09    8.88
  -3   5  11   25.23    6.76
  -3   5 -11   27.59    6.14
   3   5 -11   25.92    7.97
  -3  -5 -11   25.96    4.42
  -3   5 -11   26.41    7.23
   3  -5  11   30.60   10.93
  -3  -5  11   32.27    9.47
  -3   5  12    4.78    1.64
  -3   5 -12    6.79    1.83
   3   5 -12    5.73    2.01
  -3  -5 -12    3.05    3.21
  -3   5 -12    6.71    3.10
   3  -5  12    1.94    3.39
  -3  -5  12    4.89    3.34
  -3   5 -13  174.78    6.19
   3   5 -13  209.94   14.91
  -3  -5 -13  169.64    6.93
  -3   5 -13  165.58    7.57
   3  -5  13  182.45   16.23
  -3  -5  13  154.33    7.45
   3   5 -14    1.71    1.87
  -3  -5 -14    4.58    2.00
   3  -5  14    7.14    4.17
  -3  -5  14    1.17    2.10
   3   5 -15  303.50   21.35
  -3  -5 -15  266.60   13.10
   3  -5  15  283.86   15.30
  -3  -5  15  245.54    9.76
  -3  -5 -16   16.91    4.50
   3  -5  16   18.13    3.82
  -3  -5  16   23.15    6.90
  -3  -5 -17    2.68    1.46
   3  -5  17    1.54    2.31
  -3  -5  17    4.60    2.95
  -3  -5 -18   27.69    5.51
   3  -5  18   33.42    7.98
  -3  -5  18   28.41   11.65
  -3  -5 -19   50.53   13.78
   3  -5  19   56.35   12.93
  -3  -5  19   51.43   19.31
  -3  -5 -20    7.81    2.60
  -3   6   0 1632.55   35.04
   3   6   0 1529.88   32.97
  -3  -6   0 1564.77   34.27
   3  -6   0 1573.75   35.19
  -3   6   1  156.54    6.94
  -3   6  -1  185.11    7.09
   3   6   1  178.14    6.43
   3   6  -1  155.37    6.07
  -3  -6   1  183.18    7.27
  -3  -6  -1  168.60    6.70
   3  -6   1  165.62    7.06
   3   6   2   16.70    2.06
   3   6  -2   12.86    3.58
  -3  -6   2   24.18    7.90
  -3  -6  -2   15.93    5.39
   3  -6  -2   17.04    1.25
  -3   6   3  909.24   20.62
  -3   6  -3  950.71   22.62
   3   6   3  958.95   21.64
   3   6  -3  922.52   21.48
  -3  -6   3  975.96   22.58
  -3  -6  -3  929.35   23.04
   3  -6   3  919.48   21.96
  -3  -6   3  959.87   21.71
  -3   6   4  458.67   14.39
  -3   6  -4  463.52   14.75
   3   6   4  426.24   13.16
   3   6  -4  433.77   14.15
  -3  -6   4  434.43   14.45
  -3  -6  -4  443.13   14.34
   3  -6   4  453.19   15.25
  -3  -6   4  417.09   14.56
  -3   6  -5 1083.13   25.66
   3   6   5 1090.81   23.52
   3   6  -5 1059.17   23.96
  -3  -6  -5 1061.34   25.90
  -3   6  -5 1092.62   24.84
   3  -6   5 1114.36   26.03
  -3  -6   5 1065.11   24.23
  -3   6   6   88.06    3.33
  -3   6  -6   89.58    3.70
   3   6   6   89.22    3.61
   3   6  -6   83.63    4.15
  -3  -6  -6   86.33    3.61
  -3   6  -6   86.32    5.19
   3  -6   6   91.01   12.79
  -3  -6   6   90.58    4.12
  -3   6   7  664.44   15.66
  -3   6  -7  625.74   15.62
   3   6   7  637.79   14.34
   3   6  -7  679.71   16.93
  -3   6   7  644.51   12.95
  -3  -6  -7  669.47   17.24
  -3   6  -7  596.47   15.39
   3  -6   7  669.25   17.85
  -3  -6   7  633.93   16.19
  -3   6   8   90.98    5.22
  -3   6  -8   88.10    7.32
   3   6  -8   92.96    8.80
   3   6   8   87.16    4.44
  -3   6   8   87.23    4.05
  -3  -6  -8   80.50    4.47
  -3   6  -8   75.74    8.23
   3  -6   8   80.81    7.50
  -3  -6   8   87.84    8.52
  -3   6   9  177.03    4.92
  -3   6  -9  171.03   11.14
   3   6  -9  167.58    8.61
   3   6   9  159.06    3.36
  -3  -6  -9  160.11    5.15
  -3   6  -9  166.34    9.05
   3  -6   9  169.18   14.94
  -3  -6   9  157.66   10.78
  -3   6  10   35.23    8.40
  -3   6 -10   41.49    3.34
   3   6 -10   41.99   10.32
   3   6  10   46.57    2.46
  -3  -6 -10   38.83    3.72
   3  -6  10   41.55   10.90
  -3  -6  10   44.53   13.18
  -3   6  11  162.15    5.27
  -3   6 -11  163.19   14.61
   3   6 -11  157.80    6.38
  -3  -6 -11  161.63    9.31
   3  -6  11  150.34   15.18
  -3  -6  11  159.94    7.19
  -3   6  12  311.32    7.83
   3   6 -12  305.52    9.20
  -3  -6 -12  301.40    9.02
   3  -6  12  305.95   16.03
  -3  -6  12  343.91   11.77
  -3   6 -13   14.98    3.95
   3   6 -13   17.31    4.69
  -3  -6 -13   14.42    4.02
   3  -6  13   17.83    8.28
  -3  -6  13   15.70    4.86
  -3   6 -14   39.40    3.66
   3   6 -14   35.98    3.49
  -3  -6 -14   34.46    7.40
   3  -6  14   35.65   17.65
  -3  -6  14   33.90   12.25
   3   6 -15   66.01   11.69
  -3  -6 -15   68.21    5.25
   3  -6  15   71.25   21.72
  -3  -6  15   65.53    9.92
   3   6 -16   51.60    5.36
  -3  -6 -16   47.28    4.61
   3  -6  16   47.14   13.89
  -3  -6  16   51.81    7.02
  -3  -6 -17   72.71    9.60
   3  -6  17   68.46   21.02
  -3  -6  17   67.77    8.76
  -3  -6 -18    6.44    2.90
   3  -6  18    4.38    5.31
  -3  -6  18    4.73    3.21
  -3  -6 -19   59.33    7.69
   3  -6  19   55.16   16.69
  -3  -6  19   53.16   13.89
   3   7   0    0.83    1.57
  -3  -7   0    3.08    0.63
  -3   7   1  182.88    7.74
  -3   7  -1  183.35    7.43
   3   7   1  172.23    7.10
   3   7  -1  173.22    8.81
  -3  -7   1  170.54   10.48
  -3  -7  -1  181.05    7.29
   3  -7   1  180.66    8.16
  -3   7   2   60.11    4.89
  -3   7  -2   58.58    8.27
   3   7   2   58.77    4.62
   3   7  -2   62.86    8.33
   3  -7  -2   62.61    4.05
  -3  -7   2   62.87    5.49
  -3  -7  -2   63.49    5.90
   3  -7   2   69.79    9.92
  -3   7   3  816.20   19.05
  -3   7  -3  845.12   21.00
   3   7  -3  811.56   19.58
  -3  -7   3  857.53   20.86
   3  -7  -3  873.38   17.67
  -3  -7  -3  787.23   18.53
   3  -7  -3  877.44   17.65
   3  -7   3  816.85   20.21
  -3   7   4  464.44   12.06
  -3   7  -4  479.83   12.60
   3   7   4  431.75   11.70
   3   7  -4  428.19   12.20
  -3  -7   4  438.80   12.17
  -3  -7  -4  426.61   11.43
   3  -7   4  469.04   13.94
  -3  -7   4  438.71   11.99
  -3   7   5  241.06    9.26
  -3   7  -5  231.19    9.05
   3   7   5  233.35    8.42
   3   7  -5  258.97   11.66
  -3  -7   5  244.52   13.78
  -3  -7  -5  248.32    9.41
   3  -7   5  239.45    9.91
  -3  -7   5  235.86    9.59
  -3   7   6   76.20    3.63
  -3   7  -6   54.92    5.98
   3   7   6   61.55    6.05
   3   7  -6   76.79    8.00
  -3  -7  -6   78.47    9.28
   3  -7   6   71.91    8.32
  -3  -7   6   64.80   10.08
  -3   7   7   90.54    8.77
  -3   7  -7  110.10    6.40
   3   7   7  113.18    5.84
   3   7  -7  103.76   10.87
  -3  -7  -7  100.16    8.95
   3  -7   7   93.12    7.71
  -3  -7   7  110.74    8.32
  -3   7   8   80.61    3.47
  -3   7  -8   83.21    4.31
   3   7   8   75.19    2.89
   3   7  -8   93.72   10.51
  -3  -7  -8   86.22    4.40
   3  -7   8  115.44   19.20
  -3  -7   8   78.00    9.78
  -3   7   9  509.89   17.22
  -3   7  -9  511.42   18.35
   3   7  -9  531.16   18.07
   3   7   9  535.23   16.52
  -3  -7  -9  525.59   17.37
   3  -7   9  519.17   19.12
  -3  -7   9  547.39   19.31
  -3   7  10  117.70    4.61
  -3   7 -10   93.65    6.14
   3   7 -10  109.35    9.29
   3   7  10  103.07    2.97
  -3  -7 -10  120.17    9.88
   3  -7  10  119.17    6.70
  -3  -7  10  104.90    5.82
  -3   7  11   83.11    3.86
  -3   7 -11   84.24    7.64
   3   7 -11   93.34    8.35
  -3  -7 -11   87.56    4.46
   3  -7  11   76.86   14.66
  -3  -7  11   75.65   13.74
  -3   7  12    0.57    1.22
  -3   7 -12    0.27    0.96
   3   7 -12    3.32    1.74
  -3  -7 -12    1.84    2.17
   3  -7  12    4.02    3.30
  -3  -7  12    1.52    1.63
  -3   7 -13  173.80    6.18
   3   7 -13  164.95    6.37
  -3  -7 -13  154.15    8.79
   3  -7  13  162.34    8.45
  -3  -7  13  169.52    7.57
  -3   7 -14   11.10    2.84
   3   7 -14   13.08    3.94
  -3  -7 -14   13.04    2.93
   3  -7  14   16.98    3.17
  -3  -7  14    7.28    2.80
   3   7 -15   82.54    8.22
  -3  -7 -15   85.74    5.23
   3  -7  15   75.13   18.95
  -3  -7  15   81.78   10.55
   3   7 -16   64.46   14.07
  -3  -7 -16   66.96    5.49
   3  -7  16   65.21   17.84
  -3  -7  16   65.59   21.67
  -3  -7 -17    0.54    1.50
   3  -7  17    2.72    1.99
  -3  -7  17   -0.75    3.33
   3  -7  18    4.54    4.62
  -3  -7  18    1.12    2.44
   3  -7  19   42.43   12.34
  -3  -7  19   27.28   11.98
  -3   8   0  127.79    4.82
   3   8   0  127.76    7.38
  -3  -8   0  132.18    5.19
  -3   8   1  106.29    4.62
  -3   8  -1  101.97    5.90
   3   8   1  106.90    4.31
   3   8  -1  101.17    5.68
  -3  -8   1  114.23    6.85
  -3  -8  -1  114.63    9.63
   3  -8   1  119.08    6.29
  -3   8   2  269.41   10.85
  -3   8  -2  273.35   10.47
   3   8   2  283.61   11.10
   3   8  -2  282.13   10.83
   3  -8  -2  298.01    9.72
  -3  -8   2  270.54   11.87
  -3  -8  -2  276.84   12.45
   3  -8   2  285.56   11.91
  -3   8   3  432.71   12.51
  -3   8  -3  454.18   12.40
   3   8   3  445.55   11.70
   3   8  -3  440.40   12.31
  -3  -8   3  456.67   15.62
   3  -8  -3  452.49   10.02
  -3  -8  -3  448.86   12.25
   3  -8   3  450.74   13.15
  -3  -8   3  428.13   16.48
  -3   8   4   79.29    4.35
  -3   8  -4   81.27    5.28
   3   8   4   83.48    7.81
   3   8  -4   80.05    5.17
  -3  -8   4   73.64    7.44
  -3  -8  -4   83.68    6.47
   3  -8  -4   86.31    3.69
   3  -8  -4   82.81    3.65
   3  -8   4   80.53    5.04
  -3  -8   4   81.39    5.79
  -3   8   5  260.51   12.91
  -3   8  -5  283.35   12.89
   3   8   5  276.05    9.52
   3   8  -5  269.60    7.05
  -3  -8   5  286.17   10.68
  -3  -8  -5  263.31   13.15
   3  -8   5  274.57    8.70
  -3  -8   5  289.39   15.81
  -3   8   6  467.83   14.75
  -3   8  -6  486.66   16.36
   3   8   6  486.03   15.11
   3   8  -6  506.71   16.40
  -3  -8  -6  469.68   14.75
   3  -8   6  487.04   16.64
  -3  -8   6  490.62   19.54
  -3   8   7  145.54    5.03
  -3   8  -7  147.82    7.28
   3   8   7  148.05    4.32
   3   8  -7  157.86    8.42
  -3  -8  -7  149.44    9.05
   3  -8   7  153.03    6.72
  -3  -8   7  151.18    8.62
  -3   8   8   26.85    8.87
  -3   8  -8   31.49   12.18
   3   8   8   26.00    7.35
   3   8  -8   33.31   10.63
  -3  -8  -8   28.68    7.09
   3  -8   8   38.38   10.69
  -3  -8   8   28.74    5.02
  -3   8   9  113.99    4.48
  -3   8  -9  123.07    7.66
   3   8   9  122.37    3.78
   3   8  -9  125.54   15.38
  -3  -8  -9  117.79    6.31
   3  -8   9  117.82   14.79
  -3  -8   9  132.51    6.90
  -3   8  10  143.26    6.23
  -3   8 -10  129.04   13.12
   3   8 -10  150.38   13.64
   3   8  10  115.18    4.12
  -3  -8 -10  144.01    6.87
   3  -8  10  138.35   14.78
  -3  -8  10  126.06   11.99
  -3   8  11   15.47    5.20
  -3   8 -11   24.75    5.61
   3   8 -11   18.33    5.31
  -3  -8 -11   17.75    6.50
   3  -8  11   18.61    6.99
  -3  -8  11   23.23    9.45
  -3   8  12    2.52    1.17
  -3   8 -12    0.91    0.84
   3   8 -12    1.85    2.13
  -3  -8 -12    1.64    2.00
   3  -8  12    3.04    2.09
  -3  -8  12    1.11    2.80
  -3   8 -13  127.45    7.49
   3   8 -13  133.08   15.36
  -3  -8 -13  128.69    8.16
   3  -8  13  119.42    9.87
  -3  -8  13  126.80    6.99
  -3   8 -14   29.07    7.06
   3   8 -14   27.24    7.05
  -3  -8 -14   26.53    8.66
   3  -8  14   26.96    9.43
  -3  -8  14   30.59   11.38
   3   8 -15   97.66    8.07
  -3  -8 -15   83.94    8.61
   3  -8  15   83.31    8.08
  -3  -8  15   83.77   21.01
   3   8 -16    2.40    2.33
  -3  -8 -16    2.29    1.29
   3  -8  16   -0.15    3.95
  -3  -8  16    2.59    1.79
   3  -8  17   78.15   22.72
  -3  -8  17   86.70   11.65
   3  -8  18   15.67    6.52
  -3  -8  18   25.88    9.86
  -3   9   0  461.43   15.10
   3   9   0  475.67   15.19
  -3  -9   0  467.11   15.14
  -3   9  -1    4.69    1.73
   3   9   1    8.60    2.32
   3   9  -1    6.30    3.02
   3  -9  -1    5.37    1.24
  -3  -9   1    8.45    2.64
  -3  -9  -1   10.86    3.13
   3  -9   1    5.23    2.08
  -3   9   2  269.35    7.17
  -3   9  -2  269.76   13.27
   3   9   2  262.61   12.86
   3   9  -2  262.50   12.73
  -3  -9   2  287.49   10.49
   3  -9  -2  279.94    8.64
  -3  -9  -2  288.05   10.62
   3  -9   2  292.86   11.92
  -3   9   3  340.93   15.59
  -3   9  -3  327.32   11.52
   3   9   3  324.00   11.00
   3   9  -3  359.40   12.48
  -3  -9   3  322.75   14.93
   3  -9  -3  324.21    9.69
  -3  -9  -3  378.14   13.50
   3  -9   3  390.53   14.88
  -3   9   4  136.33   12.05
  -3   9  -4  135.07    5.25
   3   9   4  142.18    4.81
   3   9  -4  135.38    7.97
  -3  -9   4  147.19   12.22
  -3  -9  -4  130.74    5.17
   3  -9  -4  142.67    2.61
   3  -9   4  136.93    6.61
  -3  -9   4  141.46    6.46
  -3   9   5  241.87    7.60
  -3   9  -5  241.83   11.65
   3   9   5  242.61    8.12
   3   9  -5  244.69    8.77
  -3  -9   5  251.20    9.31
  -3  -9  -5  246.93    8.35
   3  -9   5  245.54   12.71
  -3  -9   5  261.83   10.07
  -3   9   6    6.72    3.97
  -3   9  -6    1.63    2.55
   3   9   6    2.24    1.20
   3   9  -6    6.19    3.94
  -3  -9   6    3.47    1.92
  -3  -9  -6    4.84    2.07
   3  -9   6    3.59    3.67
  -3  -9   6    6.56    3.89
  -3   9   7  103.17    4.35
  -3   9  -7  101.30   11.89
   3   9   7  100.29    4.21
   3   9  -7  108.38    5.29
  -3  -9  -7  102.19    5.91
   3  -9   7  108.96    8.10
  -3  -9   7   97.80   13.42
  -3   9   8   10.56    4.31
  -3   9  -8   11.48    3.26
   3   9   8    9.73    3.16
   3   9  -8   14.14    5.48
  -3  -9  -8   14.69    2.75
   3  -9   8   17.58    4.28
  -3  -9   8    8.33    5.20
  -3   9   9  385.27   10.50
  -3   9  -9  392.96   11.31
   3   9   9  397.02   11.15
   3   9  -9  377.17   10.80
  -3  -9  -9  380.17   11.21
   3  -9   9  368.10   12.14
  -3  -9   9  396.89   12.03
  -3   9  10    4.59    2.19
  -3   9 -10    9.72    2.77
   3   9 -10    4.70    1.81
  -3  -9 -10    6.32    2.11
   3  -9  10    5.51    4.24
  -3  -9  10    5.74    3.99
  -3   9  11   48.32    4.95
  -3   9 -11   51.51   11.40
   3   9 -11   52.89   13.00
  -3  -9 -11   48.06    4.65
   3  -9  11   52.33   16.04
  -3  -9  11   47.23    5.48
  -3   9 -12   57.92    5.77
   3   9 -12   56.17    5.59
  -3  -9 -12   64.14    4.08
   3  -9  12   69.40   21.77
  -3  -9  12   52.28   11.25
  -3   9 -13   15.37    3.51
   3   9 -13   19.77    5.23
  -3  -9 -13   14.06    4.15
   3  -9  13   23.55    8.69
  -3  -9  13   14.13    7.34
  -3   9 -14   44.28   10.40
   3   9 -14   51.90   10.57
  -3  -9 -14   60.72    5.18
   3  -9  14   54.50   18.07
  -3  -9  14   52.12    8.40
   3   9 -15   53.46   12.13
   3  -9  15   64.93   21.95
  -3  -9  15   58.99    7.06
   3   9 -16   38.49    9.22
   3  -9  16   44.73   12.32
  -3  -9  16   37.62   13.69
   3  -9  17   17.33    6.32
  -3  -9  17   14.86    8.20
   3  -9  18   14.80    6.35
  -3  -9  18   13.35    7.02
  -3  10   0   87.66    5.63
   3  10   0   90.59    4.54
   3 -10   0   90.83    4.62
  -3 -10   0   91.44    5.42
  -3  10   1   63.22    6.51
  -3  10  -1   69.35    4.31
   3  10   1   63.89    5.36
   3  10  -1   74.99    4.36
   3 -10  -1   65.82    3.26
  -3 -10   1   64.21    6.77
  -3 -10  -1   70.83    8.02
  -3  10   2   -1.78    2.17
  -3  10  -2    5.79    2.75
   3  10   2    0.83    1.38
   3  10  -2    4.16    1.42
  -3 -10   2    4.85    2.42
   3 -10  -2    3.99    0.97
  -3 -10  -2    4.64    2.72
   3 -10   2    6.87    2.80
  -3  10   3   48.09   13.77
  -3  10  -3   47.30    4.70
   3  10   3   52.49    4.29
   3  10  -3   54.09    5.59
  -3 -10   3   52.49   10.65
   3 -10  -3   45.41    3.64
  -3 -10  -3   48.90   11.15
   3 -10   3   44.37   16.25
  -3  10   4  466.82   17.32
  -3  10  -4  482.12   16.90
   3  10   4  499.77   16.92
   3  10  -4  484.78   16.98
  -3 -10   4  504.89   17.97
  -3 -10  -4  520.90   18.65
   3 -10   4  480.34   17.88
  -3 -10   4  496.65   17.89
  -3  10   5  230.12    9.45
  -3  10  -5  256.89   10.50
   3  10   5  264.72   10.45
   3  10  -5  248.20   12.02
  -3 -10   5  267.18   11.40
  -3 -10  -5  246.74    9.90
   3 -10   5  258.43   11.99
  -3 -10   5  278.00   13.14
  -3  10   6    1.22    1.14
  -3  10  -6    0.95    2.23
   3  10   6    1.76    0.90
   3  10  -6   -0.20    2.09
  -3 -10   6    1.90    1.65
  -3 -10  -6    1.51    1.99
   3 -10   6    7.17    4.76
  -3 -10   6   -0.73    3.59
  -3  10   7   54.01    6.16
  -3  10  -7   55.34    5.07
   3  10   7   50.06    4.21
   3  10  -7   54.50    5.79
  -3 -10   7   51.15   12.43
  -3 -10  -7   50.76   12.05
   3 -10   7   54.69   11.92
  -3 -10   7   54.08   10.06
  -3  10   8  467.32   12.14
  -3  10  -8  483.63   13.86
   3  10   8  493.58   12.46
   3  10  -8  486.79   13.26
  -3 -10  -8  494.15   13.01
   3 -10   8  482.49   16.54
  -3 -10   8  501.93   14.31
  -3  10   9   89.55    4.85
  -3  10  -9   79.98    7.97
   3  10   9   85.36    4.24
   3  10  -9   96.92   13.07
  -3 -10  -9   85.20    5.54
   3 -10   9   95.06   15.79
  -3 -10   9   82.48    6.04
  -3  10  10   18.09    4.57
  -3  10 -10   16.22    2.82
   3  10 -10   18.89    4.19
  -3 -10 -10   19.25    5.22
   3 -10  10   16.30    4.65
  -3 -10  10   13.20    4.10
  -3  10  11   43.11    4.94
  -3  10 -11   55.22    5.61
   3  10 -11   48.72   14.36
  -3 -10 -11   38.82   12.01
   3 -10  11   47.99   12.82
  -3 -10  11   54.91    5.39
  -3  10 -12   15.63    3.63
   3  10 -12   25.70    6.34
  -3 -10 -12   21.22    4.70
   3 -10  12   19.24    8.87
  -3 -10  12   21.04    4.86
  -3  10 -13    7.81    3.01
   3  10 -13    6.94    3.52
  -3 -10 -13    6.55    1.72
   3 -10  13    6.41    4.44
  -3 -10  13    6.20    4.57
  -3  10 -14   -0.87    2.14
   3  10 -14   -0.42    2.23
   3 -10  14    0.96    2.27
  -3 -10  14   -1.61    3.12
  -3  10 -15   32.48    4.42
   3  10 -15   33.84    7.31
   3 -10  15   14.72    5.80
  -3 -10  15   29.09   11.03
   3  10 -16   30.63    6.53
   3 -10  16   35.32   10.16
  -3 -10  16   31.91   14.09
   3 -10  17   47.83   15.41
  -3 -10  17   38.19   17.95
  -3  11   0  219.04    9.85
   3  11   0  221.56    9.48
   3 -11   0  217.14    9.81
  -3 -11   0  221.51   11.97
  -3  11   1   70.29    5.41
  -3  11  -1   73.91    7.02
   3  11   1   80.12    7.29
   3  11  -1   75.16    4.44
   3 -11  -1   78.49    8.68
  -3 -11   1   72.42    8.24
  -3 -11  -1   71.90    5.89
  -3  11   2   50.89    4.32
  -3  11  -2   54.36    5.42
   3  11   2   59.74    8.66
   3  11  -2   62.74    6.01
  -3 -11   2   62.56   13.67
   3 -11  -2   50.82    3.03
  -3 -11  -2   56.69    5.51
   3 -11   2   61.52   18.83
  -3  11   3   71.90    6.20
  -3  11  -3   84.30    8.84
   3  11   3   86.02    6.03
   3  11  -3   63.16    8.48
  -3 -11   3   87.44    6.84
  -3 -11  -3   73.94    9.58
   3 -11   3   69.85    7.63
  -3  11   4   21.22    7.06
  -3  11  -4   16.29    3.87
   3  11   4   14.45    2.77
   3  11  -4   27.09    7.40
  -3 -11   4   10.95    2.77
  -3 -11  -4   26.98    4.93
   3 -11   4   27.32    5.50
  -3  11   5   98.74    5.05
  -3  11  -5   95.14    9.58
   3  11   5   89.84    7.50
   3  11  -5  114.36   12.60
  -3 -11   5   93.78   10.22
  -3 -11  -5  106.91    9.85
   3 -11   5  108.28    7.39
  -3 -11   5   93.16    8.90
  -3  11   6  162.42    6.72
  -3  11  -6  180.51    7.44
   3  11   6  186.36    7.33
   3  11  -6  159.52   10.47
  -3 -11   6  171.15    9.53
  -3 -11  -6  163.60   12.14
   3 -11   6  162.07   12.12
  -3 -11   6  175.96   17.58
  -3  11   7   20.37    8.80
  -3  11  -7   25.43    7.10
   3  11   7   27.68    6.29
   3  11  -7   24.65    8.31
  -3 -11   7   25.97    7.48
  -3 -11  -7   22.96    7.53
   3 -11   7   24.02    7.62
  -3 -11   7   24.34    9.49
  -3  11   8  109.31   11.55
  -3  11  -8   95.42   10.36
   3  11   8  108.77    4.81
   3  11  -8  107.90    9.74
  -3 -11   8   98.38    7.32
  -3 -11  -8   94.35    5.21
   3 -11   8  101.24   11.45
  -3 -11   8  114.60   14.41
  -3  11   9   12.63    2.73
  -3  11  -9   12.46    3.81
   3  11   9   10.50    3.47
   3  11  -9   11.51    2.61
  -3 -11   9    5.94    2.33
  -3 -11  -9    8.60    2.42
   3 -11   9   10.17    6.64
  -3 -11   9   15.33    4.17
  -3  11  10   38.03   10.71
  -3  11 -10   41.37    6.77
   3  11 -10   43.85   10.25
  -3 -11 -10   32.99   10.91
   3 -11  10   45.51   11.23
  -3 -11  10   35.43   14.80
  -3  11  11   27.02    8.79
  -3  11 -11   34.49    7.54
   3  11 -11   32.96    5.97
  -3 -11 -11   24.72    6.97
   3 -11  11   39.09    8.02
  -3 -11  11   37.99    7.53
  -3  11 -12  108.84    9.61
   3  11 -12  118.74   11.63
   3 -11  12  112.02   25.20
  -3 -11  12  119.07    8.74
  -3  11 -13   36.99    8.34
   3  11 -13   38.00    8.93
   3 -11  13   37.53    8.54
  -3 -11  13   32.33   12.22
  -3  11 -14   10.00    2.83
   3  11 -14   12.06    5.31
   3 -11  14   11.09    7.83
  -3 -11  14   11.91    3.20
   3  11 -15   22.12    6.51
   3 -11  15   23.30    8.82
  -3 -11  15   17.78    4.33
   3  11 -16   10.34    3.04
   3 -11  16    7.68    6.87
  -3 -11  16    5.98    3.08
  -3  12   0   -1.12    2.59
   3  12   0   -1.35    2.27
   3 -12   0    1.39    0.93
  -3 -12   0    1.19    1.56
  -3  12   1   61.75    9.38
  -3  12  -1   62.01   11.15
   3  12   1   78.34   14.12
   3  12  -1   71.88    7.49
   3 -12   1   58.23   11.07
   3 -12  -1   61.30    5.32
  -3 -12   1   55.98    6.44
  -3 -12  -1   64.33    7.37
  -3  12   2  669.52   20.09
  -3  12  -2  692.33   14.22
   3  12   2  672.18   19.55
   3  12  -2  684.91   15.47
  -3 -12   2  684.57   14.52
  -3 -12  -2  688.14   14.60
  -3  12   3   24.80    6.59
  -3  12  -3   21.05    5.32
   3  12   3   20.08    3.90
   3  12  -3   19.57    4.55
  -3 -12   3   22.69    5.14
  -3 -12  -3   22.62    6.37
   3 -12   3   15.35    5.44
  -3  12   4    0.45    1.81
  -3  12  -4    2.07    1.50
   3  12   4    4.20    2.02
   3  12  -4   -0.84    2.65
  -3 -12   4    4.71    1.72
  -3 -12  -4    2.31    1.48
   3 -12   4    1.61    2.17
  -3  12  -5  262.80    8.74
   3  12   5  272.85    7.90
   3  12  -5  234.34    8.12
  -3 -12   5  260.15    9.26
  -3 -12  -5  230.22   10.60
   3 -12   5  234.46    9.76
  -3  12   6   13.26    3.93
  -3  12  -6   13.75    2.69
   3  12   6   10.31    3.78
   3  12  -6   14.66    3.82
  -3 -12   6   11.05    4.56
  -3 -12  -6    8.86    2.85
   3 -12   6   13.26    5.63
  -3 -12   6   10.93    6.45
  -3  12   7   97.57    5.02
  -3  12  -7   82.97    9.02
   3  12   7   83.30   10.96
   3  12  -7  106.45   16.53
  -3 -12   7   96.12    8.08
  -3 -12  -7   92.67    7.96
   3 -12   7  106.77   22.85
  -3 -12   7   80.48   10.64
  -3  12   8    3.64    2.25
  -3  12  -8    1.76    2.00
   3  12  -8    2.06    1.74
  -3 -12   8    4.83    1.99
  -3 -12  -8    2.17    1.20
   3 -12   8    2.62    2.57
  -3  12   9   15.49    5.64
  -3  12  -9   21.64    4.69
   3  12   9   15.01    6.68
   3  12  -9   22.83    5.17
  -3 -12   9   22.86    5.58
  -3 -12  -9   20.77    5.95
   3 -12   9   13.01    6.06
  -3 -12   9   25.08    5.40
  -3  12  10  205.41    7.41
  -3  12 -10  227.76   20.33
   3  12 -10  223.57   13.16
  -3 -12  10  221.24    9.95
   3 -12  10  203.51   20.56
  -3 -12  10  242.01   12.02
  -3  12 -11   37.40    5.41
   3  12 -11   34.45    7.60
  -3 -12  11   33.92    7.70
   3 -12  11   27.41    7.46
  -3 -12  11   34.68    9.25
  -3  12 -12   13.13    4.15
   3  12 -12   10.76    2.60
   3 -12  12   17.57    6.03
  -3 -12  12    8.06    3.24
  -3  12 -13    2.32    1.12
   3  12 -13    7.83    3.03
   3 -12  13    0.42    4.32
  -3 -12  13    4.85    4.07
  -3  12 -14  114.61   23.17
   3  12 -14  124.33   26.85
   3 -12  14  136.31   18.34
  -3 -12  14  129.44   20.39
  -3  12 -15    2.09    1.59
   3  12 -15    4.45    2.73
   3 -12  15   -4.90    4.18
  -3 -12  15    4.04    2.06
  -3  13   0   85.57    8.55
   3  13   0   92.80   11.29
   3 -13   0   85.62    5.16
  -3 -13   0   89.16    8.29
  -3  13   1   53.18    4.57
  -3  13  -1   41.30   10.82
   3  13   1   45.90   12.43
   3  13  -1   47.41   13.50
   3 -13   1   57.05    3.31
  -3 -13   1   47.30   12.86
  -3 -13  -1   52.60   14.45
  -3  13   2   92.03   10.80
  -3  13  -2   75.49   11.88
   3  13   2   70.56    6.00
   3  13  -2   90.59    9.31
   3 -13   2   85.02    5.55
  -3 -13   2   77.65    6.13
  -3 -13  -2   86.10    5.51
  -3  13   3    3.09    2.27
  -3  13  -3    0.24    2.69
   3  13   3    1.49    1.23
   3  13  -3   -0.69    2.95
  -3 -13   3    3.82    2.35
  -3 -13  -3    0.81    1.35
  -3  13   4   61.29   16.21
  -3  13  -4   71.74   10.13
   3  13   4   59.89   15.52
   3  13  -4   65.17    7.90
  -3 -13   4   69.60    7.28
  -3 -13  -4   56.73   11.51
   3 -13   4   67.29    7.07
  -3  13   5   27.53    8.33
  -3  13  -5   22.96    4.12
   3  13   5   20.17    5.26
   3  13  -5   24.67    8.47
  -3 -13   5   21.22    9.09
  -3 -13  -5   27.99    4.33
   3 -13   5   32.30   12.36
  -3  13   6   13.38    2.84
  -3  13  -6   14.99    3.19
   3  13   6   16.26    6.26
   3  13  -6   16.54    4.65
  -3 -13   6   16.38    4.46
  -3 -13  -6   12.92    3.84
   3 -13   6    9.71    6.40
  -3  13   7    2.91    2.42
  -3  13  -7    3.90    2.58
   3  13   7    3.78    1.80
   3  13  -7    1.78    1.83
  -3 -13   7    3.37    2.37
  -3 -13  -7    4.94    1.56
   3 -13   7    2.65    4.58
  -3 -13   7    4.66    3.33
  -3  13   8   15.98    3.97
  -3  13  -8   16.48    3.62
   3  13   8   14.61    3.33
   3  13  -8   17.03    4.53
  -3 -13   8   17.44    5.55
   3 -13   8   10.98    7.19
  -3 -13   8   11.24    3.87
  -3  13   9    8.42    3.90
  -3  13  -9    4.65    2.25
   3  13  -9    9.59    2.77
  -3 -13   9    6.94    3.63
   3 -13   9    4.32    4.02
  -3 -13   9    6.26    4.66
  -3  13  10   52.80    6.31
  -3  13 -10   51.07   16.52
   3  13 -10   54.24   14.49
  -3 -13  10   53.51   14.30
   3 -13  10   53.64   15.72
  -3 -13  10   54.54    6.64
  -3  13 -11   28.81    8.25
   3  13 -11   21.43    6.12
  -3 -13  11   26.60    8.63
   3 -13  11   22.84    8.94
  -3 -13  11   20.55    9.37
  -3  13 -12   44.65   10.76
   3  13 -12   48.55   10.36
  -3 -13  12   44.53   17.39
   3 -13  12   43.95   13.56
  -3 -13  12   40.61   17.20
  -3  13 -13   15.71    4.97
   3  13 -13   13.84    3.87
  -3 -13  13    8.46    3.68
   3 -13  13   11.06    8.48
  -3 -13  13    9.68    7.00
  -3  13 -14    9.32    3.72
   3  13 -14    9.80    2.55
   3 -13  14    5.41    4.59
  -3 -13  14    7.72    4.09
  -3  14   0   12.31    3.06
   3  14   0    9.24    3.36
  -3 -14   0   10.56    2.91
  -3  14   1   41.61   11.56
  -3  14  -1   33.54    8.55
   3  14   1   41.19   13.06
   3  14  -1   39.29   11.97
  -3 -14   1   35.23    8.73
  -3 -14  -1   43.15   10.61
  -3  14   2   -0.13    2.96
  -3  14  -2    2.71    3.14
   3  14   2    0.80    0.63
   3  14  -2   -2.36    2.22
   3 -14   2    0.19    1.20
  -3 -14   2    2.46    1.12
  -3 -14  -2    1.23    1.92
  -3  14   3   15.55    3.48
  -3  14  -3   13.15    4.99
   3  14   3   10.42    2.92
   3  14  -3   21.59    4.54
   3 -14   3   12.33    5.22
  -3 -14   3   14.13    4.04
  -3 -14  -3   16.98    3.83
  -3  14   4   67.91    9.74
  -3  14  -4   48.35   14.08
   3  14   4   46.39    8.13
   3  14  -4   53.29   15.13
  -3 -14   4   55.75   10.75
  -3 -14  -4   54.71   13.41
  -3  14   5   90.04   13.60
  -3  14  -5   91.11   11.20
   3  14   5   87.86   18.46
   3  14  -5   93.33   12.39
  -3 -14   5   93.98    8.74
  -3 -14  -5   89.71    5.60
   3 -14   5  101.82    9.96
  -3  14   6   18.07    5.26
  -3  14  -6   18.35    4.22
   3  14   6   19.74    8.26
   3  14  -6   18.17    4.98
  -3 -14   6   19.25    5.24
   3 -14   6   27.84    8.25
  -3  14   7    9.06    4.86
  -3  14  -7   14.63    6.12
   3  14   7   13.13    4.15
   3  14  -7   17.76    3.91
  -3 -14   7    7.49    2.57
   3 -14   7    9.34    5.81
  -3  14   8   97.49    5.52
  -3  14  -8   96.76   21.00
   3  14   8   99.12    5.22
   3  14  -8   94.09   17.05
  -3 -14   8  103.29    8.88
   3 -14   8   97.97   26.11
  -3 -14   8   92.96   15.86
  -3  14   9   15.02    5.30
  -3  14  -9   10.84    2.37
   3  14  -9   16.48    3.97
  -3 -14   9   14.90    5.77
   3 -14   9   21.97    5.72
  -3 -14   9   11.77    3.81
  -3  14  10    2.47    1.97
  -3  14 -10    3.65    2.88
   3  14 -10    2.02    1.57
  -3 -14  10    7.66    3.26
   3 -14  10    2.27    2.05
  -3 -14  10    3.81    4.06
  -3  14 -11   13.78    3.71
   3  14 -11    8.12    1.43
  -3 -14  11   11.96    2.75
   3 -14  11    8.08    6.14
  -3 -14  11   11.01    4.62
  -3  14 -12   30.61    8.51
   3  14 -12   35.58   11.09
  -3 -14  12   34.71    9.03
   3 -14  12   36.51   11.16
  -3 -14  12   37.55    9.82
  -3  14 -13    7.05    2.92
   3  14 -13   10.61    3.16
  -3 -14  13   10.23    5.09
   3 -14  13    6.71    3.09
  -3 -14  13    7.70    3.79
  -3  15   0  103.73   23.69
   3  15   0  109.69    6.75
  -3 -15   0  113.17   13.46
  -3  15   1    7.40    2.94
  -3  15  -1    6.82    2.97
   3  15   1    3.61    2.54
   3  15  -1    4.02    2.66
  -3 -15   1    6.59    1.60
  -3 -15  -1    4.95    2.99
  -3  15   2    8.18    3.48
  -3  15  -2    4.54    1.84
   3  15   2    7.18    2.26
   3  15  -2    3.42    3.31
  -3 -15   2    6.62    2.32
  -3 -15  -2    4.40    1.69
  -3  15   3    2.69    2.36
  -3  15  -3   -1.21    3.56
   3  15   3   -0.61    2.32
   3  15  -3    2.07    1.52
   3 -15   3    2.26    2.66
  -3 -15   3   -2.17    3.11
  -3 -15  -3   -0.15    2.16
  -3  15   4   35.77    4.76
  -3  15  -4   24.96    9.96
   3  15   4   22.23    9.53
   3  15  -4   36.09   10.21
   3 -15   4   31.65   10.48
  -3 -15   4   27.32    6.37
  -3 -15  -4   47.26   11.83
  -3  15   5   32.62   14.32
  -3  15  -5   40.47    8.16
   3  15   5   35.86   13.07
   3  15  -5   45.56    5.95
  -3 -15   5   39.66   10.19
  -3  15   6   42.97   13.98
  -3  15  -6   35.71    9.95
   3  15   6   41.47   13.75
   3  15  -6   40.59    9.48
  -3 -15   6   52.71   13.20
   3 -15   6   47.68   13.70
  -3  15   7   36.84   13.48
  -3  15  -7   48.25   10.53
   3  15   7   42.74   12.05
   3  15  -7   48.40   13.54
  -3 -15   7   38.19    6.77
   3 -15   7   38.23   16.66
  -3  15   8    2.46    1.49
  -3  15  -8    2.06    1.13
   3  15   8    2.87    2.18
   3  15  -8    3.90    1.41
  -3 -15   8   -0.44    3.57
   3 -15   8    3.67    1.89
  -3  15   9   13.89    4.35
  -3  15  -9   16.40    6.24
   3  15  -9    4.37    3.51
  -3 -15   9   20.61    5.70
   3 -15   9   16.35    6.32
  -3 -15   9   20.54   11.02
  -3  15 -10    3.57    4.12
   3  15 -10    2.73    1.75
  -3 -15  10   -0.67    3.59
   3 -15  10    6.71    4.69
  -3 -15  10    3.42    1.92
  -3  15 -11   10.79    2.91
   3  15 -11   11.15    4.08
  -3 -15  11   12.24    4.28
   3 -15  11   13.54    6.20
  -3 -15  11    9.86    5.21
  -3  16   0    7.70    3.60
   3  16   0    8.45    3.37
  -3 -16   0    7.01    4.27
  -3  16   1   44.28   16.34
  -3  16  -1   48.27   15.09
   3  16   1   56.04   18.04
   3  16  -1   51.58    7.39
  -3 -16   1   60.62   12.68
  -3 -16  -1   49.92   12.96
  -3  16   2   41.24    6.67
  -3  16  -2   42.18   10.37
   3  16   2   37.97   10.63
   3  16  -2   34.92   10.85
  -3 -16   2   37.14    9.94
  -3 -16  -2   39.76   11.18
  -3  16   3   16.67    5.44
  -3  16  -3   19.73    6.38
   3  16   3   23.26    5.17
   3  16  -3   26.79    7.19
  -3 -16   3   19.79    5.64
  -3  16   4   11.10    3.17
  -3  16  -4    6.58    2.59
   3  16   4    3.75    2.52
   3  16  -4   14.14    6.42
  -3 -16   4    6.22    3.76
  -3  16   5    4.33    1.86
  -3  16  -5    6.91    4.12
   3  16   5    5.15    2.12
   3  16  -5    5.36    2.57
  -3 -16   5    9.79    3.55
  -3  16   6   22.63    8.74
  -3  16  -6   34.42    9.51
   3  16   6   28.07    7.87
   3  16  -6   30.12   10.57
   3 -16   6   25.77    9.24
  -3 -16   6   37.54    8.45
  -3  16   7   -0.25    2.17
  -3  16  -7   -0.26    2.16
   3  16   7    0.98    1.04
   3  16  -7    3.33    3.35
  -3 -16   7    2.19    1.74
   3 -16   7   -2.07    3.87
  -3  16   8    7.31    2.97
  -3  16  -8    3.28    2.52
   3  16  -8    5.34    2.47
  -3 -16   8    6.46    3.64
   3 -16   8    9.93    4.64
  -3  16   9   19.37    4.69
  -3  16  -9   17.85    6.58
   3  16  -9   20.57    7.35
  -3 -16   9   23.29    6.60
   3 -16   9   19.31    7.25
  -3  17   0    3.17    4.06
   3  17   0    2.79    3.30
  -3 -17   0    4.77    2.80
  -3  17   1   19.24    4.40
  -3  17  -1   11.47    4.58
   3  17   1   16.18    4.51
   3  17  -1   17.49    4.16
  -3 -17   1   20.96    4.09
  -3  17   2   10.33    3.33
  -3  17  -2    4.49    3.08
   3  17   2    5.60    2.19
   3  17  -2   13.03    3.91
  -3 -17   2    4.70    2.14
  -3  17   3   33.89   11.87
  -3  17  -3   28.14   11.24
   3  17   3   33.56   11.91
   3  17  -3   41.00    5.79
  -3 -17   3   33.24   10.43
  -3  17   4    2.92    1.57
  -3  17  -4   -0.10    3.04
   3  17   4    1.78    1.45
   3  17  -4    3.32    2.34
  -3 -17   4    6.29    3.87
  -3  17   5    5.52    2.89
  -3  17  -5    4.78    2.46
   3  17   5    4.11    2.07
   3  17  -5    5.47    3.08
  -3 -17   5    7.03    3.32
  -3  17   6   17.65    5.87
  -3  17  -6   28.43    5.95
   3  17   6   22.80    8.29
   3  17  -6   33.07    6.38
  -3 -17   6   23.69    9.52
   4   0   0    7.79    2.75
  -4   0   0    8.08    2.89
   4   0   0   12.34    1.05
   4   0  -1 2552.11   28.22
   4   0   1 2581.79   28.27
  -4   0   1 2562.14   28.30
  -4   0  -1 2545.74   28.14
   4   0   1 2560.88   26.82
   4   0  -2  502.20   13.23
   4   0   2  510.64   13.20
  -4   0   2  516.38   13.49
  -4   0  -2  519.01   13.86
   4   0   2  505.23   12.84
  -4   0  -3 1103.76   13.41
   4   0  -3 1083.73   14.02
  -4   0   3 1100.26   13.69
   4   0   3 1099.18   13.85
  -4   0  -4   80.54    6.10
   4   0  -4   85.60    5.50
  -4   0   4   85.75    5.42
  -4   0  -4  116.78    7.29
   4   0   4   85.64    5.54
  -4   0  -5  166.64    4.96
   4   0  -5  174.71    5.71
  -4   0   5  175.38    5.82
  -4   0  -5  162.49   10.61
  -4   0  -6  807.36   17.20
   4   0  -6  780.73   17.64
  -4   0  -6  795.27   18.76
  -4   0  -7  168.19    5.58
   4   0  -7  171.02    6.31
  -4   0  -7  165.12    6.87
  -4   0  -8   39.64    2.13
   4   0  -8   44.53    4.09
  -4   0  -8   39.29    3.84
  -4   0  -9    3.23    0.91
   4   0  -9    2.70    1.42
  -4   0  -9    2.38    1.96
  -4   0 -10  110.73    4.99
   4   0 -10  110.36    6.12
  -4   0 -10   99.18    6.38
   4   0  10  104.10    6.93
  -4   0 -11  609.04   13.07
   4   0 -11  622.11   16.57
  -4   0 -11  639.35   17.14
   4   0  11  640.41   18.04
   4   0 -12   59.39    3.14
   4   0  12   61.15    9.34
   4   0 -13  260.84    7.07
  -4   0 -13  272.18    9.42
  -4   0  13  268.20   13.41
   4   0  13  248.40    9.33
   4   0 -14   12.26    3.65
  -4   0 -14   11.41    2.95
  -4   0  14   13.26    4.33
   4   0  14    9.68    4.89
  -4   0 -15  105.69    7.31
  -4   0  15   96.12    7.95
   4   0  15  103.78   20.39
  -4   0 -16   16.73    4.56
  -4   0  16   17.62    5.22
   4   0  16    7.98    4.78
  -4   0 -17  122.40    8.78
  -4   0  17  131.18   13.68
   4   0  17  147.30   11.54
  -4   0 -18   14.50    4.51
  -4   0  18   15.91    5.19
   4   0  18   16.30    7.58
  -4   0 -19    4.92    2.41
  -4   0  19    5.21    3.48
   4   0  19    5.61    3.40
  -4   0 -20   -0.22    2.60
  -4   0  20    2.77    1.72
   4   0  20    3.95    2.00
  -4   1   0   70.88    7.10
   4   1   0   61.78    4.10
  -4  -1   0   62.43    4.21
  -4   1   0   64.67    4.69
  -4   1   0   64.79    3.86
   4  -1   0   58.32    3.65
  -4   1   1  278.40    8.06
  -4   1  -1  276.50    7.84
   4   1  -1  286.44    8.37
   4   1   1  284.25    7.93
  -4  -1   1  288.91    8.41
  -4   1   1  284.78    7.82
  -4  -1  -1  286.12    8.46
  -4   1  -1  287.66    8.12
   4  -1   1  282.69    7.67
  -4   1   1  290.31    7.63
  -4   1  -2  879.25   11.52
   4   1  -2  923.46   12.27
   4   1   2  908.61   11.53
   4  -1  -2  881.68   11.72
  -4  -1   2  895.37   12.06
  -4   1   2  923.77   11.40
  -4  -1  -2  933.14   12.96
  -4   1  -2  947.32   12.47
   4  -1   2  924.34   11.52
  -4   1   2  940.53   10.67
  -4   1  -3  352.50    9.58
   4   1  -3  392.45   10.91
   4   1   3  346.45    9.29
   4  -1  -3  334.32    9.46
  -4  -1   3  328.36    9.36
  -4  -1  -3  409.32   12.32
  -4   1  -3  362.57   10.21
   4  -1   3  390.67   10.58
  -4  -1   3  345.80    8.59
  -4   1  -4  396.30   10.57
   4   1  -4  351.50    9.95
   4   1   4  384.68   10.16
   4  -1  -4  373.42   10.38
  -4  -1   4  371.05   11.55
  -4   1   4  353.86    9.51
  -4  -1  -4  354.04   10.38
  -4   1  -4  400.60   11.25
  -4  -1   4  374.44    9.58
   4  -1   4  358.88   10.08
  -4  -1  -5  319.22    8.56
  -4   1  -5  342.79    9.20
   4   1  -5  300.82    8.88
   4  -1  -5  315.11    9.07
  -4  -1   5  327.47    9.55
  -4   1   5  316.68    8.75
  -4  -1  -5  303.64    9.23
  -4   1  -5  338.25    9.91
  -4  -1   5  318.55    8.74
   4  -1   5  309.72   10.70
  -4  -1  -6  711.64   15.20
  -4   1  -6  728.69   16.03
   4   1  -6  692.95   15.93
   4  -1  -6  722.25   16.46
  -4  -1  -6  697.69   16.54
  -4   1  -6  726.37   17.04
  -4  -1   6  712.56   15.69
   4  -1   6  707.51   16.79
  -4  -1  -7 1131.21   23.36
  -4   1  -7 1083.96   22.85
   4   1  -7 1117.58   24.64
   4  -1  -7 1061.08   23.37
  -4  -1  -7 1109.05   26.55
  -4   1  -7 1084.59   24.80
  -4  -1   7 1032.93   22.41
   4  -1   7 1075.31   25.02
  -4  -1  -8   72.08    2.35
  -4   1  -8   76.61    2.24
   4   1  -8   67.11    4.67
   4  -1  -8   73.07    3.02
  -4  -1  -8   82.53    4.20
  -4   1  -8   89.98    7.23
  -4  -1   8   73.58    3.12
   4  -1   8   66.45    3.53
  -4  -1  -9  656.75   13.54
  -4   1  -9  641.56   14.67
  -4  -1  -9  670.11   13.80
   4   1  -9  663.76   15.61
   4  -1  -9  654.43   15.26
  -4  -1  -9  664.93   16.80
  -4   1  -9  654.12   16.82
  -4  -1   9  657.26   15.54
   4  -1   9  658.80   17.71
  -4   1 -10   43.17    1.97
   4   1 -10   39.81    7.11
   4  -1 -10   38.92    2.28
  -4  -1 -10   37.33    8.78
  -4   1 -10   46.65    3.40
  -4  -1  10   39.93    4.42
   4  -1  10   34.58    9.60
  -4   1 -11   23.34    1.36
   4   1 -11   27.51    6.14
   4  -1 -11   29.42    2.40
  -4  -1 -11   27.79    9.96
  -4   1 -11   25.85    8.72
  -4  -1  11   20.40    8.94
   4  -1  11   19.73    6.47
   4   1 -12  233.30   13.84
  -4  -1 -12  212.26   14.45
  -4   1 -12  239.97    9.99
  -4  -1  12  232.15   10.17
   4  -1  12  251.07   12.97
  -4   1  13   90.12    4.25
   4   1 -13   81.10    6.89
  -4  -1 -13   87.61   10.47
  -4   1 -13   91.81    9.28
  -4  -1  13   74.19    4.48
   4  -1  13   76.04    9.74
  -4   1  14   23.01    5.85
   4   1 -14   26.07    3.05
  -4  -1 -14   30.21    6.73
  -4   1 -14   20.99    3.24
  -4  -1  14   24.64    9.29
   4  -1  14   19.65    6.27
  -4  -1 -15   52.58   13.32
  -4   1 -15   33.04   11.21
   4   1  15   33.15   10.37
  -4  -1  15   38.97    9.00
   4  -1  15   49.41   18.19
  -4  -1 -16  116.63    6.57
  -4   1 -16  116.71   14.42
  -4   1  16  138.90    7.88
   4   1  16  125.90   14.75
  -4  -1  16  113.32    6.81
   4  -1  16  133.09   19.90
  -4  -1 -17    7.49    2.52
  -4   1 -17    7.16    3.73
  -4   1  17    8.00    3.61
   4   1  17   12.49    5.15
  -4  -1  17   12.35    4.22
   4  -1  17    7.51    5.55
  -4  -1 -18   29.51    8.82
  -4   1 -18   28.14    6.55
  -4   1  18   28.27   11.06
   4   1  18   32.19    7.78
   4  -1  18   39.06    7.62
  -4  -1  18   26.40   10.19
  -4  -1 -19   59.06   16.90
  -4   1 -19   67.05   15.98
  -4   1  19   57.10   20.55
   4   1  19   63.53   16.03
   4  -1  19   66.98   21.14
  -4  -1  19   64.83    9.21
  -4  -1 -20    6.96    3.11
  -4   1 -20    9.18    3.47
  -4   1  20   12.42    5.17
   4   1  20   11.81    5.63
   4  -1  20   10.27    4.72
  -4  -1  20   11.36    3.83
  -4   2   0  480.64   12.77
   4   2   0  486.49   12.92
  -4  -2   0  486.15   13.28
  -4   2   0  499.94   12.79
   4  -2   0  464.69   12.05
  -4   2   1  178.66    5.79
  -4   2  -1  159.42    9.29
   4   2  -1  152.39    8.95
   4   2   1  142.62    8.41
  -4  -2   1  146.23    8.91
  -4  -2  -1  159.98    9.47
  -4   2   1  152.68    8.71
  -4   2  -1  160.66    9.17
   4  -2   1  167.35    5.39
   4   2  -1  146.61    8.17
  -4   2   2  156.16    9.17
  -4   2  -2  143.21    8.46
   4   2  -2  148.98    8.81
   4   2   2  135.66    7.95
  -4  -2   2  131.31    8.10
  -4   2   2  152.43    8.82
  -4  -2  -2  150.78    9.13
  -4   2  -2  139.42    8.31
   4   2  -2  146.89    8.21
   4  -2   2  144.04    9.16
  -4   2   3  442.33   12.36
  -4   2  -3  396.21   10.72
   4   2  -3  438.33   11.99
   4   2   3  428.41   11.36
  -4  -2   3  428.23   12.64
  -4   2   3  428.08   10.92
  -4  -2  -3  452.29   12.65
  -4   2  -3  414.69   11.37
   4   2  -3  420.51   10.45
   4  -2   3  438.52   11.91
  -4  -2   3  413.21   10.41
  -4   2   4  863.10   12.07
  -4   2  -4  812.14   10.97
   4   2  -4  819.59   11.78
   4   2   4  843.54   10.98
  -4  -2   4  826.90   12.08
  -4   2   4  826.16   10.11
  -4  -2  -4  850.66   12.71
  -4   2  -4  821.57   11.86
   4  -2   4  844.55   12.06
  -4  -2   4  829.53   10.41
  -4   2   5  813.52   11.61
  -4   2  -5  792.24   10.85
   4   2  -5  781.57   11.58
   4   2   5  818.12   10.66
  -4  -2   5  819.04   12.24
  -4   2   5  796.62   10.75
  -4  -2  -5  780.14   12.08
  -4   2  -5  807.37   12.32
   4  -2   5  819.00   12.33
  -4  -2   5  810.56   10.54
  -4   2   6  635.28   14.82
  -4   2  -6  645.70   15.80
   4   2  -6  559.71   17.07
   4   2   6  599.09    5.34
  -4   2   6  568.02   17.04
  -4  -2  -6  552.80   17.15
  -4   2  -6  653.84   15.65
   4  -2   6  618.38   16.56
  -4  -2   6  585.69   17.39
  -4   2   7 1089.80   23.86
  -4  -2  -7 1074.07   22.40
  -4   2  -7 1164.12   24.85
   4   2  -7 1081.67   23.98
  -4  -2  -7 1098.74   25.20
  -4   2  -7 1148.24   25.94
   4  -2   7 1060.88   24.32
  -4  -2   7 1123.26   24.42
  -4   2   8  731.29   16.61
  -4  -2  -8  662.98   13.86
  -4   2  -8  757.57   16.72
  -4  -2  -8  661.35   13.88
   4   2  -8  672.18   15.81
  -4  -2  -8  698.82   17.03
  -4   2  -8  749.84   18.39
   4  -2   8  685.82   17.06
  -4  -2   8  689.33   15.78
  -4   2   9  293.80   12.16
  -4  -2  -9  279.01    8.49
  -4   2  -9  294.84   10.10
  -4  -2  -9  280.42    8.67
   4   2  -9  286.71   10.56
  -4  -2  -9  282.92   10.79
  -4   2  -9  267.05   10.35
   4  -2   9  287.52   11.52
  -4  -2   9  251.87    9.48
  -4   2  10   36.74    3.63
  -4   2 -10   35.91    2.78
   4   2 -10   39.19    4.34
  -4  -2 -10   30.98    8.07
  -4   2 -10   40.63   11.74
   4  -2  10   30.52   10.62
  -4  -2  10   42.15    8.82
  -4   2  11  378.99   11.32
  -4   2 -11  368.06    9.69
   4   2 -11  358.22   10.14
  -4  -2 -11  343.72   10.71
  -4   2 -11  334.16   10.79
   4  -2  11  373.50   14.24
  -4  -2  11  351.98   10.61
  -4   2  12  130.42    4.46
  -4   2 -12  136.33    6.31
   4   2 -12  137.41    5.38
  -4  -2 -12  120.36   11.79
  -4   2 -12  129.55    5.77
  -4  -2  12  140.11    6.07
   4  -2  12  123.49   10.00
  -4   2  13   44.08    6.29
   4   2 -13   38.35    8.45
  -4  -2 -13   37.71    3.83
  -4   2 -13   38.50   11.93
   4  -2  13   44.28   12.90
  -4  -2  13   34.67   10.57
  -4   2  14   10.29    2.78
   4   2 -14   10.23    2.49
  -4  -2 -14   10.87    2.59
  -4   2 -14    7.03    5.07
  -4  -2  14   10.28    2.89
   4  -2  14    8.10    1.90
   4   2 -15   61.77    8.18
  -4  -2 -15   63.12   13.70
  -4   2 -15   64.93   17.01
  -4  -2  15   76.69   10.56
   4  -2  15   59.01   17.59
  -4  -2 -16  112.18   10.16
  -4   2 -16  117.28   12.01
   4  -2  16  126.64   22.33
  -4  -2  16  115.71    6.60
  -4  -2 -17   85.64    7.86
  -4   2 -17  105.38    8.58
   4   2  17  100.50   21.52
   4  -2  17   97.75   10.57
  -4  -2  17   93.28    5.84
  -4  -2 -18    0.40    2.06
  -4   2 -18   -0.74    2.36
   4   2  18   -2.24    3.85
   4  -2  18    2.65    2.31
  -4  -2  18    2.85    1.88
  -4  -2 -19   79.81   21.48
  -4   2 -19  101.44   13.66
  -4   2  19   89.43   19.47
   4   2  19   98.48   13.41
   4  -2  19   96.64   19.03
  -4  -2  19   81.89   17.61
  -4  -2 -20   27.99    4.13
  -4   2 -20   28.11    8.28
  -4   2  20   19.87    7.45
   4   2  20   26.55    8.17
   4  -2  20   27.13    8.93
  -4  -2  20   21.83    7.73
  -4   3   0  580.69   15.28
   4   3   0  585.63   15.43
  -4  -3   0  542.59   14.77
  -4   3   0  600.94   32.40
   4  -3   0  607.53    9.18
  -4   3   1  848.63   11.91
  -4  -3   1  909.43   13.10
   4  -3   1  851.16   11.69
  -4   3   2  112.21    6.92
   4   3   2  105.61    7.90
  -4  -3   2   99.96    6.39
  -4   3   2  119.21    6.79
   4  -3   2  118.81   10.58
  -4   3   3  915.81   13.23
  -4   3  -3  894.00   12.35
   4   3  -3  962.39   13.64
   4   3   3  909.43   12.57
   4  -3  -3  963.10   10.88
  -4  -3   3  906.39   13.21
  -4  -3  -3  904.96   13.37
  -4   3   3  960.37   10.70
  -4   3  -3  921.26   12.63
   4  -3   3  913.02   12.97
  -4  -3   3  895.09   11.19
  -4   3   4   87.11    5.66
  -4   3  -4   73.23    6.29
   4   3  -4   81.83    5.50
   4   3   4   61.41    3.99
  -4  -3   4   59.35    4.75
  -4   3   4   77.44    4.49
  -4  -3  -4   71.70    5.10
  -4   3  -4   78.83    5.17
   4  -3   4   95.36    7.64
  -4  -3   4   67.69    4.39
   4   3  -5   57.75    4.32
   4   3   5   51.52    3.29
  -4  -3   5   52.66    4.33
  -4  -3  -5   50.78    4.24
   4  -3   5   94.94   11.64
  -4  -3   5   50.51    4.33
  -4   3   6 1835.43   39.21
  -4   3  -6 1836.73   39.17
   4   3  -6 1931.46   41.17
   4   3   6 1855.12   38.10
  -4   3   6 1956.90   39.88
  -4  -3  -6 1837.72   39.56
  -4   3  -6 1808.69   39.86
   4  -3   6 1887.56   40.96
  -4  -3   6 1882.83   40.42
  -4   3   7  127.64    3.70
  -4   3  -7  133.05    5.24
   4   3  -7  103.56    6.85
   4   3   7   97.78    5.69
  -4  -3  -7   94.46    6.43
  -4   3  -7  132.84    6.02
   4  -3   7  135.91    8.94
  -4  -3   7   91.66    8.33
  -4   3   8    9.16    2.32
  -4   3  -8   10.68    2.42
   4   3  -8    6.04    1.55
   4   3   8    7.24    1.86
  -4  -3  -8    3.06    2.11
  -4   3  -8   11.26    4.01
   4  -3   8   11.59    4.82
  -4  -3   8    7.22    2.95
  -4   3   9   49.48    4.05
  -4  -3  -9   46.93    1.49
  -4  -3  -9   48.10    1.50
  -4   3  -9   59.86    4.20
   4   3  -9   43.46    3.31
  -4  -3  -9   45.92    4.84
  -4   3  -9   57.31    3.63
   4  -3   9   51.10   12.58
  -4  -3   9   50.56    3.30
  -4   3  10  321.42    9.65
  -4   3 -10  349.18    9.35
   4   3 -10  305.10    9.53
  -4  -3 -10  307.86   10.16
  -4   3 -10  323.49   13.84
   4  -3  10  328.91   11.35
  -4  -3  10  327.58    9.79
  -4   3  11  216.80    6.75
  -4   3 -11  215.73    6.11
   4   3 -11  198.72    6.33
  -4  -3 -11  189.73    6.41
  -4   3 -11  236.20    7.65
   4  -3  11  211.94    7.89
  -4  -3  11  204.98    6.68
  -4   3  12   57.23    2.94
  -4   3 -12   50.53    2.91
   4   3 -12   60.42    4.74
  -4  -3 -12   59.54    5.25
  -4   3 -12   43.47   11.05
   4  -3  12   56.19   14.95
  -4  -3  12   54.46    6.65
  -4   3  13  260.26    7.86
   4   3 -13  253.38    7.71
  -4  -3 -13  236.45    8.33
  -4   3 -13  260.69    9.03
   4  -3  13  241.96   12.92
  -4  -3  13  256.67    8.94
   4   3 -14   27.49    5.46
  -4  -3 -14   33.91   10.75
  -4   3 -14   39.57   10.99
   4  -3  14   48.81   10.02
  -4  -3  14   39.96   11.00
   4   3 -15  252.89    7.09
  -4  -3 -15  238.72   13.69
  -4   3 -15  240.38    8.38
   4  -3  15  235.46   15.84
  -4  -3  15  222.89   15.61
  -4  -3 -16    2.42    2.14
  -4   3 -16   10.09    1.73
   4  -3  16    5.52    3.05
  -4  -3  16    6.51    2.58
  -4  -3 -17   82.16   13.93
  -4   3 -17   79.90    9.08
   4  -3  17   92.41   11.31
  -4  -3  17   74.70    9.19
  -4  -3 -18  113.71   13.25
  -4   3 -18  104.74   16.63
   4  -3  18  106.28    8.94
  -4  -3  18   96.65    6.98
  -4  -3 -19   11.47    3.51
  -4   3 -19   17.77    5.93
   4   3  19    7.92    4.47
   4  -3  19   11.20    6.45
  -4  -3  19   12.03    3.15
  -4  -3 -20    5.52    3.88
  -4   3  20    5.71    2.44
   4   3  20    7.28    3.52
   4  -3  20    5.34    5.31
  -4  -3  20    6.30    3.86
  -4   4   0  246.13    7.60
   4   4   0  249.26    7.71
  -4  -4   0  244.56    8.11
  -4   4   0  258.21    7.05
   4  -4   0  258.36    8.15
  -4   4   1 2870.41   33.01
  -4   4  -1 2763.28   31.96
   4   4  -1 2840.23   32.34
   4   4   1 2776.18   31.38
  -4  -4   1 2724.35   32.51
  -4  -4  -1 2724.51   32.93
  -4   4   1 2859.62   29.74
  -4   4  -1 2869.69   31.01
  -4   4   2 2061.24   25.38
  -4   4  -2 2122.22   25.38
   4   4   2 2136.41   24.63
  -4  -4   2 2159.44   26.64
  -4   4   2 2101.24   21.79
  -4   4  -2 2127.71   24.19
   4  -4   2 2027.42   24.17
  -4   4   3  189.40    6.25
  -4   4  -3  169.11    5.82
   4   4  -3  192.75    6.61
   4   4   3  160.02   10.00
  -4  -4   3  170.29    6.43
  -4  -4  -3  196.41    7.07
  -4   4  -3  176.88    5.82
   4  -4   3  191.45    6.90
  -4  -4   3  165.09    9.46
  -4   4   4  314.40   10.24
  -4   4  -4  306.75    9.94
   4   4  -4  310.84   10.93
   4   4   4  321.97   10.23
  -4  -4   4  308.50   12.81
  -4  -4  -4  301.79   10.50
  -4   4  -4  317.00   10.44
   4  -4   4  319.86   11.15
  -4  -4   4  308.97   10.02
  -4   4   5  240.24    8.21
  -4   4  -5  248.39    9.08
   4   4  -5  236.63   10.62
   4   4   5  250.42    8.10
  -4  -4   5  243.98    9.02
  -4   4   5  259.62    7.43
  -4  -4  -5  238.77    8.72
  -4   4   5  252.27    7.13
  -4   4  -5  247.56    8.65
   4  -4   5  243.34    9.20
  -4  -4   5  251.59    8.76
  -4   4   6  265.86    9.19
  -4   4  -6  261.20    8.88
   4   4  -6  255.68    9.05
   4   4   6  269.00    8.39
  -4   4   6  282.62    8.37
  -4  -4  -6  261.93    9.59
  -4   4   6  273.86    7.98
  -4   4  -6  253.92    9.13
   4  -4   6  273.54   10.35
  -4  -4   6  265.41    9.14
  -4   4   7  505.59   12.35
  -4   4  -7  492.56   12.38
   4   4  -7  478.01   12.22
   4   4   7  487.32   10.86
  -4   4   7  520.02   11.71
  -4  -4  -7  494.20   13.00
  -4   4  -7  473.40   12.54
   4  -4   7  501.10   15.98
  -4  -4   7  485.67   12.18
  -4   4   8   32.39    4.94
  -4   4  -8   27.80    1.99
   4   4  -8   31.32    3.57
   4   4   8   29.09    3.31
  -4  -4  -8   30.54    9.09
  -4   4  -8   36.85    6.80
   4  -4   8   25.88   11.01
  -4  -4   8   26.44    8.24
  -4   4   9  152.96    7.76
  -4   4  -9  150.01   12.71
   4   4  -9  153.00    8.19
   4   4   9  122.98    5.47
  -4  -4  -9  138.93    7.64
  -4   4  -9  123.15    7.16
   4  -4   9  157.20    8.97
  -4  -4   9  127.27    7.09
  -4   4  10  429.49   12.48
  -4   4 -10  437.29   11.92
   4   4 -10  445.37   13.08
  -4  -4 -10  405.95   12.04
  -4   4 -10  424.26   13.13
   4  -4  10  410.50   15.93
  -4  -4  10  412.14   12.03
  -4   4  11  217.70   10.12
  -4   4 -11  219.44    9.07
   4   4 -11  220.67    8.75
  -4  -4 -11  211.77    8.99
  -4   4 -11  217.94    9.40
   4  -4  11  222.24   10.29
  -4  -4  11  226.92    9.73
  -4   4  12   67.98    3.26
  -4   4 -12   66.04    3.80
   4   4 -12   71.74    5.99
  -4  -4 -12   67.94    7.45
  -4   4 -12   54.77    5.78
   4  -4  12   67.97   15.65
  -4  -4  12   55.32    9.29
  -4   4  13  200.66    6.04
  -4   4 -13  190.22   11.60
   4   4 -13  208.04   16.11
  -4  -4 -13  191.73   16.19
  -4   4 -13  188.00    7.95
   4  -4  13  212.12    9.12
  -4  -4  13  174.89    7.09
   4   4 -14  356.41    8.62
  -4  -4 -14  311.07    8.75
  -4   4 -14  330.30    9.64
   4  -4  14  347.13   10.75
  -4  -4  14  331.62    9.76
   4   4 -15    4.03    2.84
  -4  -4 -15    9.13    2.64
  -4   4 -15    1.39    2.52
   4  -4  15    9.92    6.35
  -4  -4  15   -0.84    2.38
  -4  -4 -16   45.40   13.82
  -4   4 -16   49.08    8.87
   4  -4  16   59.79   15.12
  -4  -4  16   40.86   13.97
  -4  -4 -17   33.86   11.21
  -4   4 -17   36.80    5.95
   4  -4  17   39.12   10.11
  -4  -4  17   33.27    8.22
  -4  -4 -18   38.51    7.04
   4  -4  18   42.89   15.27
  -4  -4  18   34.28   14.01
  -4  -4 -19    6.51    1.82
   4  -4  19    6.51    5.16
  -4  -4  19    5.82    3.99
  -4  -4 -20    7.30    2.63
   4  -4  20   13.72    6.12
  -4  -4  20    4.65    3.64
  -4   5   0 2804.17   59.00
   4   5   0 2906.67   60.19
  -4  -5   0 2972.10   25.58
  -4   5   0 3025.93   13.26
   4  -5   0 2897.56   60.28
  -4   5   1  361.28   11.66
  -4   5  -1  407.76   14.57
   4   5   1  409.35   13.08
   4   5  -1  355.61   11.45
  -4  -5   1  405.21   13.27
  -4  -5  -1  359.25   12.13
  -4   5  -1  428.06   12.96
  -4   5   1  370.51   10.76
   4  -5   1  386.21   12.74
  -4   5   2  671.62   15.77
  -4   5  -2  670.60   15.84
   4   5  -2  654.40   15.56
   4   5   2  648.62   15.01
  -4  -5   2  663.78   16.26
  -4  -5  -2  665.86   16.35
  -4   5  -2  675.70   15.22
   4  -5   2  689.34   17.05
  -4   5   3  310.04   10.28
  -4   5  -3  292.84   10.05
   4   5  -3  335.76   11.37
   4   5   3  317.05   10.92
  -4  -5   3  310.95   11.01
  -4  -5  -3  358.50   12.16
  -4   5  -3  285.65    9.24
   4  -5   3  315.85   10.95
  -4  -5   3  305.10   10.03
  -4   5   4  915.50   20.85
  -4   5  -4  867.20   20.29
   4   5  -4  903.57   20.99
   4   5   4  870.75   19.98
  -4  -5   4  833.22   20.25
  -4  -5  -4  904.60   21.01
  -4   5  -4  862.08   19.68
   4  -5   4  915.72   21.31
  -4  -5   4  841.01   18.96
  -4   5  -5  810.53   18.81
   4   5  -5  781.23   18.62
   4   5   5  813.15   18.03
  -4  -5   5  799.78   21.65
  -4  -5  -5  779.77   18.98
  -4   5  -5  776.18   18.13
   4  -5   5  780.27   18.93
  -4  -5   5  804.11   18.70
  -4   5   6  460.86   11.58
  -4   5  -6  479.65   13.18
   4   5  -6  426.46   11.48
   4   5   6  435.47   10.24
  -4  -5   6  439.52   12.35
  -4  -5  -6  415.50   11.67
  -4   5  -6  477.01   15.98
   4  -5   6  465.33   13.08
  -4  -5   6  448.37   11.74
  -4   5   7  288.18   10.77
  -4   5  -7  271.38    9.88
   4   5  -7  292.45   11.08
   4   5   7  268.21    9.12
  -4   5   7  302.88    9.30
  -4   5   7  310.80    9.51
  -4  -5  -7  276.82   12.82
  -4   5  -7  276.40   10.92
   4  -5   7  285.34   11.34
  -4  -5   7  269.71   12.91
  -4   5   8  327.30   11.35
  -4   5  -8  309.72   10.13
   4   5  -8  335.25   11.23
   4   5   8  303.39    8.97
  -4  -5  -8  339.26   13.82
  -4   5  -8  315.35   11.40
   4  -5   8  337.97   12.66
  -4  -5   8  298.04   10.69
  -4   5   9   28.54    3.43
  -4   5  -9   42.96    3.26
   4   5  -9   30.43    4.42
   4   5   9   40.68    1.99
  -4  -5  -9   27.64    5.44
  -4   5  -9   41.68    3.84
   4  -5   9   29.43    8.29
  -4  -5   9   42.54    7.81
  -4   5  10   56.13    6.34
  -4   5 -10   53.24    6.73
   4   5 -10   59.51    8.31
   4   5  10   37.96    1.33
  -4  -5 -10   50.48    4.59
  -4   5 -10   48.23   12.34
   4  -5  10   64.76    7.95
  -4  -5  10   36.79   11.26
  -4   5  11  210.34    6.47
  -4   5 -11  231.39    6.91
   4   5 -11  207.19    7.27
  -4  -5 -11  185.78    6.82
  -4   5 -11  211.15    7.66
   4  -5  11  223.45   10.83
  -4  -5  11  201.42    7.14
  -4   5  12  398.46   11.59
  -4   5 -12  412.74   16.06
   4   5 -12  399.22   11.14
  -4  -5 -12  390.45   10.87
  -4   5 -12  364.66   18.22
   4  -5  12  389.49   19.20
  -4  -5  12  393.46   10.98
  -4   5  13   25.41    7.02
  -4   5 -13   26.39    6.03
   4   5 -13   27.15    6.32
  -4  -5 -13   24.74    6.83
  -4   5 -13   28.91   10.08
   4  -5  13   39.47    9.78
  -4  -5  13   27.02    9.55
   4   5 -14   30.22    6.60
  -4  -5 -14   27.62    8.02
  -4   5 -14   33.28    5.31
   4  -5  14   36.09   10.64
  -4  -5  14   25.66    9.20
   4   5 -15   50.36    4.88
  -4  -5 -15   57.85    4.91
  -4   5 -15   67.67   18.13
   4  -5  15   65.38   15.00
  -4  -5  15   60.40    7.68
   4   5 -16   86.56    8.28
  -4  -5 -16   81.74    8.06
  -4   5 -16   89.91   14.27
   4  -5  16   84.71    9.06
  -4  -5  16   91.15    6.67
  -4  -5 -17  115.26   11.24
   4  -5  17  126.60   20.06
  -4  -5  17  108.18   15.38
  -4  -5 -18   24.28    7.43
   4  -5  18   35.08    7.73
  -4  -5  18   28.61   10.72
  -4  -5 -19   10.11    2.17
   4  -5  19    6.22    5.00
  -4  -5  19    7.87    3.83
  -4   6   0   85.68    7.56
   4   6   0   75.79    5.37
  -4  -6   0   76.89    5.86
   4  -6   0   84.90    6.05
  -4   6   1   65.57    5.60
  -4   6  -1   65.11    4.94
   4   6   1   71.63    7.84
   4   6  -1   69.96    7.60
  -4  -6   1   65.89    5.31
  -4  -6  -1   65.90   10.11
  -4   6  -1   63.40    4.21
   4  -6   1   62.66    5.08
  -4   6   2   76.52    5.50
  -4   6  -2   78.81    5.69
   4   6   2   75.32    5.08
   4   6  -2   75.82    5.47
  -4  -6   2   75.13    5.94
  -4  -6  -2   75.82    7.76
   4  -6  -2   80.38    4.93
  -4   6  -2   78.78    5.25
   4  -6   2   79.36    6.40
  -4   6   3  149.73    6.27
  -4   6  -3  149.89    6.34
   4   6  -3  140.57    8.31
   4   6   3  133.75    5.31
  -4  -6   3  137.23    6.55
  -4  -6  -3  134.23    6.33
  -4   6  -3  145.73    5.55
   4  -6   3  158.39    7.03
  -4  -6   3  134.80    5.93
  -4   6   4 1252.23   27.83
  -4   6  -4 1247.33   27.68
   4   6  -4 1229.66   29.39
   4   6   4 1205.83   25.90
  -4  -6   4 1173.53   26.78
  -4  -6  -4 1308.62   29.30
   4  -6   4 1241.83   28.29
  -4  -6   4 1203.52   26.42
  -4   6   5    2.23    1.07
  -4   6  -5    0.73    2.67
   4   6  -5    1.98    1.30
   4   6   5   -0.22    1.31
  -4  -6   5    0.53    1.23
  -4  -6  -5    3.35    2.15
  -4   6  -5    3.53    3.02
   4  -6   5    0.33    4.07
  -4  -6   5   -1.09    2.06
  -4   6   6   67.78    8.43
  -4   6  -6   60.29    8.34
   4   6  -6   61.12    4.29
   4   6   6   61.30    3.22
  -4  -6   6   50.83    5.36
  -4  -6  -6   63.22    7.71
  -4   6  -6   67.93    3.80
   4  -6   6   64.58    4.76
  -4  -6   6   58.87    3.98
  -4   6   7  108.66    6.05
  -4   6  -7  113.64    8.77
   4   6  -7  117.90    7.99
   4   6   7  112.35    6.35
  -4  -6  -7  112.95   11.21
  -4   6  -7  122.87    7.42
   4  -6   7  116.62    9.98
  -4  -6   7  123.18    7.20
  -4   6   8  688.70   17.45
  -4   6  -8  665.52   17.93
   4   6  -8  682.61   17.90
   4   6   8  675.22   16.18
  -4  -6  -8  681.84   25.83
  -4   6  -8  649.08   17.51
   4  -6   8  716.18   19.69
  -4  -6   8  660.93   20.73
  -4   6   9   71.22   11.74
  -4   6  -9   70.99    8.17
   4   6  -9   62.52    4.69
   4   6   9   69.68    2.88
  -4   6   9   63.22    1.86
  -4  -6  -9   58.68    6.21
  -4   6  -9   65.64    4.27
   4  -6   9   72.01   11.45
  -4  -6   9   59.36    4.28
  -4   6  10   11.74    3.26
  -4   6 -10    8.22    2.81
   4   6 -10   14.62    3.37
   4   6  10    8.58    1.91
  -4  -6 -10   10.24    2.55
  -4   6 -10    9.75    3.82
   4  -6  10   13.70    4.44
  -4  -6  10    8.87    5.14
  -4   6  11    5.17    2.39
  -4   6 -11   11.51    2.77
   4   6 -11    9.12    2.63
  -4  -6 -11    5.81    2.84
  -4   6 -11   14.63    4.03
   4  -6  11    2.88    3.97
  -4  -6  11   15.61    3.49
  -4   6  12  154.75    5.45
  -4   6 -12  143.59    7.18
   4   6 -12  175.14   11.93
  -4  -6 -12  157.44    9.53
  -4   6 -12  150.64   10.17
   4  -6  12  152.55    8.36
  -4  -6  12  160.90    7.47
  -4   6 -13    1.23    1.42
   4   6 -13    2.75    1.35
  -4  -6 -13   -0.87    2.12
  -4   6 -13    1.67    2.11
   4  -6  13   -0.06    3.91
  -4  -6  13    1.29    2.17
   4   6 -14   19.32    3.06
  -4  -6 -14   17.40    2.84
   4  -6  14   22.49    6.03
  -4  -6  14   16.16    3.74
   4   6 -15  104.53   12.15
  -4  -6 -15   91.68    7.61
   4  -6  15  100.71   27.28
  -4  -6  15   90.13    6.50
   4   6 -16   65.65    8.61
  -4  -6 -16   62.99   11.01
   4  -6  16   76.44   11.32
  -4  -6  16   65.83   16.40
  -4  -6 -17   29.75    7.57
   4  -6  17   26.91    6.87
  -4  -6  17   25.95   11.58
  -4  -6 -18    1.27    1.01
   4  -6  18   -1.51    3.64
  -4  -6  18    1.82    2.09
  -4  -6 -19    2.70    2.23
   4  -6  19    6.93    5.48
  -4  -6  19    4.56    2.82
  -4   7   0  208.27   10.16
   4   7   0  181.00    7.54
  -4  -7   0  186.43    8.26
   4  -7   0  209.20    8.86
  -4   7   1  143.92    6.72
  -4   7  -1  155.35    9.49
   4   7   1  141.85    4.65
   4   7  -1  141.72    7.33
  -4  -7   1  135.70    8.44
  -4  -7  -1  143.28    6.68
   4  -7   1  147.67    7.17
  -4   7   2  264.22   10.02
  -4   7  -2  242.89    9.82
   4   7   2  240.91   11.18
   4   7  -2  268.08   12.86
  -4  -7   2  245.24   11.85
  -4  -7  -2  261.29   11.36
   4  -7   2  272.68   10.92
   4   7   3    6.26    1.87
   4   7  -3    9.38    2.05
  -4  -7   3    8.15    2.08
  -4  -7  -3    4.34    4.27
   4  -7   3    6.13    3.63
  -4   7   4  334.22   12.27
  -4   7  -4  353.82   12.76
   4   7   4  301.32   10.72
   4   7  -4  309.40   11.64
  -4  -7   4  324.92   12.57
  -4  -7  -4  293.06   11.56
   4  -7   4  348.68   13.42
  -4  -7   4  314.91   11.54
  -4   7   5  419.18   13.49
  -4   7  -5  466.95   15.01
   4   7   5  492.34   14.89
   4   7  -5  465.52   15.05
  -4  -7   5  477.14   15.69
  -4  -7  -5  422.03   19.28
  -4   7  -5  463.57   14.36
   4  -7   5  424.50   14.30
  -4  -7   5  499.23   15.88
  -4   7   6   86.13    6.27
  -4   7  -6   86.06    8.50
   4   7  -6   83.88    5.56
   4   7   6   81.95    4.77
  -4  -7   6   85.01   10.68
  -4  -7  -6   90.45   12.41
  -4   7  -6   88.40    5.70
   4  -7   6   86.75    9.72
  -4  -7   6   85.20    9.89
  -4   7   7  157.42    4.94
  -4   7  -7  171.83    7.81
   4   7  -7  168.46    5.92
   4   7   7  173.01    6.15
  -4  -7   7  170.03    6.63
  -4  -7  -7  172.52    5.74
  -4   7  -7  166.45    9.51
   4  -7   7  166.92    8.35
  -4  -7   7  181.89    6.44
  -4   7   8   93.99    4.40
  -4   7  -8   89.52    7.82
   4   7  -8  105.91   13.00
   4   7   8   93.69    3.33
  -4  -7  -8   88.61    6.57
  -4   7  -8   92.84    4.74
   4  -7   8   85.48    8.68
  -4  -7   8   96.46    5.10
  -4   7   9    8.21    3.10
  -4   7  -9    8.69    2.00
   4   7  -9    8.99    1.88
   4   7   9    6.20    1.83
  -4  -7  -9    8.19    3.48
  -4   7  -9    6.01    3.21
   4  -7   9   10.17    3.73
  -4  -7   9    6.29    2.71
  -4   7  10   26.39    3.10
  -4   7 -10   27.35    8.45
   4   7 -10   28.42    7.79
  -4  -7 -10   29.82    3.27
   4  -7  10   27.99    5.52
  -4  -7  10   23.73    8.75
  -4   7  11  170.36    6.59
  -4   7 -11  164.96    6.02
   4   7 -11  170.97    9.75
  -4  -7 -11  165.05    9.24
   4  -7  11  165.68    8.91
  -4  -7  11  170.24   12.51
  -4   7  12   50.83    5.03
  -4   7 -12   52.43    5.06
   4   7 -12   47.18   10.47
  -4  -7 -12   50.94    3.90
   4  -7  12   52.08   15.06
  -4  -7  12   40.05   15.23
  -4   7 -13   10.47    2.50
   4   7 -13    6.06    2.51
  -4  -7 -13    4.90    2.69
   4  -7  13    5.19    1.80
  -4  -7  13    4.20    1.89
  -4   7 -14  157.73   10.12
   4   7 -14  167.77   14.48
  -4  -7 -14  155.53    8.97
   4  -7  14  162.69    9.06
  -4  -7  14  149.06    8.09
   4   7 -15    6.38    1.58
  -4  -7 -15    3.10    1.43
   4  -7  15    2.49    2.95
  -4  -7  15    1.51    2.14
   4   7 -16  115.57    6.24
  -4  -7 -16  112.66    9.89
   4  -7  16  116.34   23.01
  -4  -7  16  109.16    7.14
  -4  -7 -17   38.14    7.84
   4  -7  17   49.30   17.30
  -4  -7  17   40.08   13.89
  -4  -7 -18   24.96    6.62
   4  -7  18   34.34    9.04
  -4  -7  18   24.35    9.41
  -4   8   0   53.32   13.38
   4   8   0   52.19   12.11
  -4  -8   0   49.44    4.13
  -4   8   1  414.57   12.28
  -4   8  -1  396.64   14.41
   4   8   1  391.99   14.77
   4   8  -1  404.71    8.91
  -4  -8   1  380.66   14.05
  -4  -8  -1  404.15    9.31
   4  -8   1  424.47   12.78
  -4   8   2  831.40   24.65
  -4   8  -2  795.16   24.78
   4   8   2  848.60   24.71
   4   8  -2  820.78   23.98
   4  -8  -2  828.47   22.43
  -4  -8   2  871.75   26.65
  -4  -8  -2  770.80   29.03
   4  -8   2  798.28   24.74
  -4   8   3   25.43    8.11
  -4   8  -3   24.62    6.25
   4   8   3   23.42    7.21
   4   8  -3   23.55    8.32
  -4  -8   3   23.72    7.60
   4  -8  -3   22.20    1.52
  -4  -8  -3   25.90    6.40
   4  -8  -3   21.09    1.26
   4  -8   3   27.75    4.27
  -4   8   4  301.85   10.61
  -4   8  -4  296.49   10.92
   4   8   4  293.13    9.96
   4   8  -4  283.29   10.31
  -4  -8   4  282.73   12.02
  -4  -8  -4  284.46   10.34
   4  -8   4  324.62   13.06
  -4  -8   4  282.11   10.22
  -4   8   5   74.36    4.23
  -4   8  -5   87.56    8.25
   4   8   5   86.51    4.94
   4   8  -5   81.60    9.16
  -4  -8   5   93.33   14.10
  -4  -8  -5   80.80    6.10
   4  -8   5   83.61    6.53
  -4  -8   5   91.25    5.94
  -4   8   6   32.55    4.34
  -4   8  -6   37.51    3.05
   4   8   6   44.69    3.27
   4   8  -6   33.86    8.34
  -4  -8   6   41.44   13.37
  -4  -8  -6   32.73    7.90
   4  -8   6   23.68    8.95
  -4  -8   6   41.29    7.02
  -4   8   7   15.36    3.11
  -4   8  -7    9.61    3.27
   4   8   7    7.09    1.83
   4   8  -7   13.18    3.03
  -4  -8   7    7.43    2.39
  -4  -8  -7   14.37    5.61
   4  -8   7   13.34    5.88
  -4  -8   7    6.11    3.27
  -4   8   8  101.62    4.98
  -4   8  -8   93.43    8.30
   4   8  -8   82.02    6.55
   4   8   8   81.44    6.37
  -4  -8   8   90.61   11.23
  -4  -8  -8   83.55    8.28
   4  -8   8   92.94   16.91
  -4  -8   8  104.69    5.65
  -4   8   9  208.64    6.82
  -4   8  -9  189.53    7.07
   4   8  -9  218.08   18.55
   4   8   9  192.60    6.18
  -4  -8  -9  210.39    7.68
   4  -8   9  206.43    9.91
  -4  -8   9  195.75    7.70
  -4   8  10  204.80    7.38
  -4   8 -10  230.21    7.72
   4   8 -10  217.06    8.28
  -4  -8 -10  224.85   19.11
   4  -8  10  215.95   11.95
  -4  -8  10  235.40    8.96
  -4   8  11   45.63    7.46
  -4   8 -11   61.70   10.86
   4   8 -11   55.48   10.11
  -4  -8 -11   54.01   12.75
   4  -8  11   54.25   12.64
  -4  -8  11   64.50   15.04
  -4   8  12    9.56    5.14
  -4   8 -12   12.11    2.86
   4   8 -12   11.84    2.79
  -4  -8 -12   12.53    3.09
   4  -8  12    7.20    5.54
  -4  -8  12   13.94    5.67
  -4   8 -13   32.57    8.26
   4   8 -13   31.14   10.36
  -4  -8 -13   32.24    8.01
   4  -8  13   30.50   15.75
  -4  -8  13   31.46   11.13
  -4   8 -14  208.40   15.70
   4   8 -14  227.41   15.57
  -4  -8 -14  211.36   15.73
   4  -8  14  238.84   11.87
  -4  -8  14  214.05    9.27
   4   8 -15   17.75    5.28
  -4  -8 -15   17.67    4.69
   4  -8  15   10.37    4.26
  -4  -8  15   16.54    6.85
   4   8 -16   26.18    7.19
  -4  -8 -16   22.74    3.78
   4  -8  16   31.93    8.36
  -4  -8  16   22.90   10.78
  -4  -8 -17   17.44    6.28
   4  -8  17   21.50    5.31
  -4  -8  17   18.99    8.40
   4  -8  18   32.99    8.10
  -4  -8  18   19.21    8.80
  -4   9   0   32.96    5.19
   4   9   0   26.17    7.28
  -4  -9   0   27.88    6.97
  -4   9   1  277.51   13.70
  -4   9  -1  237.02   11.82
   4   9   1  242.87   11.89
   4   9  -1  291.77   10.97
  -4  -9   1  246.63   12.51
  -4  -9  -1  293.73   11.22
   4  -9   1  272.84   10.71
  -4   9   2   16.86    5.07
  -4   9  -2   26.34    7.20
   4   9   2   26.19    8.86
   4   9  -2   17.20    4.25
   4  -9  -2   27.43    3.21
  -4  -9   2   25.72    8.71
  -4  -9  -2   17.94    4.99
   4  -9   2   21.47    4.28
  -4   9   3  249.27   11.50
  -4   9  -3  206.97    7.26
   4   9   3  214.17    6.20
   4   9  -3  232.35    6.82
  -4  -9   3  224.76   13.37
   4  -9  -3  212.25    2.96
  -4  -9  -3  229.19    7.04
   4  -9   3  230.87    8.94
  -4   9   4   87.87   11.61
  -4   9  -4   89.86    5.50
   4   9   4   95.66    4.17
   4   9  -4  102.23   11.86
  -4  -9   4   99.31   10.38
  -4  -9  -4   91.80    4.79
   4  -9   4   81.74   10.04
  -4  -9   4   96.46    5.19
  -4   9   5   28.90    4.59
  -4   9  -5   39.16    3.83
   4   9   5   38.16    3.82
   4   9  -5   32.42    4.93
  -4  -9   5   38.44    9.34
  -4  -9  -5   30.92    8.24
  -4  -9   5   40.45    4.18
  -4   9   6  775.26   27.73
  -4   9  -6  798.37   25.55
   4   9   6  792.08   25.10
   4   9  -6  787.66   28.50
  -4  -9   6  837.91   29.27
  -4  -9  -6  778.85   26.53
   4  -9   6  770.28   26.28
  -4  -9   6  811.49   26.80
  -4   9   7   58.21    4.08
  -4   9  -7   52.61   12.01
   4   9   7   57.29    3.48
   4   9  -7   54.94    5.73
  -4  -9   7   55.35   14.51
  -4  -9  -7   49.35    3.99
   4  -9   7   57.09    6.70
  -4  -9   7   57.69   11.51
  -4   9   8   37.03    6.21
  -4   9  -8   35.96    9.81
   4   9   8   37.38    4.83
   4   9  -8   38.34   12.03
  -4  -9   8   32.78   11.51
  -4  -9  -8   37.12    9.44
   4  -9   8   44.86   13.72
  -4  -9   8   43.20    8.92
  -4   9   9   54.55    9.47
  -4   9  -9   64.64    5.12
   4   9  -9   71.39   15.14
   4   9   9   64.87    6.69
  -4  -9   9   74.02    9.89
  -4  -9  -9   62.27    6.43
   4  -9   9   56.06   16.64
  -4  -9   9   70.55    4.81
  -4   9  10  144.54    7.29
  -4   9 -10  122.94    8.19
   4   9 -10  154.68   12.36
  -4  -9 -10  142.90    6.36
   4  -9  10  145.28    7.74
  -4  -9  10  125.03    8.39
  -4   9  11  126.82    5.66
  -4   9 -11  141.20    6.10
   4   9 -11  153.17   15.37
  -4  -9 -11  132.05    8.98
   4  -9  11  122.41   20.43
  -4  -9  11  150.70    7.54
  -4   9  12    1.54    1.02
  -4   9 -12    2.75    2.00
   4   9 -12    0.00    2.09
  -4  -9 -12    3.73    2.22
   4  -9  12    0.47    3.23
  -4  -9  12    0.68    1.77
  -4   9 -13   40.39    5.35
   4   9 -13   37.62    5.14
  -4  -9 -13   36.27    4.35
   4  -9  13   40.02   14.29
  -4  -9  13   37.38   16.63
  -4   9 -14   14.61    4.07
   4   9 -14   15.98    3.50
  -4  -9 -14   16.01    4.25
   4  -9  14   12.40    7.05
  -4  -9  14    9.33    3.93
   4   9 -15   44.07   10.49
  -4  -9 -15   32.26    9.38
   4  -9  15   37.62   10.30
  -4  -9  15   29.59   14.63
   4   9 -16    4.00    2.32
   4  -9  16    5.65    3.64
  -4  -9  16    4.34    2.28
   4  -9  17    3.45    1.92
  -4  -9  17    3.25    2.10
  -4  10   0   54.87    4.11
   4  10   0   51.48    6.11
  -4 -10   0   62.91   10.16
  -4  10   1   77.78    9.29
  -4  10  -1   83.88   12.12
   4  10   1   80.08   12.31
   4  10  -1   76.70   12.46
   4 -10  -1   77.63    4.00
  -4 -10   1   71.03   11.05
  -4 -10  -1   81.81   16.87
  -4  10   2   56.55    8.55
  -4  10  -2   66.85    9.48
   4  10   2   56.84    8.56
   4  10  -2   60.24    7.53
   4 -10  -2   54.80    5.92
  -4 -10   2   53.18    5.41
  -4 -10  -2   57.82    5.61
   4 -10   2   62.24    6.32
  -4  10   3  119.20    8.00
  -4  10  -3  101.74    7.79
   4  10   3  106.65    5.18
   4  10  -3  134.74    9.88
  -4 -10   3  107.84    5.89
  -4 -10  -3  127.33   12.24
   4 -10   3  124.69    8.28
  -4  10   4  127.25   12.26
  -4  10  -4  166.28   18.51
   4  10   4  152.77    5.48
   4  10  -4  148.84   14.85
  -4 -10   4  159.31   16.50
  -4 -10  -4  131.24    8.18
   4 -10   4  141.12   17.19
  -4  10   5  221.98   11.16
  -4  10  -5  189.42    7.19
   4  10   5  207.65    7.09
   4  10  -5  234.19    8.57
  -4 -10   5  198.26    8.01
  -4 -10  -5  233.95    8.39
   4 -10   5  235.84    9.93
  -4 -10   5  198.46    8.24
  -4  10   6   16.70    5.18
  -4  10  -6   15.82    3.89
   4  10   6   15.12    5.11
   4  10  -6   15.14    2.55
  -4 -10   6   14.73    4.93
  -4 -10  -6   14.31    4.32
   4 -10   6   15.81    6.60
  -4 -10   6   13.62    5.34
  -4  10   7  175.94    7.13
  -4  10  -7  172.61    6.98
   4  10   7  158.19    9.92
   4  10  -7  182.35    7.28
  -4 -10   7  192.51   19.17
  -4 -10  -7  167.02    7.09
   4 -10   7  168.88   13.88
  -4 -10   7  181.50    8.27
  -4  10   8  239.46    7.78
  -4  10  -8  216.85    8.36
   4  10   8  222.61    8.12
   4  10  -8  262.57    8.36
  -4 -10   8  222.29    8.59
  -4 -10  -8  245.23    7.69
   4 -10   8  242.16   19.37
  -4 -10   8  222.39    8.95
  -4  10   9  116.24    5.53
  -4  10  -9  140.73   16.74
   4  10  -9  128.48   12.46
   4  10   9  134.83    5.03
  -4 -10   9  130.13   19.95
  -4 -10  -9  111.64    7.48
   4 -10   9  118.74   19.94
  -4 -10   9  134.11    6.41
  -4  10 -10   90.18    7.28
   4  10 -10   74.93    7.93
  -4 -10  10   92.26   13.29
  -4 -10 -10   85.62    7.94
   4 -10  10   80.34    7.12
  -4 -10  10   92.96    5.62
  -4  10  11   54.91    5.40
  -4  10 -11   53.94    4.87
   4  10 -11   62.77    7.16
  -4 -10 -11   60.88    4.27
   4 -10  11   56.40   17.04
  -4 -10  11   56.29    5.86
  -4  10 -12   32.54    2.79
   4  10 -12   30.59    6.33
  -4 -10 -12   24.15   10.26
   4 -10  12   23.44   11.40
  -4 -10  12   26.63    9.01
  -4  10 -13    3.09    2.36
   4  10 -13    0.34    2.34
  -4 -10 -13    0.58    0.69
   4 -10  13    0.01    1.79
  -4 -10  13   -0.42    1.93
  -4  10 -14   23.11    4.69
   4  10 -14   19.84    5.22
   4 -10  14   17.81    5.09
  -4 -10  14   15.38    8.53
   4  10 -15    7.17    2.34
   4 -10  15    1.83    1.93
  -4 -10  15    7.26    4.71
   4  10 -16    7.84    2.76
   4 -10  16    8.20    4.02
  -4 -10  16    4.43    2.90
   4  10 -17    9.40    4.22
  -4  11   0  419.04   12.38
   4  11   0  438.62   12.31
  -4 -11   0  436.41   22.63
  -4  11   1   42.97   10.40
  -4  11  -1   45.62    5.77
   4  11   1   46.95   12.23
   4  11  -1   44.98    9.66
   4 -11  -1   46.97    3.62
  -4 -11   1   44.99   11.17
  -4 -11  -1   47.71   14.16
  -4  11   2   44.25   11.78
  -4  11  -2   42.54    4.60
   4  11   2   45.29    7.23
   4  11  -2   41.57   10.06
  -4 -11   2   46.57   11.65
  -4 -11  -2   41.23   12.78
   4 -11   2   39.39   10.58
  -4  11   3  394.72   12.92
  -4  11  -3  420.75   13.61
   4  11   3  417.80   12.54
   4  11  -3  419.85   12.09
  -4 -11   3  407.41   22.38
  -4 -11  -3  413.79   12.02
   4 -11   3  385.78   21.82
  -4  11   4  266.55   10.23
  -4  11  -4  254.08    8.80
   4  11   4  266.88    8.94
   4  11  -4  269.22    9.34
  -4 -11   4  275.30    9.72
  -4 -11  -4  279.11    9.94
   4 -11   4  265.32   17.14
  -4  11   5   24.69    9.77
  -4  11  -5   35.18    7.24
   4  11   5   39.26    5.04
   4  11  -5   26.89    7.03
  -4 -11   5   37.47    9.78
  -4 -11  -5   26.43    3.50
   4 -11   5   33.01    7.15
  -4  11   6  188.03    7.43
  -4  11  -6  190.94    7.41
   4  11   6  191.77   12.40
   4  11  -6  200.97   17.48
  -4 -11   6  199.68   14.53
  -4 -11  -6  182.98    7.31
   4 -11   6  179.64    8.22
  -4 -11   6  202.84    8.23
  -4  11   7  103.33    4.99
  -4  11  -7  101.58   13.33
   4  11   7   91.83    8.28
   4  11  -7  113.41    8.15
  -4 -11   7   90.95   18.49
  -4 -11  -7  104.38   10.19
   4 -11   7  107.43   11.05
  -4 -11   7   90.61    6.70
  -4  11   8   22.11    7.48
  -4  11  -8   28.31    8.63
   4  11   8   22.47    6.59
   4  11  -8   21.02   10.24
  -4 -11   8   24.26    5.49
  -4 -11  -8   22.51    6.27
   4 -11   8   18.39    4.05
  -4 -11   8   25.26   11.59
  -4  11   9  314.50    9.78
  -4  11  -9  317.41    9.58
   4  11   9  303.59    9.46
   4  11  -9  344.05   11.61
  -4 -11   9  305.05   18.95
  -4 -11  -9  324.94   15.59
   4 -11   9  320.35   18.86
  -4 -11   9  328.63   10.24
  -4  11  10   22.24    6.94
  -4  11 -10   35.03    5.01
   4  11 -10   25.69    5.32
  -4 -11  10   32.20    8.39
  -4 -11 -10   24.18    5.09
   4 -11  10   26.43    9.27
  -4 -11  10   33.94   10.07
  -4  11  11   22.21    6.92
  -4  11 -11   21.29    5.73
   4  11 -11   24.02    5.51
  -4 -11  11   23.64    5.56
  -4 -11 -11   19.77    7.21
   4 -11  11   25.56   11.97
  -4 -11  11   22.20    7.03
  -4  11 -12  136.55   15.44
   4  11 -12  125.24    9.70
  -4 -11  12   97.42   24.65
  -4 -11 -12  102.71   19.70
   4 -11  12  109.19   25.33
  -4 -11  12  146.92    8.47
  -4  11 -13    4.18    2.53
   4  11 -13   12.45    3.17
   4 -11  13    7.35    4.04
  -4 -11  13    2.75    2.89
  -4  11 -14    2.25    1.74
   4  11 -14    3.17    1.21
   4 -11  14    2.68    2.01
  -4 -11  14    2.88    1.55
   4  11 -15   23.34    7.72
   4 -11  15   26.54    7.74
  -4 -11  15   15.69    9.46
   4  11 -16   40.77    9.68
   4 -11  16   47.23   17.16
  -4 -11  16   39.47   21.98
  -4  12   0   21.53    4.13
   4  12   0   22.80    5.39
   4 -12   0   20.38    5.51
  -4 -12   0   24.60    8.25
  -4  12   1  194.50    7.41
  -4  12  -1  187.94    7.41
   4  12   1  183.98   11.81
   4  12  -1  191.79   11.53
  -4 -12   1  179.65   14.71
  -4 -12  -1  190.47   13.16
  -4  12   2    1.96    0.79
  -4  12  -2   -2.33    2.40
   4  12   2    0.29    1.20
   4  12  -2    3.25    1.83
  -4 -12   2    0.98    1.75
  -4 -12  -2    1.39    1.48
  -4  12   3   34.17   11.82
  -4  12  -3   32.46   11.37
   4  12  -3   37.10    9.35
  -4 -12   3   37.44    8.98
  -4 -12  -3   38.73    4.14
   4 -12   3   34.51    8.75
  -4  12   4   35.24   10.72
  -4  12  -4   33.63    4.34
   4  12   4   29.65    9.24
   4  12  -4   42.76   12.66
  -4 -12   4   38.35    9.31
  -4 -12  -4   45.41    8.03
   4 -12   4   40.78   12.10
  -4  12   5   22.52    7.08
  -4  12  -5   24.84    6.93
   4  12   5   22.13    7.41
   4  12  -5   21.58    5.72
  -4 -12   5   30.91    8.87
  -4 -12  -5   22.22    3.66
   4 -12   5   23.68    4.35
  -4  12   6    0.75    0.97
  -4  12  -6    6.01    3.19
   4  12   6    6.83    1.49
   4  12  -6    0.16    1.86
  -4 -12   6    6.98    3.17
  -4 -12  -6   -0.13    1.97
   4 -12   6    6.26    3.77
  -4  12   7    2.09    1.88
  -4  12  -7    3.44    0.97
   4  12   7    3.20    1.44
   4  12  -7    4.03    1.85
  -4 -12   7    4.75    1.82
  -4 -12  -7    3.96    0.94
   4 -12   7    5.17    4.00
  -4 -12   7    7.18    3.75
  -4  12   8    2.53    1.30
  -4  12  -8    3.88    2.04
   4  12   8    1.61    1.28
   4  12  -8    1.54    2.63
  -4 -12   8    4.59    1.59
  -4 -12  -8    1.68    1.10
   4 -12   8    5.13    4.82
  -4 -12   8    3.25    3.94
  -4  12   9   16.65    4.81
  -4  12  -9   17.53    4.79
   4  12  -9   18.64    4.36
  -4 -12   9   25.04    4.42
  -4 -12  -9   13.06    4.05
   4 -12   9   18.07    8.85
  -4 -12   9   17.57    7.45
  -4  12  10   25.91    7.84
  -4  12 -10   27.57    7.30
   4  12 -10   26.58    6.60
  -4 -12  10   28.66    4.99
  -4 -12 -10   22.38    6.60
   4 -12  10   23.21    7.72
  -4 -12  10   21.89   10.27
  -4  12  11   67.80    9.90
  -4  12 -11   62.10   12.71
   4  12 -11   73.48   17.16
  -4 -12  11   72.12    7.54
   4 -12  11   76.87   24.29
  -4 -12  11   78.68    6.61
  -4  12 -12    2.00    1.49
   4  12 -12    4.78    2.05
  -4 -12  12    3.22    2.15
   4 -12  12    3.93    4.14
  -4 -12  12    1.28    2.30
  -4  12 -13  102.99    9.23
   4  12 -13  107.23   18.44
  -4 -12  13   99.31   31.71
   4 -12  13  108.50   14.81
  -4 -12  13   94.63   19.74
  -4  12 -14    4.24    1.48
   4  12 -14    8.66    1.81
  -4 -12  14   10.25    4.30
   4 -12  14    5.92    4.43
  -4 -12  14    3.61    3.71
  -4  12 -15   20.76    5.93
   4  12 -15   19.48    4.73
  -4 -12  15   22.22    6.85
   4 -12  15   19.22    8.55
  -4 -12  15   22.70    8.13
  -4  13   0  117.60    8.18
   4  13   0  127.53   16.80
  -4 -13   0  120.84    8.64
  -4  13   1   26.22    5.54
  -4  13  -1   24.23    7.64
   4  13   1   21.24    6.43
   4  13  -1   27.19    6.92
   4 -13   1   23.54    7.21
  -4 -13   1   27.47    7.78
  -4 -13  -1   10.46    4.74
  -4  13   2   58.81   14.50
  -4  13  -2   59.68   18.15
   4  13   2   57.07   15.56
   4  13  -2   59.17   16.15
  -4 -13   2   64.75   15.80
  -4 -13  -2   59.36    6.31
  -4  13   3   33.30   11.10
  -4  13  -3   32.13    8.65
   4  13   3   37.60   10.53
   4  13  -3   39.15    7.84
  -4 -13   3   46.19   12.00
  -4 -13  -3   41.81    9.11
  -4  13   4  130.58    7.19
  -4  13  -4  130.05   18.59
   4  13   4  133.01   11.06
   4  13  -4  143.19    7.68
  -4 -13   4  137.02   18.44
  -4 -13  -4  140.34   11.88
   4 -13   4  122.23    7.55
  -4  13   5   37.54   11.40
  -4  13  -5   45.32   10.70
   4  13   5   45.50   12.39
   4  13  -5   43.59    9.10
  -4 -13   5   50.96   11.08
  -4 -13  -5   39.16    4.32
   4 -13   5   36.70   14.09
  -4  13   6   29.93    7.70
  -4  13  -6   32.88    8.30
   4  13   6   26.28    9.87
   4  13  -6   32.73    8.13
  -4 -13   6   29.28    5.13
  -4 -13  -6   27.48    6.62
   4 -13   6   36.92    8.77
  -4  13   7   95.53    5.85
  -4  13  -7   90.74   18.79
   4  13   7   96.02    5.25
   4  13  -7  103.36   11.65
  -4 -13   7  102.38    8.19
  -4 -13  -7   93.94    9.22
   4 -13   7   88.79   31.21
  -4  13   8    8.50    3.26
  -4  13  -8   11.44    2.27
   4  13   8    6.70    2.36
   4  13  -8   15.54    3.37
  -4 -13   8    9.19    4.74
  -4 -13  -8    9.10    3.01
   4 -13   8    7.60    7.90
  -4 -13   8    8.31    5.15
  -4  13   9   60.05    9.77
  -4  13  -9   68.63   14.46
   4  13  -9   71.57    8.66
  -4 -13   9   71.36   23.75
   4 -13   9   63.07   26.23
  -4 -13   9   61.83   21.73
  -4  13  10   11.08    4.76
  -4  13 -10   14.68    4.61
   4  13 -10   16.28    4.62
  -4 -13  10   21.38    6.98
   4 -13  10   18.08    6.13
  -4 -13  10   14.32    5.46
  -4  13 -11    1.03    1.09
   4  13 -11    1.28    2.38
  -4 -13  11    1.05    1.20
   4 -13  11    2.90    2.76
  -4 -13  11    0.78    3.67
  -4  13 -12   43.25    6.33
   4  13 -12   60.49    7.13
  -4 -13  12   48.19   13.65
   4 -13  12   49.73   13.32
  -4 -13  12   59.10   10.71
  -4  13 -13   34.55   12.32
   4  13 -13   35.40    9.94
  -4 -13  13   32.60   14.04
   4 -13  13   45.90   12.76
  -4 -13  13   29.57   13.55
  -4  13 -14    1.14    1.19
   4  13 -14    3.80    1.75
  -4 -13  14    1.23    1.87
  -4  14   0   43.94    4.60
   4  14   0   49.66   17.80
  -4 -14   0   44.99   12.64
  -4  14   1   18.98    6.25
  -4  14  -1   27.53    6.71
   4  14   1   24.61    8.43
   4  14  -1   25.82    6.40
  -4 -14   1   26.24    3.75
  -4 -14  -1   26.11    5.51
  -4  14   2   15.55    4.51
  -4  14  -2   15.84    5.19
   4  14   2   10.86    3.07
   4  14  -2   16.86    4.53
  -4 -14   2   13.17    1.98
  -4 -14  -2   19.18    4.64
  -4  14   3    7.91    4.01
  -4  14  -3    5.01    2.42
   4  14   3    7.58    1.90
   4  14  -3    5.97    3.03
  -4 -14   3    6.83    2.52
  -4 -14  -3    9.94    2.71
  -4  14   4    8.86    3.07
  -4  14  -4    3.75    2.80
   4  14   4    6.82    3.23
   4  14  -4    7.38    4.99
  -4 -14   4    7.01    3.02
  -4 -14  -4    5.53    2.71
  -4  14   5   75.02    6.42
  -4  14  -5   70.47    9.64
   4  14   5   68.62   10.60
   4  14  -5   83.48   11.75
  -4 -14   5   71.00   19.91
  -4 -14  -5   65.90   16.90
   4 -14   5   74.37   16.06
  -4  14   6    5.37    2.40
  -4  14  -6    9.34    1.76
   4  14   6    5.12    2.20
   4  14  -6    4.95    1.77
  -4 -14   6   14.03    3.63
  -4 -14  -6    8.36    4.18
   4 -14   6   10.03    4.86
  -4  14   7   66.50   14.16
  -4  14  -7   78.10   20.47
   4  14   7   90.65   11.98
   4  14  -7   91.23   11.79
  -4 -14   7  106.46    8.65
  -4 -14  -7   61.26   15.00
   4 -14   7   76.88   26.74
  -4  14   8   12.35    4.52
  -4  14  -8    8.57    3.06
   4  14   8    4.84    2.17
   4  14  -8   11.20    3.14
  -4 -14   8    7.21    4.25
   4 -14   8   12.55    6.23
  -4  14   9   21.32    9.60
  -4  14  -9   26.86    7.43
   4  14  -9   34.68    8.44
  -4 -14   9   21.65    4.70
   4 -14   9   30.05    8.87
  -4 -14   9   25.93   11.66
  -4  14  10    7.79    2.97
  -4  14 -10   10.29    3.61
   4  14 -10    4.62    1.49
  -4 -14  10    7.75    3.39
   4 -14  10    5.77    5.44
  -4 -14  10   12.66    7.04
  -4  14 -11   21.49    7.82
   4  14 -11   22.61    5.34
  -4 -14  11   26.86    7.13
   4 -14  11   20.92    5.35
  -4 -14  11   17.41    8.89
  -4  14 -12    9.79    3.99
   4  14 -12    7.56    3.23
  -4 -14  12   16.19    4.84
   4 -14  12    7.28    5.60
  -4 -14  12    5.90    3.17
  -4  15   0    1.24    2.66
   4  15   0    5.11    3.37
  -4 -15   0    4.55    2.94
  -4  15   1   77.19   25.77
  -4  15  -1   64.14   16.43
   4  15   1   74.51   17.29
   4  15  -1   70.93   21.79
  -4 -15   1   79.48   14.16
  -4 -15  -1   78.76   17.97
  -4  15   2   24.30    5.77
  -4  15  -2   29.65    4.39
   4  15   2   20.64    5.09
   4  15  -2   15.95    4.52
  -4 -15   2   22.29    6.69
  -4 -15  -2   18.88    6.11
  -4  15   3   53.34   13.47
  -4  15  -3   55.21    9.97
   4  15   3   49.88   14.84
   4  15  -3   60.92   10.25
  -4 -15   3   50.07   12.42
  -4 -15  -3   47.25   11.88
  -4  15   4    3.95    2.34
  -4  15  -4    4.78    2.39
   4  15   4    5.22    2.53
   4  15  -4    5.26    2.60
  -4 -15   4    2.89    2.85
  -4 -15  -4    2.75    1.44
  -4  15   5   19.87    6.15
  -4  15  -5   15.18    3.88
   4  15   5   21.43    4.94
   4  15  -5   24.04    7.29
  -4 -15   5   20.93    6.88
  -4 -15  -5   14.09    4.17
  -4  15   6   55.80   15.90
  -4  15  -6   49.91   13.97
   4  15   6   47.54   17.37
   4  15  -6   57.61   16.55
  -4 -15   6   52.49    9.24
   4 -15   6   63.45   12.21
  -4  15   7    2.42    1.79
  -4  15  -7    3.98    1.78
   4  15   7    3.50    3.20
   4  15  -7    1.24    1.72
  -4 -15   7   -0.22    3.66
   4 -15   7    1.24    4.86
  -4  15   8    7.77    3.95
  -4  15  -8    5.41    2.66
   4  15  -8   13.33    3.30
  -4 -15   8    7.21    5.77
   4 -15   8   10.75    5.93
  -4  15   9   13.80    4.40
  -4  15  -9   11.97    3.90
   4  15  -9    5.74    2.77
  -4 -15   9   13.09    2.31
   4 -15   9    9.29    6.58
  -4  15  10   16.35    5.14
  -4  15 -10   22.58    4.90
   4  15 -10   17.61    4.87
  -4 -15  10   19.54    4.56
   4 -15  10   10.31    4.04
  -4 -15  10   13.59    5.71
  -4 -15  11    5.90    3.66
  -4  16   0   17.66    6.82
   4  16   0   20.90    5.45
  -4 -16   0   22.02    6.37
  -4  16   1   46.05   11.57
  -4  16  -1   41.01   12.09
   4  16   1   34.45    9.79
   4  16  -1   48.13   16.95
  -4 -16   1   39.98   10.32
  -4 -16  -1   44.82    8.61
  -4  16   2   42.71    7.58
  -4  16  -2   32.42    7.94
   4  16   2   32.16    8.42
   4  16  -2   38.68    9.54
  -4 -16   2   30.20    6.22
  -4 -16  -2   33.34    5.00
  -4  16   3    0.98    1.39
  -4  16  -3    4.90    3.71
   4  16   3    4.99    2.29
   4  16  -3    2.03    1.84
  -4 -16   3    2.38    1.89
  -4 -16  -3    3.52    2.63
  -4  16   4    4.18    0.86
  -4  16  -4    0.56    2.37
   4  16   4    2.18    1.30
   4  16  -4    1.72    1.17
  -4 -16   4    2.39    1.95
  -4  16   5   16.58    5.50
  -4  16  -5   20.22    7.38
   4  16   5   17.47    6.98
   4  16  -5   20.77    6.13
  -4 -16   5   19.28    5.21
  -4  16   6    4.65    2.60
  -4  16  -6    7.84    2.63
   4  16   6    7.39    3.14
   4  16  -6    8.70    2.58
  -4 -16   6   17.54    4.44
  -4  16   7    5.78    2.11
  -4  16  -7    3.88    2.17
   4  16   7    3.04    1.81
   4  16  -7    4.79    1.72
  -4 -16   7    3.42    1.97
   4 -16   7    4.26    2.16
  -4  16   8    4.86    3.87
  -4  16  -8    6.32    2.11
   4  16  -8    6.84    3.33
  -4 -16   8    5.17    2.20
   4 -16   8    3.53    4.28
  -4  17   0   24.68    6.04
   4  17   0   19.14    6.57
  -4 -17   0   28.80    4.92
  -4  17   1    7.05    3.67
  -4  17  -1    6.80    2.27
   4  17  -1   12.09    4.20
   4  17   1   10.63    2.79
  -4 -17   1    7.50    2.22
  -4  17   2    4.29    2.63
  -4  17  -2    2.55    1.30
   4  17   2    4.99    2.36
   4  17  -2    5.59    2.07
  -4 -17   2    6.35    2.33
  -4  17   3    4.66    2.74
  -4  17  -3    6.13    3.28
   4  17   3    3.96    3.15
   4  17  -3    5.30    3.45
  -4 -17   3    6.76    3.99
  -4  17   4    8.39    3.62
  -4  17  -4   10.07    3.67
   4  17   4    9.17    5.17
   4  17  -4    8.75    4.43
  -4 -17   4    9.78    4.40
  -4  17   5   58.77   21.52
  -4  17  -5   64.57   18.85
   4  17   5   53.21   17.98
   4  17  -5   65.95   19.37
  -4 -17   5   61.44   17.53
   5   0   0   -0.85    1.45
  -5   0   0    0.90    1.67
   5   0   0    0.12    0.34
   5   0  -1   55.02    3.92
   5   0   1   60.20    6.38
  -5   0   1   69.75    4.72
  -5   0  -1   55.55    4.06
   5   0   1   56.60    3.74
   5   0  -2    1.83    1.97
   5   0   2    1.73    1.41
  -5   0   2    4.72    2.64
  -5   0  -2    3.07    2.12
   5   0   2    1.90    1.13
  -5   0  -3  117.61    7.10
   5   0  -3  117.53    8.47
  -5   0   3  124.24    7.79
  -5   0  -3  117.82    7.44
   5   0   3  120.88    8.06
  -5   0  -4  261.83    7.83
   5   0  -4  254.61    7.95
  -5   0   4  261.03    7.90
  -5   0  -4  266.12    8.42
   5   0   4  254.76    7.65
  -5   0  -5  665.03   14.90
   5   0  -5  680.37   15.84
  -5   0   5  700.57   16.18
  -5   0  -5  757.20   18.03
   5   0   5  710.84   17.21
  -5   0  -6  116.27    6.92
   5   0  -6  117.30    9.34
  -5   0   6  118.19    7.36
  -5   0  -6  112.86    7.45
   5   0   6  118.88    7.52
  -5   0  -7  509.70   11.62
   5   0  -7  484.79   11.98
  -5   0   7  500.12   12.17
  -5   0  -7  505.31   13.29
   5   0   7  501.49   14.82
  -5   0  -8 1344.38   28.17
   5   0  -8 1318.54   28.57
  -5   0  -8 1300.75   29.27
   5   0   8 1331.59   30.00
  -5   0  -9  631.78   17.53
   5   0  -9  628.48   19.09
  -5   0  -9  615.52   18.91
   5   0   9  657.10   20.54
  -5   0 -10  264.26    7.11
   5   0 -10  264.21    8.21
  -5   0 -10  261.47    9.18
   5   0  10  275.71   10.18
  -5   0 -11   77.10    4.04
   5   0 -11   88.62   11.03
  -5   0 -11   98.38    9.62
   5   0  11   79.86    5.24
   5   0 -12   -0.16    1.78
  -5   0 -12    1.82    1.35
  -5   0  12    1.80    0.99
   5   0  12   -1.05    2.68
   5   0 -13    0.28    0.75
  -5   0 -13   -1.22    1.91
  -5   0  13    0.15    1.10
   5   0  13   -1.66    2.61
   5   0 -14   14.20    2.68
  -5   0 -14   11.43    2.72
  -5   0  14    9.14    4.43
   5   0  14    6.17    2.78
   5   0 -15    7.87    1.83
  -5   0 -15   12.55    3.04
  -5   0  15    8.50    3.16
   5   0  15   10.27    4.56
  -5   0 -16   34.62   11.96
  -5   0  16   39.78    5.85
   5   0  16   31.52    8.64
  -5   0 -17  102.18   11.71
  -5   0  17   94.54   11.23
   5   0  17  103.49    7.88
  -5   0 -18   10.59    3.13
  -5   0  18    6.99    4.02
   5   0  18   12.53    7.57
  -5   0 -19    4.68    2.13
  -5   0  19   13.64    4.42
   5   0  19   11.53    5.88
  -5   0 -20   25.99    9.26
  -5   0  20   25.61    5.50
   5   0  20   37.34    9.58
  -5   1   0  738.51   10.96
   5   1   0  735.92   10.82
  -5  -1   0  739.94   11.17
  -5   1   0  738.16   10.42
   5   1   0  734.53    8.27
   5  -1   0  722.16    9.46
  -5   1  -1  151.95    9.13
   5   1  -1  165.59   10.19
   5   1   1  157.08    9.20
  -5  -1   1  157.56    9.51
  -5   1   1  175.98    6.95
  -5  -1  -1  174.00    6.22
  -5   1  -1  162.63    9.56
  -5   1   1  181.61    5.03
   5  -1   1  168.64    4.97
  -5   1  -2  612.34    9.60
   5   1  -2  564.06   15.13
   5   1   2  619.87    9.40
   5  -1  -2  613.11    9.57
  -5  -1   2  614.86    9.74
  -5   1   2  551.95   14.40
  -5  -1  -2  558.23   15.16
  -5   1  -2  613.80    9.55
   5  -1   2  546.99   14.12
  -5   1   2  601.32   32.33
  -5   1  -3  407.40   11.21
   5   1  -3  427.10   12.10
   5   1   3  428.27   11.56
   5  -1  -3  423.71   11.89
  -5  -1   3  432.97   12.30
  -5   1   3  434.18   11.86
  -5  -1  -3  422.39   12.00
  -5   1  -3  460.37   12.82
   5  -1   3  416.35   11.40
  -5  -1   3  416.52   10.01
  -5   1  -4  859.80   11.87
   5   1  -4  909.67   13.02
   5   1   4  885.94   13.10
   5  -1  -4  865.82   12.78
  -5  -1   4  878.62   13.52
  -5   1   4  930.29   12.23
  -5  -1  -4  935.10   13.90
  -5   1  -4  897.02   13.20
   5  -1   4  932.02   13.54
  -5  -1   4  868.89    9.87
  -5  -1  -5  403.89   12.56
  -5   1  -5  438.56   16.76
   5   1  -5  412.71   13.03
   5  -1  -5  421.48   13.23
  -5  -1   5  430.92   13.54
  -5   1   5  406.61   12.82
  -5  -1  -5  405.26   13.26
  -5   1  -5  439.67   14.15
  -5  -1   5  426.23   12.45
   5  -1   5  415.53   13.26
  -5  -1  -6  447.17   13.29
  -5   1  -6  463.20   13.96
   5   1  -6  452.08   14.18
   5  -1  -6  446.35   15.08
  -5  -1   6  464.15   14.58
  -5   1   6  454.27   13.82
  -5  -1  -6  440.93   14.37
  -5   1  -6  454.09   14.63
  -5  -1   6  450.03   13.78
   5  -1   6  440.70   14.12
  -5  -1  -7  307.73   10.18
  -5   1  -7  328.95   11.26
   5   1  -7  309.18   11.18
   5  -1  -7  290.27   10.39
  -5  -1   7  289.16   12.79
  -5   1   7  317.11   10.88
  -5  -1  -7  296.53   13.46
  -5   1  -7  335.53   12.41
  -5  -1   7  287.95    9.79
   5  -1   7  306.59   11.23
  -5  -1  -8 1089.84   22.81
  -5   1  -8 1201.48   25.35
   5   1  -8 1109.02   24.63
   5  -1  -8 1178.19   26.24
  -5   1   8 1107.01   24.22
  -5  -1  -8 1086.29   24.97
  -5   1  -8 1162.77   27.14
  -5  -1   8 1137.07   25.60
   5  -1   8 1077.56   26.69
  -5  -1  -9   19.25    1.45
   5   1  -9   18.30    5.10
   5  -1  -9   12.18    3.31
  -5  -1  -9   17.34    2.69
  -5  -1   9    9.64    2.76
   5  -1   9   17.20    4.11
  -5  -1 -10  205.51    3.98
  -5   1 -10  204.36    3.82
   5   1 -10  208.32    5.86
   5  -1 -10  204.95    5.61
  -5  -1 -10  201.48   11.46
  -5   1 -10  216.46    8.98
  -5  -1  10  206.42    5.81
   5  -1  10  211.82    7.19
  -5   1 -11  156.51    5.28
   5   1 -11  167.01    5.80
   5  -1 -11  170.81   10.84
  -5  -1 -11  162.85    6.25
  -5   1 -11  149.96    6.14
  -5  -1  11  164.02    5.67
   5  -1  11  174.05   16.34
   5   1 -12  384.93   10.40
  -5  -1 -12  392.65   11.63
  -5   1 -12  373.45   11.40
   5  -1  12  389.69   12.26
  -5   1  13  207.20    7.03
   5   1 -13  197.31    7.83
  -5  -1 -13  189.69    7.61
  -5   1 -13  184.87   12.62
   5   1  13  200.77    9.41
  -5  -1  13  203.33    7.06
   5  -1  13  199.92    8.58
  -5   1  14  103.59    4.93
   5   1 -14  101.83    7.53
  -5  -1 -14  100.60    6.94
  -5   1 -14  120.30   10.40
   5   1  14  117.98   18.53
  -5  -1  14  110.80    5.65
   5  -1  14  108.04   13.68
   5   1 -15   52.84    5.58
  -5  -1 -15   50.92   12.67
  -5   1 -15   47.88   10.69
   5   1  15   51.12   15.62
  -5  -1  15   50.61    6.68
   5  -1  15   58.06    5.72
  -5  -1 -16   79.64    9.52
  -5   1 -16   71.50    8.13
  -5   1  16   84.40    5.61
   5   1  16   65.83   19.09
   5  -1  16   81.56   12.83
  -5  -1  16   63.70    5.17
  -5  -1 -17   24.19    4.92
  -5   1 -17   33.00    7.98
  -5   1  17   23.73    7.39
   5   1  17   26.26    8.30
   5  -1  17   29.30   11.17
  -5  -1  17   30.42    8.14
  -5  -1 -18   45.85   13.25
  -5   1 -18   44.54    6.87
  -5   1  18   44.31   17.40
   5   1  18   46.21   12.92
   5  -1  18   52.81   14.63
  -5  -1  18   38.57   14.81
  -5  -1 -19    4.84    2.43
  -5   1 -19    3.35    2.64
  -5   1  19    5.37    2.24
   5   1  19    8.73    3.79
   5  -1  19    7.52    5.38
  -5  -1  19    3.47    1.86
  -5  -1 -20   24.97    7.17
  -5   1 -20   30.32    7.72
  -5   1  20   25.04    8.11
   5   1  20   25.49    8.45
   5  -1  20   31.78    7.72
  -5  -1  20   21.32   12.04
  -5   2   0  350.40   10.24
   5   2   0  327.24    9.48
  -5  -2   0  333.60   10.01
  -5   2   0  328.03    9.39
   5  -2   0  330.23    9.03
  -5   2   1  468.65   14.38
  -5   2  -1  470.30   14.53
   5   2  -1  474.13   13.73
   5   2   1  481.73   13.13
  -5  -2   1  483.45   13.57
  -5  -2  -1  489.50   14.85
  -5   2   1  476.25   12.41
  -5   2  -1  484.70   13.00
   5  -2   1  465.58   12.51
   5   2  -1  455.61   11.20
   5  -2  -1  475.07   12.29
  -5   2   2 1334.55   17.31
   5   2  -2 1327.23   17.12
   5   2   2 1366.31   16.98
  -5  -2   2 1409.19   19.04
  -5   2   2 1320.14   15.63
  -5  -2  -2 1340.58   17.86
  -5   2   3   35.83    6.11
  -5   2  -3   61.42    5.32
   5   2  -3   33.66    3.04
   5   2   3   43.07    3.25
  -5  -2   3   42.88    3.49
  -5   2   3   37.48    2.64
  -5  -2  -3   35.18    3.47
   5  -2   3   30.16    5.76
  -5  -2   3   41.97    2.63
  -5   2   4  468.15   16.52
  -5   2  -4  472.56   15.24
   5   2  -4  477.01   14.85
   5   2   4  504.36   15.01
  -5  -2   4  472.07   14.65
  -5   2   4  483.96   14.30
  -5  -2  -4  491.08   15.58
  -5   2  -4  483.53   14.91
   5  -2   4  485.36   15.17
  -5  -2   4  494.88   14.29
  -5   2   5  751.06   17.41
  -5   2  -5  788.98   17.96
   5   2  -5  764.47   18.49
   5   2   5  776.97   17.93
  -5  -2   5  778.89   18.41
  -5   2   5  754.77   16.62
  -5  -2  -5  779.42   18.75
  -5   2  -5  772.65   19.61
   5  -2   5  738.71   17.25
  -5  -2   5  794.12   17.44
  -5   2   6  123.54    3.99
  -5   2  -6  141.52    5.39
   5   2  -6  119.02    7.51
   5   2   6  115.99    6.82
  -5  -2   6  104.53    7.41
  -5   2   6  121.14    7.19
  -5  -2  -6  125.64    5.04
  -5   2  -6  131.29    7.82
   5  -2   6  123.16    4.69
  -5  -2   6  109.28    6.81
  -5  -2  -7  204.19    7.09
  -5   2   7  205.16    7.97
   5   2  -7  205.38    8.13
  -5  -2   7  213.86    8.66
  -5   2   7  209.55    7.49
  -5  -2  -7  210.18    9.78
  -5   2  -7  219.25    8.83
   5  -2   7  205.68    9.33
  -5  -2   7  209.24    7.72
  -5   2   8  154.55    8.02
  -5  -2  -8  141.83    3.00
   5   2  -8  146.15    7.75
  -5   2   8  143.79    7.56
  -5  -2  -8  144.07    7.47
  -5   2  -8  162.55    7.26
   5  -2   8  147.45    6.90
  -5  -2   8  160.19    6.39
  -5   2   9   18.12    5.92
  -5  -2  -9   21.86    2.96
  -5   2  -9   25.97    2.86
   5   2  -9   23.17    6.14
  -5  -2  -9   19.86    7.03
  -5   2  -9   20.39   10.30
   5  -2   9   16.73    5.59
  -5  -2   9   22.03    3.65
  -5   2  10  115.33    6.31
  -5  -2 -10  102.15    1.92
   5   2 -10  109.82    8.89
  -5  -2 -10  100.26    6.35
  -5   2 -10  123.88    7.87
   5  -2  10   99.67    7.44
  -5  -2  10   99.46    7.69
  -5   2  11  198.25    5.90
  -5   2 -11  223.41    7.90
   5   2 -11  182.80    5.88
  -5  -2 -11  170.85    7.88
  -5   2 -11  226.37   20.82
   5  -2  11  197.11    9.47
  -5  -2  11  216.00   10.01
  -5   2  12   48.91    6.51
  -5   2 -12   63.24    2.56
   5   2 -12   53.04   12.39
  -5  -2 -12   47.20    5.63
  -5   2 -12   74.51    4.96
   5  -2  12   52.36   14.19
  -5  -2  12   56.34    5.70
  -5   2  13  195.92    7.16
   5   2 -13  191.61   14.20
  -5  -2 -13  180.75   12.34
  -5   2 -13  176.23    7.36
   5  -2  13  196.23    8.13
  -5  -2  13  174.94    6.96
  -5   2  14  146.71    8.16
   5   2 -14  145.29    7.02
  -5  -2 -14  139.61   11.22
  -5   2 -14  142.04   15.68
   5  -2  14  152.48    9.95
  -5  -2  14  131.20    7.40
   5   2 -15   12.74    3.50
  -5  -2 -15    7.81    3.88
  -5   2 -15   19.10    5.67
   5  -2  15   11.52    5.82
  -5  -2  15   20.74    5.94
  -5  -2 -16  147.09    9.50
  -5   2 -16  173.64   16.63
   5   2  16  162.76    9.79
   5  -2  16  166.27    8.28
  -5  -2  16  156.11    7.05
  -5  -2 -17  105.45   12.39
  -5   2 -17   95.37   13.23
   5   2  17   82.77   22.99
   5  -2  17  106.64   22.68
  -5  -2  17   97.18    6.02
  -5  -2 -18   30.99    7.20
  -5   2 -18   31.37    8.45
  -5   2  18   26.36    9.11
   5   2  18   29.94   10.28
   5  -2  18   23.84    8.37
  -5  -2  18   30.60    9.47
  -5  -2 -19   12.03    3.53
  -5   2 -19    4.97    3.39
  -5   2  19    4.03    2.43
   5   2  19    1.85    3.03
   5  -2  19   13.39    4.81
  -5  -2  19    3.91    1.85
  -5  -2 -20   29.49    6.31
  -5   2 -20   37.61    5.79
  -5   2  20   22.41   10.33
   5   2  20   31.68    8.94
   5  -2  20   35.87   12.69
  -5  -2  20   28.14   11.56
  -5   3   0   88.03    5.74
   5   3   0   70.76    4.80
  -5  -3   0   67.20    4.76
  -5   3   0   96.87    7.64
   5  -3   0   95.44    6.03
  -5   3   1  832.18   12.23
  -5   3  -1  891.66   12.88
   5   3  -1  837.91   12.47
   5   3   1  907.52   12.59
  -5  -3   1  896.18   13.62
  -5  -3  -1  835.78   13.01
  -5   3   1  867.26   10.91
  -5   3  -1  897.50   11.89
   5  -3   1  827.69   11.67
  -5   3   2  450.68   12.58
  -5   3  -2  417.03   12.63
   5   3  -2  436.79   12.32
   5   3   2  398.13   11.10
  -5  -3  -2  431.64   12.60
  -5   3   2  453.54   11.64
  -5   3  -2  416.11   11.47
   5  -3   2  455.13   12.72
  -5   3   3 1051.14   23.34
  -5   3  -3 1075.30   24.20
   5   3  -3 1024.43   23.08
   5   3   3 1086.53   23.60
  -5  -3   3 1100.25   24.89
  -5  -3  -3 1033.40   23.61
  -5   3   3 1044.72   21.87
  -5   3  -3 1076.19   24.54
   5  -3   3 1071.13   23.67
  -5  -3   3 1035.44   21.94
  -5   3   4   81.54    5.43
  -5   3  -4   77.24    6.74
   5   3  -4   82.03    6.33
   5   3   4   83.49    5.29
  -5  -3   4   84.96    5.95
  -5   3   4   81.46    5.14
  -5  -3  -4   79.28    6.31
  -5   3  -4   78.87    5.76
   5  -3   4   86.00    5.91
  -5  -3   4   81.22    5.06
  -5   3   5  174.76    7.19
  -5   3  -5  166.63    6.37
   5   3  -5  176.78    7.13
   5   3   5  169.96    5.91
  -5  -3   5  167.39    8.50
  -5   3   5  168.51    5.67
  -5  -3  -5  176.31    7.34
  -5   3  -5  156.74    6.21
   5  -3   5  177.20    7.13
  -5  -3   5  169.67    5.82
  -5   3  -6  897.37   20.10
   5   3  -6  776.68   18.81
   5   3   6  845.07   18.65
  -5  -3   6  859.80   20.34
  -5   3   6  782.71   16.96
  -5  -3  -6  784.82   19.11
  -5   3  -6  871.93   20.63
   5  -3   6  826.40   23.49
  -5  -3   6  847.23   19.12
  -5   3   7  521.07   15.21
  -5   3  -7  569.52   13.64
   5   3  -7  509.86   13.33
   5   3   7  552.25   13.08
  -5  -3   7  556.00   15.91
  -5   3   7  522.16   12.23
  -5  -3  -7  491.01   13.08
  -5   3  -7  569.81   14.78
   5  -3   7  515.72   16.26
  -5  -3   7  579.19   14.66
  -5   3   8   12.65    3.28
  -5   3  -8    9.91    3.36
   5   3  -8   15.37    4.22
   5   3   8   10.05    2.64
  -5   3   8   12.56    4.16
  -5  -3  -8   18.25    3.82
  -5   3  -8   12.17    3.19
   5  -3   8   14.44    4.88
  -5  -3   8   11.68    4.89
  -5  -3  -9  190.62    8.69
  -5   3   9  194.47    9.53
  -5   3  -9  212.46   11.86
   5   3  -9  196.36   10.19
  -5   3   9  190.55    9.15
  -5  -3  -9  174.31   11.22
  -5   3  -9  226.96   11.41
   5  -3   9  200.10   13.17
  -5  -3   9  208.50   10.22
  -5   3  10   89.78    9.63
  -5  -3 -10   80.29    1.76
  -5   3 -10   97.36    9.68
   5   3 -10   95.07    8.89
  -5  -3 -10   78.14    4.48
  -5   3 -10   89.01    7.50
   5  -3  10   86.45    7.03
  -5  -3  10   88.87    4.02
  -5   3  11   37.64    5.00
  -5   3 -11   35.94    3.09
   5   3 -11   45.75   11.35
  -5  -3 -11   37.04   12.07
  -5   3 -11   50.42   10.91
   5  -3  11   36.75   11.70
  -5  -3  11   39.02    8.03
  -5   3  12   49.38    3.47
  -5   3 -12   45.01    6.40
   5   3 -12   44.31   10.80
  -5  -3 -12   37.44    3.42
  -5   3 -12   34.27   12.42
   5  -3  12   52.52   14.22
  -5  -3  12   36.20    4.25
  -5   3  13  194.81    6.94
   5   3 -13  210.53   17.95
  -5  -3 -13  192.97    7.41
  -5   3 -13  221.54    8.26
   5  -3  13  181.73   15.30
  -5  -3  13  206.56    8.08
   5   3 -14  120.84    6.14
  -5  -3 -14  107.94    6.93
  -5   3 -14  126.40   18.89
   5  -3  14  118.80    6.66
  -5  -3  14  114.73    8.01
   5   3 -15   71.10   13.39
  -5  -3 -15   78.75    8.08
  -5   3 -15  100.66    7.58
   5  -3  15   89.26    8.85
  -5  -3  15   81.20    5.00
  -5  -3 -16   12.92    3.54
  -5   3 -16    7.00    1.95
   5  -3  16   13.09    5.89
  -5  -3  16   10.16    2.53
  -5  -3 -17    0.97    2.97
  -5   3 -17    1.05    1.39
   5  -3  17    1.70    3.06
  -5  -3  17    4.19    3.00
  -5  -3 -18  117.37    9.31
  -5   3 -18   98.55   21.29
   5  -3  18  112.01   16.37
  -5  -3  18  111.65    7.00
  -5  -3 -19   53.69    9.52
  -5   3 -19   64.79    6.65
   5   3  19   52.45   22.49
   5  -3  19   61.08   15.00
  -5  -3  19   64.42   10.81
  -5   4   0 1500.51   32.66
   5   4   0 1454.30   31.50
  -5  -4   0 1406.14   31.26
  -5   4   0 1549.59   32.28
   5  -4   0 1497.57   32.84
  -5   4   1  466.30   14.53
  -5   4  -1  431.93   13.65
   5   4  -1  484.01   15.11
   5   4   1  460.71   14.43
  -5  -4   1  439.37   14.32
  -5  -4  -1  485.81   15.65
  -5   4   1  484.60   14.31
  -5   4  -1  435.64   13.09
   5  -4   1  491.81   15.43
  -5   4   2  814.42   18.91
  -5   4  -2  777.71   17.97
   5   4  -2  834.30   21.03
   5   4   2  842.70   19.06
  -5  -4   2  803.99   19.32
  -5  -4  -2  799.66   21.77
  -5   4   2  811.60   17.27
  -5   4  -2  820.01   18.29
   5  -4   2  792.45   19.82
  -5   4   3   81.72    5.64
  -5   4  -3   71.46    5.53
   5   4  -3   64.69    5.01
   5   4   3   53.08    3.81
   5  -4  -3   76.66    4.68
  -5  -4   3   53.56    4.81
  -5  -4  -3   61.46    5.06
  -5   4   3   77.75    4.51
  -5   4  -3   72.36    4.78
   5  -4   3   86.21   11.59
  -5   4   4  715.29   18.04
  -5   4  -4  693.03   16.29
   5   4  -4  672.46   16.67
   5   4   4  702.49   15.98
  -5  -4   4  708.93   17.47
  -5  -4  -4  662.37   17.09
  -5   4   4  740.78   15.44
  -5   4  -4  700.72   17.04
   5  -4   4  691.30   17.67
  -5  -4   4  714.05   16.02
  -5   4   5  623.64   16.91
  -5   4  -5  607.23   14.63
   5   4  -5  607.19   15.28
   5   4   5  598.54    7.11
  -5  -4   5  584.76   18.51
  -5   4   5  650.85   13.60
  -5  -4  -5  569.85   18.10
  -5   4  -5  602.90   15.73
   5  -4   5  604.34   15.22
  -5  -4   5  585.82   17.36
  -5   4  -6  949.08   21.96
   5   4  -6 1035.62   23.75
   5   4   6  968.71   21.00
  -5  -4   6 1006.02   24.24
  -5   4   6 1027.24   21.03
  -5  -4  -6  964.80   22.92
  -5   4  -6  957.56   22.17
   5  -4   6  984.87   23.38
  -5  -4   6 1005.04   22.57
  -5   4   7  328.12   11.68
  -5   4  -7  335.47   11.81
   5   4  -7  320.39   11.90
   5   4   7  323.04   10.69
  -5  -4   7  334.89   14.39
  -5   4   7  327.49   10.93
  -5  -4  -7  317.62   11.91
  -5   4  -7  338.46   12.39
   5  -4   7  332.57   12.99
  -5  -4   7  339.67   11.85
  -5   4   8  161.10    8.17
  -5   4  -8  169.42    8.42
   5   4  -8  145.33    7.89
   5   4   8  153.88    7.11
  -5  -4   8  154.43    8.61
  -5   4   8  170.09    7.73
  -5  -4  -8  146.81    8.06
  -5   4  -8  171.88   10.69
   5  -4   8  160.77   13.13
  -5  -4   8  147.85   11.04
  -5   4   9   12.21    2.85
  -5   4  -9   16.57    5.95
   5   4  -9    8.77    2.48
   5   4   9   12.28    3.45
  -5   4   9    8.33    3.12
  -5  -4  -9   11.41    2.32
  -5   4  -9   15.58    6.15
   5  -4   9   15.17    4.47
  -5  -4   9   13.73    3.67
  -5   4  10  255.55    9.42
  -5   4 -10  262.22    9.58
   5   4 -10  252.06    9.91
  -5  -4 -10  249.17   10.17
  -5   4 -10  239.21   12.58
   5  -4  10  244.18   15.06
  -5  -4  10  253.61   10.38
  -5   4  11  454.20   11.94
  -5   4 -11  443.87    9.97
   5   4 -11  439.14   11.74
  -5  -4 -11  401.82   11.28
  -5   4 -11  426.74   12.03
   5  -4  11  430.88   13.29
  -5  -4  11  422.09   11.91
  -5   4  12   79.02    5.58
  -5   4 -12   83.18    3.84
   5   4 -12   59.57    7.40
  -5  -4 -12   54.22    6.81
  -5   4 -12   70.33    8.29
   5  -4  12   76.80    7.45
  -5   4  13   30.87    8.44
  -5   4 -13   38.21    3.39
   5   4 -13   43.66   12.24
  -5  -4 -13   37.01   12.86
  -5   4 -13   48.65    9.17
   5  -4  13   34.77   12.44
  -5  -4  13   31.51   11.58
   5   4 -14   31.70    3.62
  -5  -4 -14   30.60   10.27
  -5   4 -14   30.09    8.61
   5  -4  14   29.13    7.70
  -5  -4  14   31.94   10.69
   5   4 -15   36.33    4.43
  -5  -4 -15   30.41    7.16
  -5   4 -15   37.20    7.05
   5  -4  15   34.95   10.51
  -5  -4  15   32.77   10.52
   5   4 -16   15.20    3.74
  -5  -4 -16   19.26    4.07
  -5   4 -16   22.89    7.03
   5  -4  16   22.55    5.99
  -5  -4  16   16.75    6.02
  -5  -4 -17   34.73    8.15
  -5   4 -17   48.79    9.20
   5  -4  17   49.12   11.09
  -5  -4  17   36.33   14.35
  -5  -4 -18   64.96   18.61
  -5   4 -18   65.06   17.62
   5  -4  18   72.83   16.96
  -5  -4  18   73.25    5.76
  -5  -4 -19   16.81    4.00
  -5   4 -19   28.46    7.10
   5  -4  19   27.33    5.80
  -5  -4  19   14.93    7.32
  -5   5   0   54.99    4.65
   5   5   0   49.13    4.76
  -5  -5   0   53.91    4.83
  -5   5   0   56.77    3.64
   5  -5   0   55.31    7.53
  -5   5   1  968.19   22.60
  -5   5  -1  958.01   22.15
   5   5  -1  968.55   22.37
   5   5   1  958.67   21.78
  -5  -5   1  983.77   23.59
  -5  -5  -1  944.01   22.67
  -5   5   1  991.64   20.81
  -5   5  -1  997.50   22.44
   5  -5   1 1010.28   23.23
  -5   5   2   79.43    5.60
  -5   5  -2   93.35    6.76
   5   5  -2   84.47   10.02
   5   5   2   92.68   10.58
  -5  -5   2   91.17    8.98
  -5  -5  -2   75.19   10.74
  -5   5   2   88.50    5.10
  -5   5  -2   94.21    5.92
   5  -5   2   87.38    6.43
  -5   5   3  861.55   20.24
  -5   5  -3  828.07   19.70
   5   5  -3  852.92   20.17
   5   5   3  828.32   18.82
   5  -5  -3  857.73   17.61
  -5  -5   3  834.15   20.60
  -5  -5  -3  851.65   20.58
  -5   5  -3  855.25   19.50
  -5   5   3  849.49   17.31
   5  -5   3  835.05   19.59
  -5   5   4  167.96    8.11
  -5   5  -4  160.99    6.69
   5   5  -4  161.88    7.22
   5   5   4  171.94    6.64
  -5  -5   4  164.98    9.06
  -5  -5  -4  170.89    7.75
   5  -5   4  175.90    8.10
  -5  -5   4  153.52    6.13
  -5   5   5  137.71    4.66
  -5   5  -5  161.36    6.77
   5   5  -5  136.03    5.22
   5   5   5  164.72    7.00
  -5  -5   5  142.23   10.16
  -5  -5  -5  134.84    5.08
  -5   5  -5  146.69    7.43
   5  -5   5  147.19    6.98
  -5  -5   5  154.62    6.46
  -5   5   6   95.69    5.83
  -5   5  -6  100.03    8.07
   5   5  -6   92.59    5.51
   5   5   6   93.82    3.62
  -5  -5   6   85.74   12.01
  -5  -5  -6   95.64    5.05
  -5   5  -6   96.75    4.25
   5  -5   6  102.44    5.85
  -5  -5   6   98.65    3.98
  -5   5   7   34.70    4.22
   5   5  -7   42.58    4.25
  -5  -5   7   54.08    8.96
  -5   5   7   37.95    0.97
  -5  -5  -7   35.84    3.38
  -5   5   7   38.62    1.01
  -5   5  -7   48.53    3.79
   5  -5   7   38.48    3.69
  -5  -5   7   53.16    6.21
  -5   5   8  151.53    7.85
  -5   5  -8  132.24    7.27
   5   5  -8  146.58    8.06
   5   5   8  133.83    6.53
  -5  -5   8  125.84   16.68
  -5   5   8  156.79    6.95
  -5  -5  -8  139.06    9.27
  -5   5  -8  134.53    7.55
   5  -5   8  154.57    9.33
  -5  -5   8  135.98    7.60
  -5   5   9  640.45   17.32
  -5   5  -9  634.94   16.13
   5   5  -9  641.58   17.69
   5   5   9  591.11   14.45
  -5   5   9  679.60   15.76
  -5  -5  -9  597.70   16.42
  -5   5  -9  614.18   17.43
   5  -5   9  677.63   19.01
  -5  -5   9  597.83   17.96
  -5   5  10    3.12    1.15
  -5   5 -10    2.18    0.99
   5   5 -10    5.24    2.52
  -5   5  10    2.81    1.14
  -5  -5 -10    2.82    2.59
  -5   5 -10    2.04    1.19
   5  -5  10    1.81    2.25
  -5  -5  10    8.12    2.99
  -5   5  11  147.14    5.34
  -5   5 -11  147.55    4.92
   5   5 -11  144.40    5.91
  -5  -5 -11  140.87    8.38
  -5   5 -11  148.13    9.28
   5  -5  11  162.61    8.03
  -5  -5  11  142.78    6.20
  -5   5  12   37.58    3.54
  -5   5 -12   46.84    5.08
   5   5 -12   33.44    4.15
  -5  -5 -12   32.29   10.56
  -5   5 -12   54.31    8.20
   5  -5  12   42.92   13.86
  -5  -5  12   45.43   12.58
  -5   5  13  171.27    7.75
  -5   5 -13  178.16    5.55
   5   5 -13  163.08    8.80
  -5  -5 -13  167.91   19.66
  -5   5 -13  161.52    6.99
   5  -5  13  181.97    7.98
  -5  -5  13  157.93    6.54
   5   5 -14   10.98    4.33
  -5  -5 -14   13.21    2.81
  -5   5 -14   12.61    3.89
   5  -5  14   11.89    4.16
  -5  -5  14   10.94    2.77
   5   5 -15  148.18   12.43
  -5  -5 -15  131.86   21.03
  -5   5 -15  137.03   24.50
   5  -5  15  147.05    8.16
  -5  -5  15  118.99   13.40
   5   5 -16  102.50    8.98
  -5  -5 -16  115.14   12.55
  -5   5 -16  108.24    7.13
   5  -5  16  118.56   19.58
  -5  -5  16  113.96    7.02
  -5  -5 -17   23.44    7.76
  -5   5 -17   28.95    5.74
   5  -5  17   13.56    7.73
  -5  -5  17   23.78    7.07
  -5  -5 -18    1.42    1.31
   5  -5  18    0.59    2.52
  -5  -5  18    1.60    1.40
  -5  -5 -19   15.30    5.86
   5  -5  19   18.90    7.30
  -5  -5  19   19.89    9.66
  -5   6   0 1176.23   29.14
   5   6   0 1251.60   28.41
  -5  -6   0 1208.50   28.58
  -5   6   0 1228.53   25.94
   5  -6   0 1219.50   27.91
  -5   6   1  311.27   11.49
  -5   6  -1  256.11   10.03
   5   6  -1  325.52   11.97
   5   6   1  246.50    9.64
  -5  -6  -1  295.16   12.26
  -5   6  -1  252.84    8.84
  -5   6   2   80.05    4.52
  -5   6  -2   90.44    4.70
   5   6  -2   92.31    9.75
  -5  -6   2   78.44    9.92
  -5  -6  -2   78.02    4.56
  -5   6  -2   82.39    5.66
   5  -6   2   80.28    5.01
  -5   6   3  241.93    9.42
  -5   6  -3  235.41    9.24
   5   6  -3  260.40   10.18
   5   6   3  242.61   10.30
  -5  -6   3  245.10   11.11
  -5  -6  -3  247.75   12.66
  -5   6  -3  241.56    8.69
   5  -6   3  246.94    9.74
  -5   6   4  427.39   11.92
  -5   6  -4  450.19   12.34
   5   6  -4  431.50   11.92
   5   6   4  487.07   12.23
  -5  -6   4  479.77   13.52
  -5  -6  -4  427.25   12.03
  -5   6  -4  445.28   11.30
   5  -6   4  412.23   11.53
  -5  -6   4  480.90   12.97
  -5   6   5  410.76   11.12
  -5   6  -5  403.17   13.39
   5   6  -5  389.28   13.97
   5   6   5  410.57   10.50
  -5  -6   5  393.60   14.62
  -5  -6  -5  395.86   14.96
  -5   6  -5  418.69   11.14
   5  -6   5  414.27   12.03
  -5  -6   5  413.94   11.21
  -5   6   6   76.05    7.70
  -5   6  -6   66.37    5.65
   5   6  -6   65.54    6.85
   5   6   6   63.10    3.01
  -5  -6   6   62.09    4.86
  -5  -6  -6   67.22    8.81
  -5   6  -6   57.84    4.20
   5  -6   6   68.18    7.16
  -5  -6   6   55.52    3.29
  -5   6   7   85.66    5.34
  -5   6  -7   91.89    7.29
   5   6  -7   67.26    4.47
   5   6   7   76.40    3.17
  -5  -6   7   74.64    4.81
  -5  -6  -7   64.71    9.75
  -5   6  -7   91.59    5.90
   5  -6   7   83.22    9.99
  -5  -6   7   75.27    4.62
  -5   6   8  150.58    5.11
  -5   6  -8  147.07    7.94
   5   6  -8  174.64   10.82
   5   6   8  149.42    3.95
  -5  -6   8  159.49   15.24
  -5  -6  -8  147.51    5.75
  -5   6  -8  142.87    5.50
   5  -6   8  158.75    9.73
  -5  -6   8  155.17    5.55
  -5   6   9    2.84    2.04
  -5   6  -9    4.90    1.89
   5   6  -9    3.95    2.52
   5   6   9    4.67    1.50
  -5  -6   9    3.44    1.95
  -5  -6  -9    1.47    1.96
  -5   6  -9    3.73    2.34
   5  -6   9    4.24    2.47
  -5  -6   9    2.12    1.95
  -5   6  10   76.67    7.62
  -5   6 -10   75.04    5.10
   5   6 -10   89.09    7.79
  -5  -6 -10   66.47    4.39
  -5   6 -10   71.20    4.62
   5  -6  10   77.10   12.13
  -5  -6  10   61.15    7.82
  -5   6  11   66.78    5.37
  -5   6 -11   98.07    5.66
   5   6 -11   68.83   13.11
  -5  -6 -11   66.41    4.31
   5  -6  11   65.38    5.57
  -5  -6  11   86.42    4.95
  -5   6  12  112.87    4.60
  -5   6 -12  108.10    7.62
   5   6 -12  111.36   11.59
  -5  -6 -12  108.70   11.87
  -5   6 -12  102.42   11.78
   5  -6  12  123.87   10.36
  -5  -6  12  108.25    5.55
  -5   6  13   70.72    3.78
  -5   6 -13   57.35   10.52
   5   6 -13   71.46    9.40
  -5  -6 -13   66.57    9.29
  -5   6 -13   53.72    5.39
   5  -6  13   65.88   19.93
  -5  -6  13   58.36    8.54
   5   6 -14   15.53    2.86
  -5  -6 -14   14.84    4.91
  -5   6 -14    8.50    3.24
   5  -6  14   12.28    3.79
  -5  -6  14   19.35    5.22
   5   6 -15   56.38    5.83
  -5  -6 -15   55.53   16.09
  -5   6 -15   64.54   17.79
   5  -6  15   64.71   22.90
  -5  -6  15   54.66    7.30
   5   6 -16  155.32   12.20
  -5  -6 -16  155.48   17.25
  -5   6 -16  165.78    8.91
   5  -6  16  151.86   21.32
  -5  -6  16  164.42    9.24
  -5  -6 -17   74.64   20.39
   5  -6  17   96.23   18.79
  -5  -6  17   89.53    6.47
  -5  -6 -18   11.75    4.32
   5  -6  18    5.17    3.86
  -5  -6  18    8.30    5.22
  -5  -6 -19    1.19    1.33
   5  -6  19    1.81    1.97
  -5  -6  19    0.39    2.01
  -5   7   0   16.90    5.40
   5   7   0   14.97    4.84
  -5  -7   0   11.10    4.08
   5  -7   0   19.51    4.94
  -5   7   1  429.59   11.95
  -5   7  -1  420.95   11.68
   5   7  -1  459.48   12.75
   5   7   1  440.71   12.12
  -5  -7   1  442.23   12.72
  -5  -7  -1  447.89   12.65
  -5   7  -1  429.35   10.44
   5  -7   1  461.23   12.97
  -5   7   2  108.25    4.65
  -5   7  -2  110.66   11.55
   5   7  -2   95.94   13.95
   5   7   2   83.00    4.07
  -5  -7   2   82.44    5.88
  -5  -7  -2   86.32    6.47
  -5   7  -2  104.33    3.75
   5  -7   2  116.93   12.58
  -5   7   3  345.26   12.98
  -5   7  -3  369.53   12.80
   5   7  -3  339.18   11.61
   5   7   3  349.58   12.56
  -5  -7   3  343.32   12.32
  -5  -7  -3  349.21   12.10
  -5   7  -3  341.49   12.00
   5  -7   3  345.10   12.08
  -5   7   4  411.98   14.33
  -5   7  -4  433.62   13.91
   5   7  -4  439.37   14.20
   5   7   4  454.27   13.91
  -5  -7   4  435.07   14.70
  -5  -7  -4  446.07   16.97
  -5   7  -4  434.45   13.48
   5  -7   4  438.13   14.69
  -5  -7   4  444.61   15.09
  -5   7   5   69.24    7.76
  -5   7  -5   64.25    6.38
   5   7  -5   69.96    8.48
   5   7   5   58.17    3.02
  -5  -7   5   62.79    5.38
  -5  -7  -5   71.05    9.98
  -5   7  -5   63.03    5.44
   5  -7   5   77.15   14.40
  -5  -7   5   53.76    5.53
  -5   7   6   17.28    4.49
  -5   7  -6   13.81    2.52
   5   7  -6   18.81    8.31
   5   7   6   16.62    3.87
  -5  -7   6   13.81    3.63
  -5  -7  -6   20.24    6.66
  -5   7  -6   13.38    4.87
   5  -7   6   20.83    5.25
  -5  -7   6   15.46    4.46
  -5   7   7  312.20    9.76
  -5   7  -7  302.69   10.23
   5   7  -7  322.81   11.21
   5   7   7  303.41    8.95
  -5  -7   7  305.50   10.81
  -5  -7  -7  313.47   10.43
  -5   7  -7  301.34    9.83
   5  -7   7  307.55   13.54
  -5  -7   7  293.49    9.56
  -5   7   8  205.60    5.92
  -5   7  -8  204.78    6.64
   5   7  -8  213.18    9.31
   5   7   8  221.86    8.07
  -5  -7   8  217.05   13.44
  -5  -7  -8  212.26   13.69
  -5   7  -8  197.45    6.62
   5  -7   8  221.98   10.43
  -5  -7   8  217.31    9.12
  -5   7   9  233.45    7.29
  -5   7  -9  250.87    8.52
   5   7  -9  215.72   11.36
   5   7   9  231.46    6.15
  -5  -7   9  216.31    8.26
  -5  -7  -9  219.57    8.16
  -5   7  -9  240.64    8.61
   5  -7   9  240.21   10.02
  -5  -7   9  219.30    7.73
  -5   7  10   95.75    4.36
  -5   7 -10  111.05   10.45
   5   7 -10  103.59   16.15
  -5  -7  10   96.63   12.91
  -5  -7 -10   88.97    4.76
  -5   7 -10  103.52    5.63
   5  -7  10   93.94    7.91
  -5  -7  10  101.93    5.28
  -5   7  11    7.41    2.49
  -5   7 -11    6.74    2.22
   5   7 -11    3.50    1.89
  -5  -7 -11    5.47    2.38
   5  -7  11    5.36    1.98
  -5  -7  11    0.58    2.88
  -5   7  12    2.49    1.59
  -5   7 -12    7.77    1.74
   5   7 -12    7.53    2.43
  -5  -7 -12    5.28    2.38
  -5   7 -12    4.76    2.61
   5  -7  12    4.91    1.86
  -5  -7  12    3.82    2.62
  -5   7 -13  192.51    7.03
   5   7 -13  189.23   12.99
  -5  -7 -13  206.02    7.59
  -5   7 -13  187.97    7.79
   5  -7  13  211.98   15.34
  -5  -7  13  207.83    8.84
   5   7 -14    3.05    1.36
  -5  -7 -14    2.58    1.75
   5  -7  14    6.43    3.50
  -5  -7  14    2.26    1.76
   5   7 -15   63.27    7.46
  -5  -7 -15   64.97    6.66
   5  -7  15   66.75   19.81
  -5  -7  15   77.64   10.80
   5   7 -16   45.98    9.37
  -5  -7 -16   51.72   12.11
   5  -7  16   64.33   15.87
  -5  -7  16   52.63   11.83
  -5  -7 -17    3.86    1.67
   5  -7  17    5.79    2.54
  -5  -7  17    6.04    2.70
  -5  -7 -18    1.67    1.87
   5  -7  18    4.28    3.84
  -5  -7  18    0.94    2.35
  -5   8   0  286.70   10.24
   5   8   0  299.46   10.71
  -5  -8   0  291.37   12.30
  -5   8   1  106.23    8.63
  -5   8  -1  128.21    9.31
   5   8  -1  109.06    7.65
   5   8   1  112.55    7.51
  -5  -8   1  117.17   15.92
  -5  -8  -1  103.65    8.90
   5  -8   1  129.35   15.05
  -5   8   2   66.54    3.86
  -5   8  -2   68.87    4.49
   5   8   2   74.38    5.31
   5   8  -2   79.15    7.70
  -5  -8   2   76.46    9.64
  -5  -8  -2   77.79    6.15
   5  -8   2   79.98    6.54
  -5   8   3   13.90    3.40
  -5   8  -3   10.26    2.73
   5   8   3    9.03    2.41
   5   8  -3   13.81    3.76
  -5  -8   3    6.25    2.88
  -5  -8  -3    8.87    3.66
   5  -8   3    3.88    2.93
  -5   8  -4    7.61    4.10
   5   8  -4    8.96    2.55
   5   8   4   -0.22    1.73
  -5  -8   4    4.06    1.93
  -5  -8  -4    5.85    4.03
   5  -8   4    7.97    3.55
  -5   8   5  347.81   11.14
  -5   8  -5  351.62   11.57
   5   8  -5  347.11   11.44
   5   8   5  317.81    9.47
  -5  -8   5  347.83   12.00
  -5  -8  -5  337.74   14.59
   5  -8   5  355.37   12.49
  -5  -8   5  329.34   10.44
  -5   8   6  193.17    6.39
  -5   8  -6  224.77    9.42
   5   8  -6  205.69   10.01
   5   8   6  236.03    9.47
  -5  -8   6  229.70   11.87
  -5  -8  -6  200.43    8.93
   5  -8   6  196.32   16.32
  -5  -8   6  221.96    9.23
  -5   8   7  217.35    9.27
  -5   8  -7  212.24    9.40
   5   8  -7  212.96    9.19
   5   8   7  206.85    5.32
  -5  -8   7  207.50    9.23
  -5  -8  -7  212.21    9.07
  -5   8  -7  208.83    6.80
   5  -8   7  206.10   13.05
  -5  -8   7  216.02    9.77
  -5   8   8   14.90    4.70
  -5   8  -8   22.40    4.40
   5   8  -8   18.02    3.53
   5   8   8   18.48    4.84
  -5  -8   8   23.52    8.00
  -5  -8  -8   20.64    2.93
   5  -8   8   19.01    5.86
  -5  -8   8   22.35    7.93
  -5   8   9   53.54    8.24
  -5   8  -9   55.90    7.12
   5   8  -9   50.75    4.91
   5   8   9   52.26    4.69
  -5  -8   9   46.74   16.61
  -5  -8  -9   49.07    4.08
   5  -8   9   54.46   15.52
  -5  -8   9   50.46    8.44
  -5   8  10  165.42    6.54
  -5   8 -10  145.23   10.07
   5   8 -10  194.52   20.78
  -5  -8  10  148.10    9.39
  -5  -8 -10  184.04   15.15
   5  -8  10  166.84   17.38
  -5  -8  10  155.59    6.82
  -5   8  11  130.76    5.81
  -5   8 -11  119.83   11.30
   5   8 -11  112.74    8.12
  -5  -8  11  118.92    7.20
  -5  -8 -11  122.36   10.85
   5  -8  11  113.16   26.42
  -5  -8  11  115.95    5.51
  -5   8  12   80.68    4.37
  -5   8 -12   80.59    7.32
   5   8 -12   90.52    9.46
  -5  -8 -12   82.67    8.69
   5  -8  12   72.74    7.46
  -5  -8  12   76.64    5.36
  -5   8 -13   14.78    3.49
   5   8 -13   12.78    2.92
  -5  -8 -13   12.96    2.88
   5  -8  13   12.04    2.94
  -5  -8  13   15.64    4.33
  -5   8 -14    7.52    2.78
   5   8 -14    3.35    1.11
  -5  -8 -14    1.83    2.83
   5  -8  14    5.12    3.09
  -5  -8  14    3.10    2.27
   5   8 -15    1.93    2.26
  -5  -8 -15    1.63    1.41
   5  -8  15    2.56    2.92
  -5  -8  15   -0.74    2.54
   5   8 -16   14.80    5.38
  -5  -8 -16   14.20    2.67
   5  -8  16   16.48    7.99
  -5  -8  16   10.64    5.20
  -5  -8 -17   24.53    5.89
   5  -8  17   33.76    6.04
  -5  -8  17   19.46    8.01
   5   9   0    5.36    3.79
  -5  -9   0    5.81    2.64
  -5   9   1   86.91   13.46
  -5   9  -1   75.66    5.43
   5   9   1   68.13    4.28
   5   9  -1   92.66   14.92
  -5  -9   1   66.59    4.86
  -5  -9  -1   84.96    9.75
   5  -9   1   96.93   14.32
  -5   9   2  289.04   10.09
  -5   9  -2  304.77   10.37
   5   9   2  313.76   10.66
   5   9  -2  284.76   12.21
   5  -9  -2  310.59    7.78
  -5  -9   2  303.02   10.89
  -5  -9  -2  288.33   10.72
   5  -9   2  275.60   10.97
  -5   9   3  386.01   12.27
  -5   9  -3  417.40   13.34
   5   9  -3  387.06   12.71
   5   9   3  430.93   15.72
  -5  -9   3  428.23   16.39
  -5  -9  -3  368.50   17.21
   5  -9   3  412.21   14.13
  -5   9   4    4.17    2.77
  -5   9  -4    5.18    3.62
   5   9   4    7.34    1.81
   5   9  -4    5.56    2.22
  -5  -9   4    3.06    2.80
  -5  -9  -4    5.07    3.02
   5  -9   4    6.27    4.51
  -5   9   5   16.68    4.50
  -5   9  -5   10.78    4.28
   5   9  -5   14.64    3.81
   5   9   5    9.40    2.25
  -5  -9   5    7.16    2.46
  -5  -9  -5   17.75    3.65
   5  -9   5   17.36    4.49
  -5  -9   5    8.81    3.25
  -5   9   6  188.13    7.32
  -5   9  -6  175.94    6.77
   5   9  -6  203.05    7.72
   5   9   6  201.27    6.67
  -5  -9   6  192.96    8.55
  -5  -9  -6  192.66   12.99
   5  -9   6  206.81   11.33
  -5  -9   6  197.45    7.76
  -5   9   7  105.75    9.63
  -5   9  -7  106.79   13.02
   5   9  -7  116.35    9.35
   5   9   7  109.69    4.47
  -5  -9   7  104.27    8.70
  -5  -9  -7  114.54    9.43
   5  -9   7  115.68    6.97
  -5  -9   7  104.55    5.21
  -5   9   8   12.07    4.31
  -5   9  -8   21.36    6.57
   5   9  -8   14.54    4.79
   5   9   8   20.57    6.25
  -5  -9   8   25.68    5.64
  -5  -9  -8   14.92    4.73
   5  -9   8   13.40    2.98
  -5  -9   8   19.01    5.49
  -5   9   9   56.72    8.14
  -5   9  -9   48.70    4.99
   5   9  -9   53.11   12.19
   5   9   9   47.63    3.13
  -5  -9   9   44.63   13.45
  -5  -9  -9   47.27    5.45
   5  -9   9   48.41    9.54
  -5  -9   9   46.44   10.17
  -5   9  10  266.68    8.42
  -5   9 -10  248.99    7.79
   5   9 -10  253.94    8.36
  -5  -9  10  254.07   14.66
  -5  -9 -10  257.28   24.41
   5  -9  10  243.79   17.18
  -5  -9  10  267.46   10.11
  -5   9 -11   47.39    5.39
   5   9 -11   50.10   12.07
  -5  -9  11   58.51   15.54
  -5  -9 -11   45.71    4.84
   5  -9  11   40.18   11.39
  -5  -9  11   52.66    7.18
  -5   9  12   15.80    5.62
  -5   9 -12   18.27    3.49
   5   9 -12   21.19    7.18
  -5  -9  12   18.62    5.45
  -5  -9 -12   15.82    5.04
   5  -9  12   24.16    5.70
  -5  -9  12   20.06    5.24
  -5   9 -13   40.43   10.22
   5   9 -13   41.06   12.75
  -5  -9 -13   39.41   13.87
   5  -9  13   48.46   13.14
  -5  -9  13   46.72    7.66
  -5   9 -14   70.28    7.59
   5   9 -14   84.75   12.41
  -5  -9 -14   59.71   14.54
   5  -9  14   70.36   12.08
  -5  -9  14   77.85    5.95
   5   9 -15   57.39    7.76
  -5  -9 -15   51.91   13.33
   5  -9  15   68.52   16.27
  -5  -9  15   65.24    8.24
   5   9 -16    1.60    1.61
  -5  -9 -16    0.90    0.82
   5  -9  16   -2.04    4.20
  -5  -9  16    1.59    1.44
   5   9 -17    4.78    2.78
   5  -9  17    3.13    3.06
  -5  -9  17    3.32    2.16
  -5  10   0   79.80    7.52
   5  10   0   78.42   11.06
  -5 -10   0   79.62    9.12
  -5  10   1  438.58   16.21
  -5  10  -1  418.95   15.93
   5  10   1  455.95   16.54
   5  10  -1  469.17   16.95
  -5 -10   1  451.79   19.77
  -5 -10  -1  425.21   15.89
  -5  10   2  153.29    6.15
  -5  10  -2  120.27   15.79
   5  10  -2  143.26    5.94
  -5 -10   2  110.61    9.59
  -5 -10  -2  140.75    9.74
  -5  10   3  260.95    8.67
  -5  10  -3  240.91    8.42
   5  10   3  275.86   14.36
   5  10  -3  286.73    9.60
  -5 -10   3  274.05   13.93
  -5 -10  -3  251.47   12.98
   5 -10   3  264.89    9.73
  -5  10   4   89.62    5.12
  -5  10  -4   91.95    9.64
   5  10  -4   91.18    6.45
   5  10   4  100.76    4.78
  -5 -10   4   95.22   15.38
  -5 -10  -4   91.42   17.40
   5 -10   4  111.06   17.78
  -5  10   5  246.82    8.60
  -5  10  -5  259.08    8.72
   5  10  -5  274.31    9.49
   5  10   5  268.61    8.42
  -5 -10   5  269.52    9.79
  -5 -10  -5  250.33    8.80
   5 -10   5  263.92    9.96
  -5  10   6   84.43    5.57
  -5  10  -6   87.71    8.56
   5  10  -6   85.35    8.78
   5  10   6   87.70    4.40
  -5 -10   6   78.83   20.80
  -5 -10  -6   86.13    5.79
   5 -10   6   85.57   13.30
  -5 -10   6   76.91    4.67
  -5  10   7  166.24    7.37
  -5  10  -7  167.35   19.32
   5  10  -7  159.93    8.44
   5  10   7  160.78    5.91
  -5 -10   7  163.67   14.66
  -5 -10  -7  159.71    6.32
   5 -10   7  154.60    9.85
  -5 -10   7  169.30    7.07
  -5  10   8   67.72   10.49
  -5  10  -8   71.23   11.12
   5  10  -8   78.36    7.53
   5  10   8   75.05    7.84
  -5 -10   8   72.11    7.39
  -5 -10  -8   75.53    8.11
   5 -10   8   77.65    5.99
  -5 -10   8   62.39    6.30
  -5  10   9   50.10   10.10
  -5  10  -9   67.19    7.34
   5  10  -9   59.40   13.50
   5  10   9   61.23    3.61
  -5 -10   9   63.06   19.77
  -5 -10  -9   64.45    6.07
   5 -10   9   59.43   20.15
  -5 -10   9   61.67    8.96
  -5  10  10   70.34   10.45
  -5  10 -10   72.53    6.13
   5  10 -10   91.38   11.33
  -5 -10  10   69.83   18.91
  -5 -10 -10   71.74   17.20
   5 -10  10   62.91   18.25
  -5 -10  10   70.57    9.62
  -5  10  11  245.00    8.78
  -5  10 -11  241.13    7.89
   5  10 -11  253.27    9.63
  -5 -10  11  242.94   17.81
  -5 -10 -11  217.98   25.32
   5 -10  11  248.38   10.03
  -5 -10  11  239.46    9.34
  -5  10  12   20.30    7.73
  -5  10 -12   24.50    6.66
   5  10 -12   25.32    7.23
  -5 -10  12   24.86    7.60
  -5 -10 -12   21.06    4.28
   5 -10  12   27.56    7.63
  -5 -10  12   18.28    9.64
  -5  10 -13   41.38    8.79
   5  10 -13   44.12   11.48
  -5 -10  13   37.07   11.83
  -5 -10 -13   42.13   12.54
   5 -10  13   48.21   19.17
  -5 -10  13   38.36   16.78
  -5  10 -14   18.75    6.26
   5  10 -14   19.25    6.43
  -5 -10  14   18.24    5.01
  -5 -10 -14   16.47    5.54
   5 -10  14   30.12    7.28
  -5 -10  14   15.72    4.31
   5  10 -15   17.59    4.49
  -5 -10  15   24.19    8.61
  -5 -10 -15   13.31    2.73
   5 -10  15   20.53    4.79
  -5 -10  15   27.33    4.69
   5  10 -16   26.13    5.37
  -5 -10  16   25.18    8.78
   5 -10  16   20.28    6.75
  -5 -10  16   22.46   12.63
  -5  11   0  168.68    7.14
   5  11   0  185.31    7.34
  -5 -11   0  185.24   20.68
  -5  11   1   17.27    6.43
  -5  11  -1   18.79    4.10
   5  11  -1   16.79    4.75
   5  11   1   16.92    4.24
  -5 -11   1   19.23    4.92
  -5 -11  -1   22.02    5.34
  -5  11   2  183.13    7.44
  -5  11  -2  172.04   14.84
   5  11   2  172.63    7.72
   5  11  -2  182.74   12.76
  -5 -11   2  176.51    9.07
  -5 -11  -2  200.44    8.57
   5 -11   2  193.32   14.48
  -5  11   3   15.63    3.90
  -5  11  -3   28.14    8.27
   5  11   3   23.89    7.15
   5  11  -3   17.38    3.48
  -5 -11   3   30.28    7.10
  -5 -11  -3   18.04    3.17
   5 -11   3   19.48    6.00
  -5  11   4   78.48   16.13
  -5  11  -4   82.64    5.33
   5  11   4   93.50   14.07
   5  11  -4   71.03   16.79
  -5 -11   4   82.85    6.31
  -5 -11  -4   77.42    6.96
   5 -11   4   70.27    9.52
  -5  11   5   25.66    8.67
  -5  11  -5   19.08    2.81
   5  11   5   23.58    4.36
   5  11  -5   23.26    3.99
  -5 -11   5   21.19    5.48
  -5 -11  -5   23.71    6.35
   5 -11   5   30.72    8.21
  -5  11   6   48.48    6.34
  -5  11  -6   48.48   14.79
   5  11   6   52.97    5.04
   5  11  -6   55.58    5.89
  -5 -11   6   56.08   12.40
  -5 -11  -6   53.30    4.90
   5 -11   6   58.01   10.34
  -5  11   7   10.35    2.66
  -5  11  -7   11.47    3.75
   5  11  -7    9.79    1.96
   5  11   7   11.99    3.88
  -5 -11   7    6.34    3.43
  -5 -11  -7    6.21    2.35
   5 -11   7    8.74    3.09
  -5 -11   7    9.98    4.44
  -5  11   8  107.75    5.66
  -5  11  -8  103.97    9.53
   5  11  -8  123.33   10.28
   5  11   8  106.44    5.72
  -5 -11   8  101.09    7.57
  -5 -11  -8  104.23    9.38
   5 -11   8  106.28   15.47
  -5 -11   8   93.67   14.04
  -5  11   9   30.46   10.52
  -5  11  -9   35.29    5.63
   5  11  -9   32.56    7.57
  -5 -11   9   33.56    8.75
  -5 -11  -9   37.87    3.84
   5 -11   9   20.69    6.96
  -5 -11   9   31.95   12.22
  -5  11  10   53.65    6.38
  -5  11 -10   59.04   13.68
   5  11 -10   66.28   16.54
  -5 -11  10   57.13   17.13
  -5 -11 -10   46.98   10.56
   5 -11  10   67.33   12.53
  -5 -11  10   65.81    8.90
  -5  11  11   18.85    5.80
  -5  11 -11   22.53    5.36
   5  11 -11   21.85    4.97
  -5 -11  11   17.82    7.01
  -5 -11 -11   17.81    6.37
   5 -11  11   24.14    7.14
  -5 -11  11   19.08    4.17
  -5  11 -12  109.91   14.60
   5  11 -12  109.76   11.44
  -5 -11  12  111.24   12.94
  -5 -11 -12  113.71   10.29
   5 -11  12  104.45   22.05
  -5 -11  12  121.73    7.03
  -5  11 -13   10.10    2.57
   5  11 -13    8.44    3.63
  -5 -11  13   17.22    5.16
  -5 -11 -13    8.39    3.64
   5 -11  13    7.75    5.25
  -5 -11  13    7.03    2.98
  -5  11 -14   24.57    4.97
   5  11 -14   34.01    3.87
  -5 -11  14   23.50    8.52
   5 -11  14   32.04    7.83
  -5 -11  14   24.43    8.77
   5  11 -15    7.59    3.97
  -5 -11  15    9.70    4.26
   5 -11  15    9.27    4.50
  -5 -11  15    3.92    2.39
  -5  12   0    0.75    1.94
   5  12   0    1.20    2.37
  -5 -12   0    2.84    2.19
  -5  12   1   22.80    6.72
  -5  12  -1   22.56    6.80
   5  12  -1   24.64    5.72
   5  12   1   25.37    3.93
  -5 -12   1   29.55    6.36
  -5 -12  -1   27.85    7.43
  -5  12   2   79.57   10.47
  -5  12  -2   85.48   10.67
   5  12   2   83.26    6.34
   5  12  -2   71.83    7.70
  -5 -12   2   86.43   18.79
  -5 -12  -2   87.29    7.19
  -5  12   3    0.86    1.19
  -5  12  -3    2.31    2.32
   5  12   3    5.24    1.96
   5  12  -3    0.50    1.30
  -5 -12   3    2.41    2.16
  -5 -12  -3    2.16    1.38
   5 -12   3    0.57    2.36
  -5  12   4   78.24   15.67
  -5  12  -4   80.39    7.49
   5  12   4   77.12    6.43
   5  12  -4   86.79   20.47
  -5 -12   4   87.48   10.73
  -5 -12  -4   85.57    7.46
   5 -12   4   83.74   12.85
  -5  12   5   82.50    7.54
  -5  12  -5   79.45    6.58
   5  12   5   79.86    7.00
   5  12  -5   96.15   12.57
  -5 -12   5   73.13   17.24
  -5 -12  -5   81.17   15.31
   5 -12   5   87.50   11.10
  -5  12   6   30.57    5.00
  -5  12  -6   33.63    4.32
   5  12   6   27.96    9.05
   5  12  -6   30.68    4.22
  -5 -12   6   32.22    6.83
  -5 -12  -6   18.49    5.65
   5 -12   6   30.11    5.20
  -5  12   7  156.98    7.07
  -5  12  -7  187.51   17.62
   5  12   7  163.88    7.81
   5  12  -7  184.23   18.37
  -5 -12   7  175.56   21.30
  -5 -12  -7  176.23    7.63
   5 -12   7  160.38   14.05
  -5  12   8  120.79    6.81
  -5  12  -8  130.16   11.62
   5  12  -8  121.25    7.80
   5  12   8  133.26    6.15
  -5 -12   8  122.00   25.99
  -5 -12  -8  111.77    9.81
   5 -12   8  108.62   17.28
  -5 -12   8  140.55    8.54
  -5  12   9   19.73    5.66
  -5  12  -9   24.63    5.99
   5  12  -9   24.68    8.14
  -5 -12   9   25.65    5.37
  -5 -12  -9   24.31    5.69
   5 -12   9   23.08    8.73
  -5 -12   9   19.10    5.85
  -5  12  10   13.69    5.40
  -5  12 -10   17.17    5.23
   5  12 -10   17.62    4.85
  -5 -12  10   14.89    2.73
  -5 -12 -10   10.54    4.28
   5 -12  10   17.74    6.31
  -5 -12  10   12.87    5.96
  -5  12  11   24.07   10.50
  -5  12 -11   36.07    9.92
   5  12 -11   43.04   10.54
  -5 -12  11   37.13    9.26
  -5 -12 -11   32.52    7.81
   5 -12  11   37.91   11.42
  -5 -12  11   27.08   11.48
  -5  12 -12    3.25    2.00
   5  12 -12    3.42    3.56
  -5 -12  12    3.42    3.28
   5 -12  12   16.36    7.09
  -5 -12  12    7.88    3.71
  -5  12 -13    2.09    2.45
   5  12 -13    8.40    3.68
  -5 -12  13    4.76    5.61
   5 -12  13    1.48    4.49
  -5 -12  13    2.27    1.73
  -5  12 -14   22.40    4.18
   5  12 -14   14.81    4.09
  -5 -12  14   14.35    6.44
   5 -12  14   18.27    6.43
  -5 -12  14   17.70    7.41
  -5  13   0   88.97    6.64
   5  13   0  106.15   19.65
  -5 -13   0   98.52    7.91
  -5  13   1   39.40    9.37
  -5  13  -1   52.78   11.79
   5  13   1   51.03   11.39
   5  13  -1   48.05    7.37
  -5 -13   1   60.94   13.41
  -5 -13  -1   49.82   13.11
  -5  13   2   71.29    5.94
  -5  13  -2   66.05   16.29
   5  13  -2   66.30   15.79
   5  13   2   63.60    9.52
  -5 -13   2   77.50   11.35
  -5 -13  -2   82.29   18.16
  -5  13   3   23.53    5.89
  -5  13  -3   14.37    3.47
   5  13   3   14.82    4.47
   5  13  -3   21.95    5.41
  -5 -13   3   18.76    4.15
  -5 -13  -3   22.44    5.66
  -5  13   4   51.59   15.23
  -5  13  -4   59.05    7.22
   5  13   4   58.53   11.37
   5  13  -4   52.18   15.48
  -5 -13   4   62.85   13.77
  -5 -13  -4   44.46   12.00
   5 -13   4   50.09   11.01
  -5  13   5   11.65    3.63
  -5  13  -5   14.29    3.19
   5  13   5    9.54    4.15
   5  13  -5   12.86    5.53
  -5 -13   5   14.87    5.44
  -5 -13  -5   13.53    4.31
   5 -13   5   13.30    4.63
  -5  13   6   54.74   11.71
  -5  13  -6   53.21   14.14
   5  13   6   53.09   13.02
   5  13  -6   65.68    6.85
  -5 -13   6   64.50   16.54
  -5 -13  -6   51.16   16.27
   5 -13   6   62.70    6.28
  -5  13   7    5.73    1.98
  -5  13  -7   10.52    2.49
   5  13   7    5.04    3.96
   5  13  -7    5.89    2.59
  -5 -13   7   12.81    4.58
  -5 -13  -7    6.41    2.09
   5 -13   7    3.06    3.54
  -5  13   8   80.73    5.21
  -5  13  -8   74.37    8.79
   5  13  -8   83.24   19.82
   5  13   8   82.90    4.85
  -5 -13   8   94.03   10.13
  -5 -13  -8   65.01   15.18
   5 -13   8   83.00   10.30
  -5  13   9    3.29    2.44
  -5  13  -9   -0.56    2.37
   5  13  -9    1.88    2.09
  -5 -13   9    2.64    2.52
  -5 -13  -9    0.75    2.21
   5 -13   9   -2.04    3.89
  -5 -13   9   -0.81    3.04
  -5  13  10   14.78    6.65
  -5  13 -10   26.04    4.76
   5  13 -10   20.15    4.51
  -5 -13  10   27.43    6.00
  -5 -13 -10   13.75    4.38
   5 -13  10   13.34   10.40
  -5 -13  10   18.89    7.74
  -5  13  11   21.02    4.08
  -5  13 -11   16.22    5.33
   5  13 -11   21.73    5.01
  -5 -13  11   19.31    4.19
   5 -13  11   16.65    8.79
  -5 -13  11   17.26    4.67
  -5  13 -12    4.91    1.66
   5  13 -12   12.00    3.05
  -5 -13  12   10.75    4.29
   5 -13  12   11.16    5.00
  -5 -13  12    4.86    2.99
  -5  13 -13   17.65    6.01
   5  13 -13   20.72    4.23
  -5 -13  13   13.50    3.15
   5 -13  13   14.89    3.97
  -5 -13  13   10.20    6.57
  -5  14   0   64.12    7.01
   5  14   0   74.60   15.19
  -5 -14   0   71.49   13.27
  -5  14   1   46.84   10.84
  -5  14  -1   42.27   11.59
   5  14   1   49.82    9.49
   5  14  -1   55.12    7.27
  -5 -14   1   50.22   20.10
  -5 -14  -1   46.71   16.11
  -5  14   2   57.88    7.37
  -5  14  -2   54.20   18.19
   5  14  -2   51.00   10.48
   5  14   2   50.91    8.20
  -5 -14   2   54.69   13.78
  -5 -14  -2   55.18   17.82
  -5  14   3   24.40    5.93
  -5  14  -3   16.20    5.01
   5  14   3   14.89    4.11
   5  14  -3   22.75    5.08
  -5 -14   3   19.42    4.63
  -5 -14  -3   19.62    4.55
  -5  14   4   93.97    6.06
  -5  14  -4   90.12   11.02
   5  14   4   86.99   15.48
   5  14  -4   82.56   18.00
  -5 -14   4   90.08   19.99
  -5 -14  -4   88.31   19.90
  -5  14   5   26.45    4.31
  -5  14  -5   29.02    4.45
   5  14   5   26.82    8.26
   5  14  -5   27.01    7.58
  -5 -14   5   25.99   10.37
  -5 -14  -5   21.61    7.25
   5 -14   5   28.56    7.72
  -5  14   6    3.16    2.52
  -5  14  -6    3.64    3.63
   5  14   6    1.49    1.56
   5  14  -6    1.13    2.20
  -5 -14   6    5.41    2.95
  -5 -14  -6    2.25    1.23
   5 -14   6   -0.34    3.30
  -5  14   7   15.76    5.09
  -5  14  -7   17.43    3.05
   5  14  -7   15.26    5.81
   5  14   7   11.51    4.02
  -5 -14   7   17.88    5.68
  -5 -14  -7   16.83    4.38
   5 -14   7   15.01    7.11
  -5  14   8   29.16    9.60
  -5  14  -8   26.76    8.19
   5  14  -8   34.50    9.19
  -5 -14   8   28.63    8.59
  -5 -14  -8   26.49    7.01
   5 -14   8   36.39   10.85
  -5  14   9   10.75    3.59
  -5  14  -9   11.25    3.27
   5  14  -9    8.33    3.61
  -5 -14   9    9.08    3.23
   5 -14   9    3.97    5.50
  -5  14  10   12.67    4.20
  -5  14 -10   12.21    4.35
   5  14 -10   13.09    3.20
  -5 -14  10   14.19    5.63
   5 -14  10    7.35    6.15
  -5 -14  10   43.44   15.30
  -5  14 -11   30.10    8.44
   5  14 -11   28.92    9.19
  -5 -14  11   35.82   10.09
   5 -14  11   32.47   12.36
  -5 -14  11   28.24    5.96
  -5  14 -12    8.07    3.31
   5  14 -12    6.79    2.62
  -5 -14  12    6.35    3.69
   5 -14  12    7.99    5.00
  -5 -14  12    3.91    2.60
  -5  15   0   15.37    4.45
   5  15   0   14.73    5.26
  -5 -15   0   17.45    6.65
  -5  15   1   38.27   12.59
  -5  15  -1   45.30    5.30
   5  15  -1   38.23   11.24
   5  15   1   31.35   13.22
  -5 -15   1   40.35   12.91
  -5 -15  -1   38.76    9.60
  -5  15   2   25.02    7.78
  -5  15  -2   24.69    9.47
   5  15   2   27.85    6.23
   5  15  -2   31.31    9.39
  -5 -15   2   24.23    7.34
  -5 -15  -2   31.65   12.03
  -5  15   3   33.14   10.29
  -5  15  -3   40.35    9.04
   5  15  -3   37.39   11.36
   5  15   3   32.37    9.97
  -5 -15   3   39.91   12.60
  -5 -15  -3   30.88    9.59
  -5  15   4    2.41    1.82
  -5  15  -4    1.76    2.07
   5  15   4    0.63    1.09
   5  15  -4   -1.09    2.56
  -5 -15   4    2.72    2.47
  -5 -15  -4    6.59    3.86
  -5  15   5   11.78    3.94
  -5  15  -5   13.20    2.69
   5  15   5   17.79    4.72
   5  15  -5   16.10    4.41
  -5 -15   5   13.40    4.82
  -5  15   6   32.52   12.86
  -5  15  -6   33.92    6.91
   5  15   6   34.76    8.86
   5  15  -6   37.66    7.89
  -5 -15   6   37.15    8.89
  -5 -15  -6   26.74    5.73
   5 -15   6   35.54   10.78
  -5  15   7    7.44    4.30
  -5  15  -7   18.03    6.03
   5  15  -7   11.74    4.95
   5  15   7   20.57    6.17
  -5 -15   7   17.69    6.09
   5 -15   7   15.93    7.39
  -5  15   8    6.23    2.33
  -5  15  -8    7.36    2.91
   5  15  -8    2.52    2.03
  -5 -15   8    9.16    4.11
   5 -15   8    5.72    4.47
  -5  15   9    8.21    3.43
  -5  15  -9   15.56    4.25
   5  15  -9   14.94    3.37
  -5 -15   9   13.67    5.96
   5 -15   9    8.61    2.55
  -5  15  10   26.18    7.82
  -5  15 -10   28.93    9.14
   5  15 -10   26.20    8.29
  -5 -15  10   34.02    7.10
   5 -15  10   22.51    5.64
  -5  16   0    4.19    2.95
   5  16   0    6.33    4.25
  -5 -16   0    7.92    2.42
  -5  16   1   18.13    5.27
  -5  16  -1   17.63    2.76
   5  16   1   15.00    5.24
   5  16  -1   16.88    5.42
  -5 -16   1   23.70    4.71
  -5 -16  -1   18.78    6.02
  -5  16   2   15.32    4.85
  -5  16  -2   15.31    4.13
   5  16   2   15.47    3.45
   5  16  -2   15.69    4.97
  -5 -16   2    7.22    3.88
  -5 -16  -2   15.66    4.01
  -5  16   3    0.90    1.31
  -5  16  -3    0.19    1.42
   5  16  -3    3.59    2.57
   5  16   3    1.35    1.60
  -5 -16   3    2.09    2.36
  -5 -16  -3    1.59    1.73
  -5  16   4   21.95    6.90
  -5  16  -4   28.53    6.68
   5  16  -4   23.83    6.35
   5  16   4   22.07    8.07
  -5 -16   4   28.59    6.29
  -5 -16  -4   21.96    8.01
  -5  16   5   24.41    5.93
  -5  16  -5   21.98    4.72
   5  16   5   19.87    7.24
   5  16  -5   30.36    7.54
  -5 -16   5   23.89    7.31
  -5  16   6   71.93   20.23
  -5  16  -6   70.15   16.08
   5  16  -6   99.20    7.62
   5  16   6  102.16   12.62
  -5 -16   6   78.38   22.96
  -5  16   7    3.86    2.47
  -5  16  -7    4.05    2.99
   5  16   7   11.53    4.11
   5  16  -7   13.58    3.17
  -5 -16   7    8.18    3.38
   5 -16   7    4.37    6.08
  -5  16   8   10.54    3.96
  -5  16  -8   11.54    1.80
   5  16  -8   12.85    3.74
  -5 -16   8   12.77    4.88
   5 -16   8    3.05    4.77
  -5  17   0   26.66    9.84
   5  17   0   28.22    8.96
  -5 -17   0   40.44   10.16
  -5  17   1    6.89    3.61
  -5  17  -1    1.56    2.79
   5  17  -1    2.54    1.73
   5  17   1    3.63    1.79
  -5 -17   1    4.77    4.40
  -5 -17  -1    0.29    3.66
  -5  17   2    0.72    2.15
  -5  17  -2    2.73    1.41
   5  17   2    3.11    3.05
   5  17  -2   -0.50    3.19
  -5 -17   2    3.85    2.08
  -5 -17  -2    1.03    2.60
  -5  17   3   42.36   12.57
  -5  17  -3   48.33   10.04
   5  17  -3   50.98   12.47
   5  17   3   46.99   16.77
  -5 -17   3   55.66   12.34
  -5  17   4   13.00    5.93
  -5  17  -4   18.20    8.75
   5  17  -4   20.02    5.03
   5  17   4   11.45    5.61
  -5 -17   4   13.32    5.26
   6   0   0 1977.29   24.19
  -6   0   0 2017.92   24.89
   6   0   0 2006.65   21.30
   6   0  -1  481.63   13.41
   6   0   1  487.66   14.63
  -6   0   1  486.54   13.45
  -6   0  -1  479.03   13.33
   6   0   1  481.79   12.31
   6   0  -2   72.58    5.05
   6   0   2   72.37    5.63
  -6   0   2   73.04    5.01
  -6   0  -2   69.29    5.04
   6   0   2   70.02    4.36
  -6   0  -3 1123.99   25.27
   6   0  -3 1106.01   24.57
  -6   0   3 1107.13   25.33
  -6   0  -3 1132.96   25.41
   6   0   3 1136.99   24.62
  -6   0   3 1186.11   23.73
  -6   0  -4  234.52    8.15
   6   0  -4  223.57   10.90
  -6   0   4  240.46   10.67
  -6   0  -4  226.45    8.55
   6   0   4  233.10   10.62
  -6   0  -5  775.63   18.49
   6   0  -5  778.03   18.48
  -6   0   5  790.50   18.21
  -6   0  -5  767.84   18.60
   6   0   5  780.04   18.40
  -6   0  -6  231.37    8.20
   6   0  -6  230.68    8.81
  -6   0   6  225.96   10.89
  -6   0  -6  238.34    9.61
   6   0   6  224.99   11.92
  -6   0  -7 1663.78   34.86
   6   0  -7 1574.79   34.84
  -6   0   7 1658.09   36.06
  -6   0  -7 1544.06   34.30
   6   0   7 1552.60   34.97
  -6   0  -8    1.95    1.81
   6   0  -8    1.52    1.06
  -6   0   8    0.76    1.52
  -6   0  -8    1.78    1.78
   6   0   8    2.15    1.18
  -6   0  -9  670.03   18.89
   6   0  -9  685.46   20.64
  -6   0   9  677.53   20.60
  -6   0  -9  657.07   20.64
   6   0   9  661.74   20.31
  -6   0 -10  104.08    3.57
   6   0 -10  105.98    8.89
  -6   0  10  103.86    4.51
  -6   0 -10   97.59    9.80
   6   0  10   97.97    4.94
  -6   0 -11   16.91    2.65
   6   0 -11   18.70    2.78
  -6   0 -11   20.52    3.73
  -6   0  11   19.19    5.04
   6   0  11   15.72    4.65
   6   0 -12  515.36   12.00
  -6   0 -12  494.04   13.80
  -6   0  12  520.55   13.18
   6   0  12  484.78   19.34
   6   0 -13   42.83    4.19
  -6   0 -13   40.29   11.75
  -6   0  13   36.90    4.58
   6   0  13   40.09   10.20
   6   0 -14   46.83    3.88
  -6   0 -14   43.33   13.04
  -6   0  14   39.20    7.81
   6   0  14   37.05    9.99
   6   0 -15  362.29    8.42
  -6   0 -15  349.71   11.81
  -6   0  15  354.35    9.40
   6   0  15  388.36   13.17
  -6   0 -16   41.86   11.02
  -6   0  16   36.02   14.32
   6   0  16   40.36    9.74
  -6   0 -17    6.31    2.44
  -6   0  17   11.04    4.38
   6   0  17   12.18    3.16
  -6   0 -18   31.92    4.86
  -6   0  18   26.72    6.84
   6   0  18   31.59    8.24
  -6   0 -19   45.00   14.95
  -6   0  19   37.40   17.64
   6   0  19   43.12   15.26
  -6   1   0   11.97    3.19
   6   1   0    8.65    1.84
  -6  -1   0    8.07    3.12
  -6   1   0    6.95    2.61
   6   1   0    7.49    1.45
   6  -1   0    7.01    2.05
  -6   1  -1   78.12    5.31
   6   1  -1   77.97    5.46
   6   1   1   82.27    8.54
  -6  -1   1   79.27    5.71
  -6   1   1   72.07    5.61
  -6  -1  -1   82.09    5.67
  -6   1  -1   76.79    5.59
   6   1   1   75.95    4.49
   6  -1   1   76.91    6.04
   6   1  -2  139.96    5.74
   6   1   2  102.93    6.83
   6  -1  -2  104.27    8.92
  -6  -1   2  103.50    6.68
  -6   1   2  141.36    5.45
  -6  -1  -2  142.55    6.24
   6   1   2  101.86    6.02
   6  -1   2  139.76    6.14
  -6   1  -3  414.99   13.14
   6   1  -3  420.92   14.50
   6   1   3  423.32   13.09
   6  -1  -3  415.44   13.42
  -6  -1   3  420.80   13.72
  -6   1   3  435.08   13.54
  -6  -1  -3  434.51   15.77
  -6   1  -3  442.13   14.10
   6  -1   3  440.71   13.40
  -6   1  -4  476.18   14.76
   6   1  -4  425.85   13.89
   6  -1  -4  493.28   15.46
   6   1   4  495.90   15.00
  -6  -1   4  497.61   15.49
  -6   1   4  438.67   13.79
  -6  -1  -4  452.39   14.63
  -6   1  -4  485.75   17.09
   6  -1   4  436.51   13.55
  -6  -1   4  490.80   13.68
  -6  -1  -5  167.84    8.56
  -6   1  -5  152.47    5.85
   6   1  -5  164.17    6.73
   6  -1  -5  156.72    6.35
  -6  -1   5  159.22    6.39
  -6   1   5  159.59    7.97
  -6  -1  -5  163.50    7.07
  -6   1  -5  154.30    6.58
   6  -1   5  161.24    7.27
  -6  -1   5  159.81    5.04
  -6  -1  -6  907.13   19.95
  -6   1  -6  981.25   22.19
   6   1  -6  931.92   21.47
   6  -1  -6  929.08   22.05
  -6  -1   6  938.79   21.51
  -6   1   6  960.88   21.47
  -6  -1  -6  930.05   22.23
  -6   1  -6 1001.31   23.23
   6  -1   6  899.48   22.27
  -6  -1   6  933.20   19.58
  -6  -1  -7  293.74   10.19
  -6   1  -7  322.65   11.31
   6   1  -7  293.84   10.91
   6  -1  -7  286.74   13.34
  -6  -1   7  305.43   13.72
  -6   1   7  309.73   10.97
  -6  -1  -7  284.53   11.09
  -6   1  -7  291.63   11.11
  -6  -1   7  310.15   10.37
   6  -1   7  291.34   10.99
  -6  -1  -8  376.81   11.01
  -6   1  -8  426.74   13.22
   6   1  -8  383.79   12.75
   6  -1  -8  441.51   13.92
  -6  -1   8  448.70   14.91
  -6   1   8  390.45   12.41
  -6  -1  -8  384.92   13.07
  -6   1  -8  420.29   13.79
  -6  -1   8  434.91   13.58
   6  -1   8  396.21   13.22
  -6  -1  -9   55.98    2.30
  -6   1  -9   57.71    7.15
   6   1  -9   64.08    7.01
   6  -1  -9   55.42    3.70
  -6  -1   9   54.84    3.89
  -6   1   9   59.45    3.25
  -6  -1  -9   55.60    6.58
  -6   1  -9   58.38    9.30
  -6  -1   9   53.03    6.17
   6  -1   9   59.01    7.93
  -6  -1 -10  290.84    7.68
  -6   1 -10  307.64    9.10
   6   1 -10  285.37    9.78
   6  -1 -10  321.24    9.71
  -6  -1  10  311.83    9.91
  -6   1  10  295.00    8.87
  -6  -1 -10  290.79   10.20
  -6   1 -10  312.74   10.50
  -6  -1  10  309.53   11.04
   6  -1  10  285.82   15.63
  -6   1 -11   72.46    4.59
   6   1 -11   85.31    6.05
   6  -1 -11   73.41   14.37
  -6   1  11   76.32    4.26
  -6  -1 -11   71.58    7.46
  -6   1 -11   76.38    8.78
  -6  -1  11   74.05    3.84
   6  -1  11   76.25    8.01
   6   1 -12   16.62    3.70
  -6  -1 -12   12.66    2.84
  -6   1 -12   12.96    5.19
   6   1  12    7.33    4.19
  -6  -1  12   11.70    3.17
   6  -1  12   18.47    5.16
  -6   1  13   16.51    4.58
   6   1 -13   10.62    2.49
  -6  -1 -13   12.42    3.55
  -6   1 -13    4.82    1.78
   6   1  13    1.55    1.57
  -6  -1  13    3.84    1.44
   6  -1  13   12.58    4.54
  -6   1  14   81.42    8.35
   6   1 -14   88.29    9.44
  -6  -1 -14   81.40    9.28
  -6   1 -14   94.23    5.40
   6   1  14   99.53   10.10
  -6  -1  14   93.39   10.20
   6  -1  14   86.72   13.13
   6   1 -15   83.66    4.42
  -6  -1 -15   78.51   20.99
  -6   1 -15   81.05   15.54
  -6   1  15   82.32    5.36
   6   1  15   68.20   17.28
   6  -1  15   99.42   10.83
  -6  -1  15   77.16    8.97
  -6  -1 -16  141.60   20.64
  -6   1 -16  142.76   16.37
  -6   1  16  119.84   14.14
   6   1  16  122.70   29.14
  -6  -1  16  135.31    6.56
   6  -1  16  113.12   26.78
  -6  -1 -17   16.56    4.84
  -6   1 -17   21.75    5.74
  -6   1  17   15.34    5.92
   6   1  17   19.25    5.43
   6  -1  17   18.50    7.41
  -6  -1  17   14.40    5.56
  -6  -1 -18   20.40    4.68
  -6   1 -18   19.13    5.06
  -6   1  18   16.40    6.87
   6   1  18   13.88    5.24
   6  -1  18   20.64    8.47
  -6  -1  18   17.88    5.10
  -6  -1 -19    4.46    4.09
  -6   1 -19   13.30    2.87
  -6   1  19    7.37    3.19
   6   1  19    5.62    3.06
   6  -1  19    9.28    5.13
  -6  -1  19    7.73    2.89
  -6   2   0  540.81   16.74
   6   2   0  555.03   17.01
  -6  -2   0  569.22   17.65
  -6   2   0  565.18   16.92
   6  -2   0  576.82   16.88
  -6   2   1  141.16    5.79
  -6   2  -1  178.37    7.07
   6   2  -1  154.83    6.19
  -6  -2   1  177.33    6.91
  -6  -2  -1  145.86    6.13
  -6   2   1  145.72    5.50
   6  -2   1  145.25    5.52
  -6   2   2  741.82   17.65
  -6   2  -2  819.47   18.83
   6   2  -2  756.84   17.70
   6   2   2  824.26   18.60
  -6  -2   2  801.88   18.93
  -6   2   2  768.76   17.22
  -6  -2  -2  749.32   18.28
  -6   2  -2  837.51   19.04
   6  -2   2  727.93   16.70
  -6   2   3  709.61   17.04
  -6   2  -3  668.97   15.69
   6   2  -3  725.82   18.08
   6   2   3  699.47   16.11
  -6  -2   3  697.58   17.12
  -6   2   3  736.74   16.36
  -6  -2  -3  771.73   20.27
  -6   2  -3  678.17   16.49
   6  -2   3  736.29   16.75
  -6   2   4  121.12    8.54
  -6   2  -4  103.21    6.56
   6   2  -4  109.95    7.11
   6   2   4  101.21    6.27
  -6  -2   4  102.04    6.92
  -6   2   4  117.41    7.14
  -6  -2  -4  111.56    7.64
  -6   2  -4   98.30    6.49
   6  -2   4  124.81    4.04
  -6  -2   4   99.70    5.61
  -6   2   5   47.29    7.15
  -6   2  -5   49.83    3.81
   6   2  -5   50.68    6.70
   6   2   5   40.60    3.20
  -6  -2   5   44.57    9.25
  -6   2   5   43.38    4.36
  -6  -2  -5   41.94    4.17
  -6   2  -5   43.61    4.22
   6  -2   5   46.95    3.96
  -6  -2   5   42.35    2.79
  -6   2   6  335.56   12.42
  -6   2  -6  347.17   11.84
   6   2  -6  331.93   12.13
   6   2   6  336.44   12.42
  -6  -2   6  349.46   12.75
  -6   2   6  329.14   11.28
  -6  -2  -6  327.20   12.60
  -6   2  -6  324.75   11.98
   6  -2   6  318.17   11.81
  -6  -2   6  354.21   11.57
  -6  -2  -7  178.42    7.59
  -6   2   7  178.88    7.70
  -6   2  -7  194.91    7.55
   6   2  -7  180.09    7.77
  -6  -2   7  173.87    9.12
  -6   2   7  178.36    8.04
  -6  -2  -7  169.59   10.36
  -6   2  -7  190.26    8.20
   6  -2   7  177.78    7.92
  -6  -2   7  186.38    6.71
  -6   2   8   22.27    5.90
  -6  -2  -8   19.71    4.89
  -6   2  -8   31.33    6.36
   6   2  -8   24.46    6.83
  -6  -2   8   30.40    8.60
  -6   2   8   21.62    6.52
  -6  -2  -8   23.22    8.27
  -6   2  -8   30.02    7.99
   6  -2   8   21.40    4.85
  -6  -2   8   27.69    4.91
  -6   2   9  331.63   11.04
  -6  -2  -9  308.66    8.16
  -6   2  -9  298.80    9.49
   6   2  -9  327.95   10.48
  -6  -2   9  296.42    9.71
  -6   2   9  313.85    8.96
  -6  -2  -9  309.35   10.31
  -6   2  -9  297.45    9.82
   6  -2   9  307.39   10.36
  -6  -2   9  296.30    9.00
  -6   2  10  208.00    6.19
  -6  -2 -10  213.92    7.00
  -6   2 -10  226.75    8.01
   6   2 -10  228.11    9.19
  -6  -2  10  214.64   11.99
  -6   2  10  217.53    8.27
  -6  -2 -10  207.15    9.36
  -6   2 -10  238.58    9.98
   6  -2  10  218.17   10.03
  -6  -2  10  228.25   10.04
  -6   2  11  220.10    8.71
  -6   2 -11  232.04    8.97
   6   2 -11  222.71    7.45
  -6   2  11  213.21    7.12
  -6  -2 -11  212.16    9.63
  -6   2 -11  242.87    8.62
   6  -2  11  207.39    7.94
  -6  -2  11  211.87    7.25
  -6   2  12   80.30    4.14
  -6   2 -12   69.43    2.96
   6   2 -12   81.76    9.06
  -6   2  12   77.76    3.82
  -6  -2 -12   78.70    8.86
  -6   2 -12   77.79   14.80
   6  -2  12   79.31   11.79
  -6  -2  12   67.58    7.20
  -6   2  13  108.09    5.56
   6   2 -13  108.01    5.57
  -6  -2 -13  102.03    8.23
  -6   2 -13  107.67    8.79
   6  -2  13  104.00   12.61
  -6  -2  13   97.46    5.75
  -6   2  14  113.47    5.36
   6   2 -14  121.88   11.18
  -6  -2 -14  113.94    9.40
  -6   2 -14  130.92   19.13
   6  -2  14  126.95    8.90
   6   2 -15  111.80    8.88
  -6  -2 -15  122.52   14.23
  -6   2 -15  123.91    9.58
   6   2  15  121.65   17.47
   6  -2  15  125.28    9.85
  -6  -2  15  110.45    6.07
  -6  -2 -16   10.93    2.75
  -6   2 -16    5.00    2.79
   6   2  16    4.85    4.12
   6  -2  16    8.52    2.63
  -6  -2  16    4.39    2.22
  -6  -2 -17   54.19   14.44
  -6   2 -17   61.80    8.16
   6   2  17   54.78   16.24
   6  -2  17   73.08    7.94
  -6  -2  17   58.53    6.86
  -6  -2 -18   47.95   12.68
  -6   2 -18   37.64   10.36
  -6   2  18   28.73   11.96
   6   2  18   39.27   12.02
   6  -2  18   35.07   11.26
  -6  -2  18   32.34   11.96
  -6  -2 -19   22.88    4.51
  -6   2 -19   27.46    4.63
  -6   2  19   22.55    9.95
   6   2  19   24.74    7.26
   6  -2  19   20.72    5.15
  -6   3   0 1768.44   38.14
   6   3   0 1721.53   36.85
  -6  -3   0 1702.64   39.26
  -6   3   0 1755.07   37.25
   6  -3   0 1795.36   37.65
  -6   3   1   83.22    6.05
  -6   3  -1   79.75    6.53
   6   3  -1   69.93    5.04
   6   3   1   76.15    5.14
  -6  -3   1   77.18    6.28
  -6  -3  -1   77.75    5.90
  -6   3   1   73.25    4.69
  -6   3  -1   83.82    6.29
   6  -3   1   70.32    4.98
  -6   3   2  291.19   11.79
  -6   3  -2  252.63    8.80
   6   3  -2  308.41   10.85
   6   3   2  268.08    9.30
  -6  -3   2  262.33   11.98
  -6  -3  -2  295.88   10.64
  -6   3   2  309.69    9.53
  -6   3  -2  266.07    8.88
   6   3  -2  300.55    8.73
   6  -3   2  307.62   10.19
  -6   3   3  473.92   15.23
  -6   3  -3  436.63   14.21
   6   3  -3  411.50   13.46
   6   3   3  415.11   13.04
  -6  -3   3  393.66   13.20
  -6  -3  -3  395.91   13.50
  -6   3   3  415.66   12.84
  -6   3  -3  439.85   13.83
   6   3  -3  407.58   11.58
   6  -3   3  411.27   13.23
  -6   3   4  810.81   20.11
  -6   3  -4  789.18   18.30
   6   3  -4  777.28   18.64
   6   3   4  808.00   18.63
  -6  -3   4  784.75   22.75
  -6   3   4  815.03   17.67
  -6  -3  -4  779.54   20.77
  -6   3  -4  780.58   19.12
   6  -3   4  760.77   18.22
  -6  -3   4  757.58   16.62
  -6   3   5  897.71   21.11
  -6   3  -5  876.07   19.78
   6   3  -5  863.11   20.49
   6   3   5  870.61   19.18
  -6  -3   5  845.88   22.83
  -6   3   5  856.24   18.79
  -6  -3  -5  857.50   21.23
  -6   3  -5  911.11   21.40
   6  -3   5  868.11   22.74
  -6  -3   5  854.13   18.57
  -6   3   6   -0.73    2.33
   6   3  -6    2.61    2.32
   6   3   6    1.24    0.82
  -6  -3   6    0.49    1.72
  -6   3   6    2.97    0.91
  -6  -3  -6    3.25    2.15
   6  -3   6   -2.36    2.66
  -6  -3   6    3.58    1.66
  -6   3   7  377.12   13.68
  -6   3  -7  366.42   11.59
   6   3  -7  349.44   11.70
   6   3   7  325.31    9.78
  -6  -3   7  323.75   11.37
  -6   3   7  336.44   10.10
  -6  -3  -7  339.86   11.87
  -6   3  -7  341.59   11.50
   6  -3   7  343.88   12.60
  -6  -3   7  333.95   10.91
  -6   3   8   97.63    5.81
  -6   3  -8  123.78    6.99
   6   3  -8  118.71    9.19
   6   3   8  118.90    5.79
  -6  -3   8  125.78    7.66
  -6   3   8  116.32    6.45
  -6  -3  -8  110.47    6.79
  -6   3  -8  118.06    6.97
   6  -3   8  113.34    8.73
  -6  -3   8  122.43    6.45
  -6  -3  -9  266.67    8.19
  -6   3   9  272.98   10.86
  -6   3  -9  271.98   13.14
   6   3  -9  274.52    9.41
  -6  -3   9  265.94    9.43
  -6   3   9  281.11    8.21
  -6  -3  -9  268.82   12.98
  -6   3  -9  276.56    9.37
   6  -3   9  268.38   11.92
  -6  -3   9  267.34    8.50
  -6   3  10   53.65    3.40
  -6  -3 -10   50.62    2.63
  -6   3 -10   65.20    4.72
   6   3 -10   46.38    4.13
  -6  -3  10   58.52   18.12
  -6   3  10   52.09    2.89
  -6  -3 -10   53.53    5.73
  -6   3 -10   65.58    6.22
   6  -3  10   52.55    4.85
  -6  -3  10   69.18    3.68
  -6   3  11   80.88    6.26
  -6   3 -11   86.69    3.71
   6   3 -11   77.48    5.96
  -6  -3  11   72.99    7.76
  -6   3  11   79.82    3.63
  -6  -3 -11   68.23    6.76
  -6   3 -11   76.79    5.35
   6  -3  11   77.64    6.78
  -6  -3  11   77.86    4.25
  -6   3  12  250.41    9.04
  -6   3 -12  226.83    8.05
   6   3 -12  245.91    8.44
  -6   3  12  227.78    7.15
  -6  -3 -12  225.83    8.36
  -6   3 -12  232.10    9.47
   6  -3  12  235.74   10.89
  -6  -3  12  211.58    7.41
  -6   3  13   71.73    6.83
   6   3 -13   73.45    6.26
  -6   3  13   67.94    4.02
  -6  -3 -13   68.29    5.70
  -6   3 -13   75.78    5.52
   6  -3  13   65.84    9.08
  -6  -3  13   71.68    9.89
  -6   3  14    7.01    3.02
   6   3 -14    4.18    2.03
  -6  -3 -14    5.97    2.23
  -6   3 -14    8.55    3.66
   6  -3  14    4.02    2.10
   6   3 -15   15.40    4.20
  -6  -3 -15   19.53    4.26
  -6   3 -15   17.36    6.83
   6  -3  15   21.34    5.22
  -6  -3  15   17.88    6.09
   6   3 -16   35.51    9.11
  -6  -3 -16   42.35   10.86
  -6   3 -16   44.16   10.33
   6  -3  16   48.58   12.76
  -6  -3  16   34.20   12.46
  -6  -3 -17   79.09    9.63
  -6   3 -17   76.40    8.11
   6  -3  17   68.05   21.22
  -6  -3  17   69.95    7.00
  -6  -3 -18    6.36    2.95
  -6   3 -18   10.12    4.72
   6   3  18    2.53    3.64
   6  -3  18    5.66    3.44
  -6  -3  18    8.99    3.71
  -6  -3 -19   15.82    3.75
  -6   3 -19   17.49    4.61
   6   3  19   16.90    8.86
   6  -3  19   20.83    5.14
  -6   4   0  255.07    9.24
   6   4   0  268.40    9.48
  -6  -4   0  245.95    9.36
  -6   4   0  261.49    8.45
   6  -4   0  263.04    9.06
  -6   4   1    7.39    3.81
  -6   4  -1   15.53    5.80
   6   4  -1   10.34    2.53
   6   4   1   16.15    5.64
  -6  -4   1   15.05    6.98
  -6  -4  -1    8.53    2.94
  -6   4   1   10.16    3.10
  -6   4  -1   16.63    5.50
   6  -4   1    9.66    4.26
  -6   4   2   63.60    6.97
  -6   4  -2   88.01   12.04
   6   4  -2   64.36    5.03
   6   4   2   80.63    5.66
  -6  -4   2   77.35   10.97
  -6  -4  -2   71.82    6.85
  -6   4   2   68.02    4.40
  -6   4  -2   75.01    5.00
   6  -4   2   58.18    5.42
  -6   4   3  349.25   13.51
  -6   4  -3  363.01   12.27
   6   4  -3  349.57   14.79
   6   4   3  359.50   11.68
  -6  -4   3  366.36   13.08
  -6  -4  -3  344.09   12.26
  -6   4   3  357.52   10.75
  -6   4  -3  346.27   12.25
   6  -4   3  338.74   11.88
  -6   4   4 1539.26   35.63
  -6   4  -4 1496.17   32.77
   6   4  -4 1514.71   33.44
   6   4   4 1560.34   33.05
  -6  -4   4 1551.23   37.39
  -6  -4  -4 1472.02   33.42
  -6   4   4 1513.08   30.83
   6  -4   4 1539.13   33.54
  -6  -4   4 1511.78   31.20
  -6   4   5   38.80   10.81
  -6   4  -5   34.59    7.60
   6   4  -5   39.44   10.22
   6   4   5   37.70    6.32
  -6  -4   5   31.80    5.20
  -6   4   5   35.71    2.33
  -6  -4  -5   35.97    4.07
  -6   4  -5   34.10    5.27
   6  -4   5   32.38   10.52
  -6  -4   5   35.49    1.90
  -6   4   6  173.67    7.42
  -6   4  -6  142.54    6.23
   6   4  -6  176.12    7.79
   6   4   6  153.52    6.11
  -6  -4   6  155.66    7.52
  -6   4   6  172.76    6.04
  -6  -4  -6  164.63    9.06
  -6   4  -6  150.48    8.76
   6  -4   6  176.52    8.69
  -6  -4   6  157.27    6.33
  -6   4   7   58.23    6.78
  -6   4  -7   59.80    4.05
   6   4  -7   58.08    6.80
   6   4   7   55.83    2.40
  -6  -4   7   54.75   14.10
  -6   4   7   50.17    2.60
  -6  -4  -7   51.17    4.11
  -6   4  -7   55.64    5.45
   6  -4   7   55.68    4.67
  -6  -4   7   52.81    5.26
  -6   4   8  374.64   12.94
  -6   4  -8  415.45   19.01
   6   4  -8  359.10   11.51
   6   4   8  343.59    9.88
  -6  -4   8  348.92   11.40
  -6   4   8  347.71    9.36
  -6  -4  -8  339.32   11.81
  -6   4  -8  382.01   12.79
   6  -4   8  388.45   13.03
  -6  -4   8  360.09   10.17
  -6   4   9  156.19    5.26
  -6   4  -9  169.13    5.16
   6   4  -9  156.59    6.18
   6   4   9  165.44    4.51
  -6  -4   9  162.74   11.39
  -6   4   9  157.92    3.95
  -6  -4  -9  148.45   10.48
  -6   4  -9  161.76    8.13
   6  -4   9  156.71   12.90
  -6  -4   9  175.45    6.42
  -6  -4 -10    5.37    1.70
  -6   4  10    6.67    2.55
  -6   4 -10    8.45    1.66
   6   4 -10    7.80    2.09
  -6  -4  10    7.61    5.72
  -6   4  10    5.70    1.80
  -6  -4 -10    7.75    2.51
  -6   4 -10    8.42    2.64
   6  -4  10    5.96    2.19
  -6  -4  10    4.67    3.19
  -6   4  11    2.10    2.46
  -6   4 -11    5.34    1.87
   6   4 -11    6.02    2.85
  -6  -4  11    4.66    2.94
  -6   4  11    3.92    1.77
  -6  -4 -11    4.12    3.20
  -6   4 -11    7.46    3.44
   6  -4  11   -0.23    2.59
  -6  -4  11    3.89    3.09
  -6   4  12   55.60    7.63
  -6   4 -12   63.01    3.40
   6   4 -12   47.41    4.34
  -6  -4 -12   44.16    4.37
  -6   4 -12   56.45   14.55
   6  -4  12   50.20   12.82
  -6  -4  12   43.54    6.03
  -6   4  13   20.84    6.64
   6   4 -13   25.37    7.01
  -6  -4 -13   26.83    7.08
  -6   4 -13   24.10    5.20
   6  -4  13   27.46    7.24
  -6  -4  13   26.51    7.24
  -6   4  14   39.58    6.49
   6   4 -14   40.51   11.78
  -6  -4 -14   47.65   13.34
  -6   4 -14   42.43   10.29
   6  -4  14   41.81   14.31
   6   4 -15  113.81    9.39
  -6  -4 -15  112.97   10.69
  -6   4 -15  130.01   17.90
   6  -4  15  114.99   11.97
  -6  -4  15  120.50    7.13
   6   4 -16   56.30   12.30
  -6  -4 -16   60.17   13.10
  -6   4 -16   63.12   16.29
   6  -4  16   69.75   23.22
  -6  -4  16   62.40    4.84
  -6  -4 -17    8.52    3.10
  -6   4 -17    4.13    3.49
   6  -4  17    6.53    1.96
  -6  -4  17    4.04    2.83
  -6  -4 -18   35.38    5.22
  -6   4 -18   26.75    7.14
   6  -4  18   37.73   11.35
  -6  -4 -19   37.42    6.26
  -6   4 -19   32.80    7.03
   6   4  19   31.64   10.72
   6  -4  19   35.22    9.33
  -6   5   0  799.30   19.40
   6   5   0  815.60   19.78
  -6  -5   0  768.22   19.65
  -6   5   0  820.64   19.12
   6  -5   0  845.07   19.67
  -6   5   1  358.01   13.02
  -6   5  -1  389.39   13.91
   6   5  -1  362.52   13.08
   6   5   1  421.81   11.42
  -6  -5   1  406.43    8.91
  -6  -5  -1  374.02   13.97
  -6   5   1  373.17   11.93
  -6   5  -1  417.19   10.11
   6  -5   1  375.24   14.03
  -6   5   2   78.88    9.13
  -6   5  -2   66.68    5.28
   6   5  -2   78.68    4.22
   6   5   2   70.53    7.86
  -6  -5   2   69.48    7.85
  -6  -5  -2   85.52   11.85
  -6   5   2   80.97    2.97
  -6   5  -2   63.21    2.73
   6  -5   2   78.09    4.43
  -6   5   3   85.36    6.61
  -6   5  -3   77.03    6.69
   6   5  -3   73.91    4.13
   6   5   3   70.47    4.22
  -6  -5   3   78.11   15.73
  -6  -5  -3   74.73    5.49
  -6   5   3   86.98    1.98
  -6   5  -3   91.40    3.51
   6  -5   3   85.35    5.28
  -6   5   4   83.48   10.59
  -6   5  -4   70.99    5.02
   6   5  -4   57.74    3.72
  -6  -5  -4   55.73    3.96
  -6   5  -4   74.59    4.16
   6  -5   4   80.23    9.00
  -6   5   5  638.32   19.77
  -6   5  -5  593.47   18.21
   6   5  -5  634.67   19.71
   6   5   5  631.89   19.00
  -6  -5   5  595.42   18.94
  -6  -5  -5  616.55   19.11
  -6   5   5  636.98   16.69
  -6   5  -5  620.01   18.77
   6  -5   5  638.78   20.00
  -6  -5   5  598.61   17.72
  -6   5   6  142.87    7.79
  -6   5  -6  142.27    7.80
   6   5  -6  151.71    8.46
   6   5   6  153.75    7.72
  -6  -5   6  149.10    8.56
  -6  -5  -6  137.99    8.73
  -6   5   6  146.23    6.33
  -6   5  -6  141.59    7.65
   6  -5   6  145.37   10.08
  -6  -5   6  148.98    7.72
  -6   5   7  274.01    8.76
  -6   5  -7  292.38    9.03
   6   5  -7  285.46    9.33
   6   5   7  286.29    8.22
  -6  -5   7  299.15   10.25
  -6   5   7  297.59    6.67
  -6  -5  -7  278.71   11.34
  -6   5  -7  270.28    8.84
   6  -5   7  289.99   10.71
  -6  -5   7  294.72   10.31
  -6   5   8   29.66    8.14
  -6   5  -8   36.22    3.27
   6   5  -8   21.30    5.05
   6   5   8   25.96    3.84
  -6  -5   8   23.73    7.09
  -6   5   8   28.33    2.48
  -6  -5  -8   29.73    4.85
  -6   5  -8   32.25    9.63
   6  -5   8   28.74    8.68
  -6  -5   8   25.10    7.57
  -6   5   9    3.36    3.33
  -6   5  -9    6.26    1.74
   6   5  -9    2.66    2.30
   6   5   9    3.52    1.45
  -6  -5   9    7.21    3.35
  -6   5   9    3.49    1.32
  -6  -5  -9    3.37    1.83
  -6   5  -9    1.60    2.30
   6  -5   9    3.27    3.86
  -6  -5   9    3.38    1.60
  -6   5  10  145.85    5.32
  -6   5 -10  143.44    8.02
   6   5 -10  136.68    5.66
  -6  -5  10  145.88   16.92
  -6  -5 -10  140.69    9.66
  -6   5 -10  143.79   11.68
   6  -5  10  151.33   15.47
  -6  -5  10  141.80    8.35
  -6   5  11   56.56    5.73
  -6   5 -11   81.23    7.31
   6   5 -11   63.77    5.82
  -6  -5  11   74.59    6.88
  -6  -5 -11   59.30    4.97
  -6   5 -11   67.65    6.41
   6  -5  11   59.62   13.02
  -6  -5  11   71.33    6.91
  -6   5  12   38.02    9.00
  -6   5 -12   39.35    9.91
   6   5 -12   31.76    7.88
  -6  -5  12   40.58   11.97
  -6  -5 -12   28.43    4.66
  -6   5 -12   43.51   11.68
   6  -5  12   41.15    9.61
  -6  -5  12   30.00    9.10
  -6   5  13   27.53    8.53
  -6   5 -13   36.06    7.05
   6   5 -13   30.27    5.07
  -6  -5 -13   26.60    8.17
  -6   5 -13   43.73    6.44
   6  -5  13   36.58    8.91
  -6  -5  13   31.31    9.06
   6   5 -14   16.88    4.08
  -6  -5 -14   16.91    4.00
  -6   5 -14   18.94    4.55
   6  -5  14   18.05    5.75
  -6  -5  14   11.85    3.92
   6   5 -15  136.74   10.79
  -6  -5 -15  146.88   10.81
  -6   5 -15  136.56    8.23
   6  -5  15  125.42   15.57
  -6  -5  15  144.76    6.63
   6   5 -16   15.33    4.33
  -6  -5 -16   17.62    3.76
  -6   5 -16   20.95    6.93
   6  -5  16   29.18    7.28
  -6  -5  16   14.37    5.03
  -6  -5 -17   95.17   19.29
  -6   5 -17   97.45   17.20
   6  -5  17  127.03   21.99
  -6  -5  17   97.92    6.21
  -6  -5 -18   28.87    6.93
  -6   5 -18   29.87    9.84
   6  -5  18   20.21    6.90
  -6   6   0   -0.13    2.15
   6   6   0   -0.73    2.38
  -6  -6   0   -0.58    3.05
  -6   6   0    0.43    0.73
   6  -6   0    0.70    2.28
  -6   6   1   38.04    3.82
  -6   6  -1   46.19    5.62
   6   6  -1   37.65    3.00
   6   6   1   42.49    3.17
  -6  -6   1   40.89    6.96
  -6  -6  -1   42.14   13.50
  -6   6  -1   42.87    3.78
  -6   6   1   40.89    2.69
   6  -6   1   43.43    3.96
  -6   6   2 1085.99   26.26
  -6   6  -2 1088.66   25.61
   6   6  -2 1092.70   25.10
   6   6   2 1110.75   26.09
  -6  -6   2 1068.33   26.23
  -6  -6  -2 1092.36   25.75
  -6   6  -2 1104.82   24.22
  -6   6   2 1137.42   23.41
   6  -6   2 1137.66   26.41
  -6   6   3  398.73   14.29
  -6   6  -3  395.35   14.02
   6   6  -3  389.52   14.07
   6   6   3  383.63   13.60
   6  -6  -3  403.12    3.85
  -6  -6   3  385.28   14.77
  -6  -6  -3  401.22   14.89
  -6   6  -3  383.65   13.10
  -6   6   3  408.60    3.80
   6  -6   3  398.39   14.46
  -6   6   4  121.67    6.89
  -6   6  -4  133.33    7.93
   6   6  -4  123.84    7.29
   6   6   4  130.12    8.65
  -6  -6   4  134.29   15.53
  -6  -6  -4  126.09    8.21
  -6   6  -4  130.47    7.40
   6  -6   4  127.57    7.61
  -6   6   5   96.33    6.27
  -6   6  -5  100.59    6.92
   6   6  -5   93.88    9.44
   6   6   5  105.50    5.94
  -6  -6   5  102.12   13.12
  -6  -6  -5   98.46   11.26
  -6   6  -5  102.26    9.11
   6  -6   5   95.61    9.54
  -6  -6   5   95.51    5.39
  -6   6   6   12.79    3.58
  -6   6  -6   18.18    3.88
   6   6  -6   13.68    3.94
   6   6   6   19.71    2.85
  -6  -6   6   13.65    3.30
  -6  -6  -6   16.17    3.68
  -6   6  -6   12.25    3.65
   6  -6   6    7.04    3.19
  -6  -6   6   19.11    6.42
  -6   6   7   86.30   10.70
  -6   6  -7   91.37    5.76
   6   6  -7   96.12   15.30
   6   6   7   88.90    3.75
  -6  -6   7   94.20    7.87
  -6  -6  -7   78.72    7.02
  -6   6  -7   93.19    6.52
   6  -6   7   91.59   11.50
  -6  -6   7   86.81    4.21
  -6   6   8  158.10    5.76
  -6   6  -8  155.46    5.62
   6   6  -8  158.92    6.13
   6   6   8  139.26    4.60
  -6  -6   8  141.34    7.32
  -6  -6  -8  164.41   19.91
  -6   6  -8  134.42    5.68
   6  -6   8  158.23    7.01
  -6  -6   8  146.11    8.16
  -6   6   9  364.70    9.97
  -6   6  -9  396.50   10.93
   6   6  -9  377.00   11.35
   6   6   9  372.66    9.42
  -6  -6   9  380.72   11.40
  -6  -6  -9  353.32   10.75
  -6   6  -9  390.35   11.04
   6  -6   9  373.16   11.55
  -6  -6   9  385.21   10.34
  -6   6  10  309.67    9.02
  -6   6 -10  287.90    8.72
   6   6 -10  302.18    9.99
  -6  -6  10  262.19    9.82
  -6  -6 -10  274.97    9.29
  -6   6 -10  262.06   15.12
   6  -6  10  293.48   10.37
  -6  -6  10  270.97    8.59
  -6   6  11    7.71    2.75
  -6   6 -11   10.34    2.25
   6   6 -11    3.23    2.33
  -6  -6  11    5.61    2.50
  -6  -6 -11    4.80    2.29
  -6   6 -11    3.85    2.65
   6  -6  11   -1.57    2.75
  -6  -6  11    6.04    3.08
  -6   6  12   23.70    7.96
  -6   6 -12   20.34    4.24
   6   6 -12   21.44    3.43
  -6  -6  12   18.58    5.59
  -6  -6 -12   22.03    7.11
  -6   6 -12   19.36    5.15
   6  -6  12   24.55    6.45
  -6  -6  12   15.97    6.20
  -6   6  13   21.82    6.82
  -6   6 -13   20.26    6.15
   6   6 -13   21.10    5.06
  -6  -6  13    6.39    5.67
  -6  -6 -13   18.99    6.25
  -6   6 -13   20.27    6.09
   6  -6  13   29.00    4.44
   6   6 -14  367.80   20.82
  -6  -6 -14  391.13   11.74
  -6   6 -14  377.12   10.73
   6  -6  14  391.03   24.41
  -6  -6  14  392.70   10.47
   6   6 -15   43.63    4.29
  -6  -6 -15   35.01    9.14
  -6   6 -15   41.82   12.19
   6  -6  15   51.15   12.75
  -6  -6  15   38.94   13.36
   6   6 -16    1.03    0.89
  -6  -6 -16    6.16    3.70
  -6   6 -16    1.86    1.21
   6  -6  16    3.12    2.93
  -6  -6  16    1.91    1.64
  -6  -6 -17    3.28    1.82
  -6   6 -17    1.90    2.41
   6  -6  17    2.59    2.72
  -6  -6 -18   34.05    8.87
   6  -6  18   47.81   11.66
  -6   7   0  106.08    9.10
   6   7   0  111.53   12.49
  -6  -7   0  119.68   16.83
  -6   7   0  104.79    6.18
   6  -7   0  120.63    8.54
  -6   7   1  537.44   17.10
  -6   7  -1  509.58   16.14
   6   7  -1  580.40   18.57
   6   7   1  539.23   16.78
  -6  -7   1  557.07   18.07
  -6  -7  -1  547.46   17.66
  -6   7  -1  545.41   15.86
  -6   7   1  555.37   15.80
   6  -7   1  566.92   18.24
  -6   7   2   22.03    7.70
  -6   7  -2   43.86    6.58
   6   7  -2   17.96    5.19
   6   7   2   28.65    7.38
  -6  -7   2   29.36    8.33
  -6  -7  -2   14.94    5.10
  -6   7  -2   40.79    5.64
   6  -7   2   33.78    9.86
  -6   7   3   37.91    5.25
  -6   7  -3   38.63    4.08
   6   7  -3   42.68    3.56
   6   7   3   37.63    9.99
   6  -7  -3   35.59    1.73
  -6  -7   3   40.98   10.54
  -6  -7  -3   43.88   13.18
  -6   7  -3   36.52    3.48
   6  -7   3   42.67    3.69
  -6   7   4   49.61    4.07
  -6   7  -4   43.92    5.01
   6   7  -4   55.78    4.48
   6   7   4   45.92    4.91
  -6  -7   4   46.98   10.72
  -6  -7  -4   54.92   13.36
  -6   7  -4   45.72    4.91
   6  -7   4   53.25   14.92
  -6   7  -5  275.18   12.41
   6   7  -5  261.73    9.18
  -6  -7   5  278.79   10.04
  -6  -7  -5  252.41    9.29
  -6   7  -5  277.91    8.97
   6  -7   5  239.65   11.55
  -6  -7   5  280.30    9.09
  -6   7  -6  179.23   11.76
   6   7  -6  163.75    9.80
   6   7   6  159.35    5.03
  -6  -7   6  150.56    6.85
  -6  -7  -6  155.63    6.46
  -6   7  -6  186.66    8.37
   6  -7   6  191.21    7.39
  -6  -7   6  145.62    5.97
  -6   7   7  211.05    9.41
  -6   7  -7  219.41   14.77
   6   7  -7  223.20    9.87
   6   7   7  216.49    8.31
  -6  -7   7  201.93   17.65
  -6  -7  -7  209.56    9.39
  -6   7  -7  201.95    7.23
   6  -7   7  210.28    9.98
  -6  -7   7  217.48    9.57
  -6   7   8   29.45    8.86
  -6   7  -8   38.90    9.70
   6   7  -8   29.99    3.28
   6   7   8   36.97    5.16
  -6  -7   8   36.57   11.02
  -6  -7  -8   22.36    7.47
  -6   7  -8   34.83   11.73
   6  -7   8   32.01    5.68
  -6  -7   8   29.87    9.27
  -6   7   9   62.29    5.09
  -6   7  -9   55.35    4.80
   6   7  -9   72.77   13.93
   6   7   9   52.54    2.72
  -6  -7   9   58.99    6.22
  -6  -7  -9   72.64   11.53
  -6   7  -9   49.93   11.94
   6  -7   9   60.35    5.76
  -6  -7   9   52.65    7.10
  -6   7  10   52.59   12.95
  -6   7 -10   71.82    9.03
   6   7 -10   45.09   10.40
  -6  -7  10   37.59    9.68
  -6  -7 -10   39.33   12.94
  -6   7 -10   53.35   15.07
   6  -7  10   60.72   14.48
  -6  -7  10   37.20    3.78
  -6   7  11  152.93    6.40
  -6   7 -11  140.15   10.11
   6   7 -11  166.12   16.84
  -6  -7  11  155.84   14.63
  -6  -7 -11  146.86    6.63
  -6   7 -11  145.59    7.28
   6  -7  11  148.78    7.35
  -6  -7  11  153.22    6.63
  -6   7  12   46.81    5.52
  -6   7 -12   45.34   10.65
   6   7 -12   43.16   13.75
  -6  -7  12   39.18   14.15
  -6  -7 -12   42.57   13.38
  -6   7 -12   35.58   10.77
   6  -7  12   56.31   11.81
  -6   7  13   31.26    9.14
  -6   7 -13   42.40    3.93
   6   7 -13   36.62   11.23
  -6  -7  13   37.12   11.16
  -6  -7 -13   34.37    4.67
  -6   7 -13   36.40    8.46
   6  -7  13   37.42    9.90
  -6  -7  13   30.17   10.94
   6   7 -14    5.58    3.00
  -6  -7  14    4.73    4.21
  -6  -7 -14    6.50    2.84
  -6   7 -14    5.37    2.57
   6  -7  14    8.72    2.72
  -6  -7  14    5.61    1.86
   6   7 -15   47.77   10.58
  -6  -7  15   36.80   11.93
  -6  -7 -15   49.99   13.26
  -6   7 -15   52.22    5.72
   6  -7  15   48.85   19.65
  -6  -7  15   50.20    7.47
   6   7 -16    4.57    2.59
  -6  -7 -16   10.39    1.83
   6  -7  16    6.49    5.94
  -6  -7  16   12.07    5.95
  -6  -7 -17   39.33   12.20
   6  -7  17   41.71   14.99
  -6  -7 -18   29.80    6.23
   6  -7  18   40.07   10.72
  -6   8   0   35.76    7.75
   6   8   0   31.95    7.19
  -6  -8   0   33.59   11.41
  -6   8   1  139.72    5.36
  -6   8  -1  133.49    5.41
   6   8  -1  149.42    7.33
   6   8   1  142.47    5.80
  -6  -8   1  142.92   15.13
  -6  -8  -1  153.59   14.71
   6  -8   1  146.06    6.40
  -6   8   2   69.00    5.76
  -6   8  -2   64.29   15.79
   6   8  -2   47.41   11.82
   6   8   2   61.53    5.23
  -6  -8   2   50.30   15.98
  -6  -8  -2   51.34    7.61
  -6   8  -2   67.87    3.63
   6  -8   2   65.85    8.32
  -6   8   3  375.13   12.60
  -6   8  -3  393.80   12.65
   6   8  -3  374.90   11.90
   6   8   3  380.98   11.72
  -6  -8   3  368.84   12.32
  -6  -8  -3  371.26   12.43
  -6   8  -3  378.08   11.00
   6  -8   3  389.39   13.33
  -6   8   4  227.28    7.16
  -6   8  -4  250.50    9.01
   6   8  -4  234.79   10.22
   6   8   4  265.38    8.84
  -6  -8   4  273.85   17.61
  -6  -8  -4  242.52    9.60
  -6   8  -4  244.67    9.62
   6  -8   4  216.91    7.92
  -6   8   5   17.10    4.07
  -6   8  -5   12.48    3.93
   6   8  -5   14.81    3.71
   6   8   5    9.68    3.07
  -6  -8   5    7.99    3.03
  -6  -8  -5   15.27    4.90
  -6   8  -5    9.84    3.58
   6  -8   5   19.67    4.39
  -6   8   6   19.68    6.97
  -6   8  -6   22.42    6.20
   6   8  -6   22.17    7.73
   6   8   6   22.64    5.94
  -6  -8   6   29.29    8.48
  -6  -8  -6   20.63    5.05
  -6   8  -6   20.63    6.88
   6  -8   6   23.01    6.25
  -6  -8   6   22.67    8.41
  -6   8   7   33.09    8.71
  -6   8  -7   30.96    8.91
   6   8  -7   32.57    7.12
   6   8   7   33.77   10.04
  -6  -8   7   32.56    8.74
  -6  -8  -7   34.07    7.07
  -6   8  -7   31.08   10.57
   6  -8   7   35.69    5.97
  -6  -8   7   26.62    9.83
  -6   8   8  376.25   11.32
  -6   8  -8  349.94   10.61
   6   8  -8  377.27   11.37
   6   8   8  376.20    9.50
  -6  -8   8  349.71   11.74
  -6  -8  -8  364.29   11.08
  -6   8  -8  332.09   18.96
   6  -8   8  355.98   19.50
  -6  -8   8  367.66   10.65
  -6   8   9  357.21   10.18
  -6   8  -9  352.84   11.58
   6   8  -9  344.01   10.30
   6   8   9  338.36    7.11
  -6  -8   9  318.11   13.47
  -6  -8  -9  351.01   18.84
  -6   8  -9  338.30   16.26
   6  -8   9  368.75   11.03
  -6  -8   9  325.58    8.80
  -6   8  10   17.89    5.98
  -6   8 -10   19.59    5.41
   6   8 -10   16.00    2.61
  -6  -8  10   12.39    5.37
  -6  -8 -10   16.20    4.01
  -6   8 -10   18.20    6.47
   6  -8  10   20.49    2.93
  -6  -8  10   19.74    6.55
  -6   8  11   11.26    4.05
  -6   8 -11    3.81    1.94
   6   8 -11   13.19    4.01
  -6  -8  11    9.82    2.18
  -6  -8 -11   11.56    2.88
  -6   8 -11    8.68    4.70
   6  -8  11   13.83    3.48
  -6   8  12   78.50    4.59
  -6   8 -12   86.84    7.76
   6   8 -12   85.25    9.59
  -6  -8  12   70.44   19.84
  -6  -8 -12   72.85    9.07
  -6   8 -12   74.04    5.91
   6  -8  12   74.52   18.58
  -6  -8  12   89.63    5.52
  -6   8 -13   80.94    9.79
   6   8 -13   92.95    7.63
  -6  -8  13   67.76   20.04
  -6  -8 -13   91.55    9.39
   6  -8  13   88.28   16.64
  -6  -8  13   77.88    6.70
   6   8 -14   10.79    3.27
  -6  -8  14    4.08    3.51
  -6  -8 -14    6.51    1.97
   6  -8  14    7.83    3.89
  -6  -8  14    6.13    2.98
   6   8 -15   45.06   13.56
  -6  -8  15   38.90   17.20
  -6  -8 -15   37.66   11.37
   6  -8  15   45.73   11.54
  -6  -8  15   38.22    9.81
   6   8 -16   31.19    7.12
  -6  -8  16   31.03   16.53
  -6  -8 -16   29.97    9.04
   6  -8  16   39.08   11.15
   6   8 -17    6.89    2.53
  -6  -8  17    5.87    3.05
  -6  -8 -17    4.15    1.94
   6  -8  17    8.64    4.92
  -6   9   0  243.77    9.98
   6   9   0  201.84    7.02
  -6  -9   0  182.04   11.54
  -6   9   1  219.74   10.01
  -6   9  -1  245.58   10.41
   6   9   1  250.40   10.16
   6   9  -1  248.70   10.29
  -6  -9   1  262.65   20.17
  -6  -9  -1  231.97   15.03
   6  -9   1  221.66   10.25
  -6   9   2  115.71    6.57
  -6   9  -2  105.56    6.22
   6   9  -2  108.32    8.27
   6   9   2  102.54    5.08
  -6  -9   2  110.86    7.30
  -6  -9  -2  125.02    7.60
   6  -9   2  113.44    6.30
   6   9  -3   21.15    4.48
   6   9   3   14.34    3.67
  -6  -9   3   14.65    6.54
  -6  -9  -3   20.66    5.45
  -6   9   4  411.90   12.36
  -6   9  -4  426.40   12.34
   6   9  -4  395.43   18.42
   6   9   4  430.97   14.52
  -6  -9   4  427.18   13.23
  -6  -9  -4  390.84   12.07
   6  -9   4  408.20   12.84
  -6   9   5  157.74    6.60
  -6   9  -5  177.34    9.22
   6   9  -5  178.46    7.52
   6   9   5  183.27    6.43
  -6  -9   5  183.62   16.77
  -6  -9  -5  174.10   12.70
   6  -9   5  160.89    9.60
  -6   9   6   26.35    7.46
  -6   9  -6   23.19    8.30
   6   9  -6   25.57    6.48
   6   9   6   18.77    5.08
  -6  -9   6   22.00    7.19
  -6  -9  -6   27.21    8.07
   6  -9   6   22.79    7.60
  -6  -9   6   19.23    6.97
  -6   9   7  223.55   15.23
  -6   9  -7  213.81   16.29
   6   9  -7  246.42    9.46
   6   9   7  203.23    6.72
  -6  -9   7  202.61   13.40
  -6  -9  -7  223.89    8.07
   6  -9   7  238.08   10.03
  -6  -9   7  206.34    7.61
  -6   9   8  161.24   10.09
  -6   9  -8  167.20    8.73
   6   9  -8  186.61   13.80
   6   9   8  156.73    5.77
  -6  -9   8  151.36    8.06
  -6  -9  -8  155.32   14.19
   6  -9   8  148.85    7.38
  -6  -9   8  141.67   13.40
  -6   9  -9    7.12    3.33
   6   9  -9    4.23    3.40
   6   9   9    3.59    1.50
  -6  -9   9   -1.54    3.54
  -6  -9  -9    6.90    2.27
   6  -9   9    5.89    1.73
  -6  -9   9    2.45    2.94
  -6   9  10  100.08    9.44
  -6   9 -10  104.80   11.10
   6   9 -10  115.02   19.64
  -6  -9  10  100.32   21.78
  -6  -9 -10   98.46    6.85
   6  -9  10   96.18   20.25
  -6   9  11  104.37    5.69
  -6   9 -11  101.48   18.02
   6   9 -11  121.38   22.91
  -6  -9  11  102.21   19.94
  -6  -9 -11  114.46    9.83
   6  -9  11  105.13    9.15
  -6  -9  11  115.26    6.65
  -6   9  12  216.37    8.36
  -6   9 -12  221.86    7.62
   6   9 -12  230.78   18.76
  -6  -9  12  211.62    9.25
  -6  -9 -12  192.77   12.59
   6  -9  12  226.54   10.74
  -6  -9  12  194.96    9.81
  -6   9 -13   20.50    5.61
   6   9 -13   15.61    4.50
  -6  -9  13    7.89    5.04
  -6  -9 -13   15.30    3.22
   6  -9  13   19.27    4.36
  -6  -9  13   20.83    3.99
  -6   9 -14   14.89    3.20
   6   9 -14   20.95    6.21
  -6  -9  14   14.63    3.91
  -6  -9 -14   17.25    6.63
   6  -9  14   22.91    5.48
  -6  -9  14   11.72    3.11
   6   9 -15    5.04    2.67
  -6  -9  15    7.12    5.11
  -6  -9 -15    6.18    2.85
   6  -9  15    6.28    4.93
   6   9 -16   30.67    4.60
  -6  -9  16   14.88    7.87
  -6  -9 -16   21.38    9.02
   6  -9  16   31.30    8.13
  -6  10   0  143.76    6.12
   6  10   0  153.06    6.50
  -6 -10   0  156.29    7.45
  -6  10   1  255.49    9.65
  -6  10  -1  259.79   10.30
   6  10   1  250.80   11.32
   6  10  -1  227.15    8.21
  -6 -10   1  259.97    9.62
  -6 -10  -1  232.40    9.15
  -6  10   2  166.45    7.72
  -6  10  -2  148.00    6.92
   6  10  -2  167.61    7.52
   6  10   2  168.86   12.05
  -6 -10   2  165.26   10.89
  -6 -10  -2  173.21    7.83
   6 -10   2  163.00   11.49
  -6  10   3  102.03   12.71
  -6  10  -3   98.10   10.44
   6  10  -3  104.77    8.17
   6  10   3  101.71    8.46
  -6 -10   3  113.12    8.19
  -6 -10  -3  111.91   14.08
   6 -10   3  100.50    8.00
  -6  10   4   19.07    5.65
  -6  10  -4   26.76    5.08
   6  10  -4   21.76   10.41
   6  10   4   25.35    7.27
  -6 -10   4   25.50    7.72
  -6 -10  -4   14.82    3.90
   6 -10   4   21.31    4.31
  -6  10   5   59.18    9.02
  -6  10  -5   55.47   10.41
   6  10  -5   73.04    9.01
   6  10   5   60.42    8.96
  -6 -10   5   60.81   17.35
  -6 -10  -5   56.73   11.49
   6 -10   5   52.78   18.45
  -6  10   6    6.62    2.28
  -6  10  -6    8.37    2.60
   6  10  -6    7.28    1.58
   6  10   6   10.15    3.35
  -6 -10   6    7.19    2.56
  -6 -10  -6    8.51    2.59
   6 -10   6    8.18    3.35
  -6  10   7   12.47    3.97
  -6  10  -7   11.67    1.58
   6  10  -7   17.65    3.18
   6  10   7   12.71    3.88
  -6 -10   7    5.31    3.91
  -6 -10  -7   16.67    3.79
   6 -10   7    5.58    3.21
  -6 -10   7   10.49    5.24
  -6  10   8    0.19    0.78
  -6  10  -8    0.23    3.11
   6  10  -8   -2.21    2.29
   6  10   8    0.28    1.23
  -6 -10   8    4.49    3.23
  -6 -10  -8    1.21    2.15
   6 -10   8    4.74    3.36
  -6  10   9  101.58    9.58
  -6  10  -9   99.01   17.42
   6  10  -9  102.73    7.77
  -6 -10   9   92.79    9.10
  -6 -10  -9  105.03   10.27
   6 -10   9  119.43   20.91
  -6 -10   9  103.13   13.60
  -6  10  10   79.14    7.39
  -6  10 -10   96.96   10.12
   6  10 -10   92.28   10.69
  -6 -10  10   92.47   25.19
  -6 -10 -10   90.19    9.08
   6 -10  10   90.72   10.72
  -6 -10  10   90.87   10.26
  -6  10  11   38.41   13.11
  -6  10 -11   38.72   10.47
   6  10 -11   39.52   11.62
  -6 -10  11   34.94    9.13
  -6 -10 -11   35.00    7.71
   6 -10  11   40.67   12.78
  -6 -10  11   31.12   12.83
  -6  10  12   66.47    9.70
  -6  10 -12   77.14    7.16
   6  10 -12   72.12   14.88
  -6 -10  12   76.72   14.95
  -6 -10 -12   74.10    7.27
   6 -10  12   76.40    8.80
  -6 -10  12   70.12    4.92
  -6  10 -13   83.06   14.62
   6  10 -13  106.34    9.55
  -6 -10  13   95.58   15.69
  -6 -10 -13   77.03   15.84
   6 -10  13   98.06   20.52
  -6 -10  13   92.17    6.84
  -6  10 -14   25.76    9.29
   6  10 -14   28.33    6.11
  -6 -10  14   30.19    8.27
  -6 -10 -14   23.29    4.07
   6 -10  14   34.37    9.39
  -6 -10  14   25.67   10.41
   6  10 -15    6.50    2.72
  -6 -10  15   16.65    4.90
  -6 -10 -15    4.84    2.24
   6 -10  15    8.55    6.32
   6  10 -16    2.73    3.33
  -6 -10  16    2.39    2.58
   6 -10  16    1.60    3.27
  -6  11   0   22.67    8.95
   6  11   0   29.80    5.15
  -6 -11   0   28.42    8.36
  -6  11   1   26.28    4.29
  -6  11  -1   30.55    7.75
   6  11  -1   27.51    4.48
   6  11   1   30.93    6.05
  -6 -11   1   28.03    7.59
  -6 -11  -1   31.22    7.63
  -6  11   2   95.70    6.66
  -6  11  -2   98.38    6.53
   6  11   2  101.76    5.26
   6  11  -2   92.77    8.16
  -6 -11   2  111.39   16.22
  -6 -11  -2  100.72   11.37
   6 -11   2   95.34    6.55
  -6  11   3   20.64    3.27
  -6  11  -3   18.86    4.16
   6  11   3   19.11    5.65
   6  11  -3   18.52    4.53
  -6 -11   3   23.69    5.35
  -6 -11  -3   20.95    5.95
   6 -11   3   17.10    6.70
  -6  11   4   25.22    6.92
   6  11  -4   24.78    6.98
   6  11   4   20.16    7.76
  -6 -11   4   30.69    6.98
  -6 -11  -4   30.07    4.79
   6 -11   4   26.12    5.66
  -6  11   5    7.31    3.63
  -6  11  -5   12.82    3.57
   6  11  -5    9.94    2.74
   6  11   5   11.05    2.09
  -6 -11   5   11.61    3.91
  -6 -11  -5   12.84    2.88
   6 -11   5   14.79    4.72
  -6  11   6  211.59    8.80
  -6  11  -6  220.18   10.59
   6  11  -6  217.51   15.32
   6  11   6  217.28    7.25
  -6 -11   6  226.58   25.90
  -6 -11  -6  225.49   23.42
   6 -11   6  198.01   15.34
  -6  11   7   52.30   11.45
   6  11  -7   48.94   14.22
  -6 -11   7   50.83   12.96
  -6 -11  -7   44.09   14.92
   6 -11   7   48.70   10.79
  -6  11   8   81.01   11.49
  -6  11  -8  100.02    9.21
   6  11  -8   91.20    7.40
   6  11   8   98.69    8.51
  -6 -11   8  100.17   18.27
  -6 -11  -8   83.86    6.87
   6 -11   8  105.48    9.82
  -6 -11   8  104.60    6.52
  -6  11   9   21.30    5.65
  -6  11  -9   23.25    6.36
   6  11  -9   23.20    6.39
  -6 -11   9   25.26    5.92
  -6 -11  -9   18.61    4.80
   6 -11   9   17.91    4.39
  -6 -11   9   15.74   10.65
  -6  11  10   86.87    5.21
  -6  11 -10   90.73    9.85
   6  11 -10  100.24   15.07
  -6 -11  10   85.23   24.88
  -6 -11 -10   79.46    7.13
   6 -11  10   96.33    7.77
  -6 -11  10   89.20    5.62
  -6  11  11   15.02    4.88
  -6  11 -11   22.57    5.80
   6  11 -11   19.95    4.99
  -6 -11  11   20.13    8.86
  -6 -11 -11   14.65    5.39
   6 -11  11   16.89    5.49
  -6 -11  11   17.63    7.83
  -6  11  12    8.23    4.45
  -6  11 -12   10.21    3.33
   6  11 -12   11.88    3.20
  -6 -11  12    7.86    3.38
  -6 -11 -12   13.31    3.84
   6 -11  12    9.09    3.14
  -6 -11  12   10.34    5.49
  -6  11 -13    3.85    2.71
   6  11 -13    3.07    2.36
  -6 -11  13    7.85   11.33
  -6 -11 -13    5.24    2.57
   6 -11  13   10.55    4.47
  -6 -11  13    3.88    2.38
  -6  11 -14   11.72    2.78
   6  11 -14   14.97    4.05
  -6 -11  14    8.62    5.31
   6 -11  14    6.61    4.30
   6  11 -15    4.36    3.99
  -6 -11  15    4.30    2.10
   6 -11  15    4.36    3.37
  -6  12   0   78.67   10.67
   6  12   0   80.44    9.54
  -6 -12   0   80.31   11.18
  -6  12   1    5.25    2.05
  -6  12  -1    6.82    3.55
   6  12   1    5.85    2.27
   6  12  -1    9.79    2.18
  -6 -12   1    6.58    3.16
  -6 -12  -1    3.90    5.64
  -6  12   2   16.87    3.63
  -6  12  -2   15.49    5.13
   6  12  -2   12.98    3.12
   6  12   2   20.00    6.67
  -6 -12   2   19.66    3.40
  -6 -12  -2   18.48    4.23
  -6  12   3  152.08   15.19
  -6  12  -3  131.74   11.15
   6  12  -3  158.73   10.80
   6  12   3  157.27    6.55
  -6 -12   3  152.58   10.57
  -6 -12  -3  163.95    7.88
   6 -12   3  151.56    9.49
  -6  12   4   20.86    5.78
  -6  12  -4   16.56    3.54
   6  12  -4   23.03    6.89
   6  12   4   15.19    3.39
  -6 -12   4   17.84    4.95
  -6 -12  -4   16.73    3.67
   6 -12   4   17.11    4.19
  -6  12   5   37.64   11.43
  -6  12  -5   47.06   14.08
   6  12  -5   49.26   13.73
   6  12   5   42.58   11.62
  -6 -12   5   64.69   16.06
  -6 -12  -5   42.54   10.40
   6 -12   5   39.94    7.16
  -6  12   6   31.40   10.19
  -6  12  -6   28.44    5.36
   6  12  -6   28.57    4.92
   6  12   6   30.21   10.30
  -6 -12   6   32.23    7.06
  -6 -12  -6   27.25    3.86
   6 -12   6   41.09    5.92
  -6  12   7  140.32    9.72
  -6  12  -7  118.13    9.68
   6  12  -7  148.83    9.23
   6  12   7  126.71    9.38
  -6 -12   7  121.76    8.59
  -6 -12  -7  126.04    9.10
   6 -12   7  124.35   16.97
  -6  12   8   16.14    4.60
  -6  12  -8   16.14    3.39
   6  12  -8   14.03    3.03
   6  12   8   12.83    4.47
  -6 -12   8   16.61    3.89
  -6 -12  -8   14.25    3.04
   6 -12   8   17.28    3.64
  -6  12   9   59.40   16.99
  -6  12  -9   68.93    7.71
   6  12  -9   74.73    8.29
  -6 -12   9   77.00   17.62
  -6 -12  -9   68.64    8.07
   6 -12   9   62.79   18.43
  -6 -12   9   64.33    5.14
  -6  12  10   12.52    4.10
  -6  12 -10   11.97    4.15
   6  12 -10   13.33    3.66
  -6 -12  10   15.00    5.49
  -6 -12 -10   12.34    4.18
   6 -12  10    9.81    4.52
  -6 -12  10   11.53    5.56
  -6  12  11   10.08    3.65
  -6  12 -11   14.16    3.08
   6  12 -11   16.80    3.53
  -6 -12  11   21.34    6.26
  -6 -12 -11   17.15    3.05
   6 -12  11   18.94    5.72
  -6 -12  11   12.69    8.10
  -6  12 -12   21.83    4.33
   6  12 -12   33.80   10.68
  -6 -12  12   18.16    5.86
  -6 -12 -12   28.85    5.26
   6 -12  12   39.82    7.87
  -6 -12  12   27.26    4.59
  -6  12 -13    3.98    1.96
   6  12 -13    5.25    3.36
  -6 -12  13   -0.23    2.17
   6 -12  13    1.55    3.82
  -6  12 -14    1.83    1.29
   6  12 -14    2.77    2.04
  -6 -12  14    3.23    2.41
   6 -12  14    1.89    2.32
  -6  13   0   77.52   17.90
   6  13   0   89.81    9.93
  -6 -13   0   98.34   11.25
  -6  13   1   33.37   10.07
  -6  13  -1   39.14   10.46
   6  13   1   37.62    7.98
   6  13  -1   42.07   10.72
  -6 -13   1   37.03   11.76
  -6 -13  -1   39.16    7.48
  -6  13   2   56.66    7.30
  -6  13  -2   50.33   11.16
   6  13  -2   67.23   14.41
   6  13   2   59.83    9.21
  -6 -13   2   57.58   18.01
  -6 -13  -2   65.96    6.37
  -6  13   3   78.29   14.03
  -6  13  -3   80.58   10.40
   6  13   3   82.15    9.99
   6  13  -3   62.55   14.03
  -6 -13   3   80.43   15.13
  -6 -13  -3   72.01   18.92
  -6  13   4   43.50   12.99
  -6  13  -4   41.44    4.43
   6  13  -4   55.44   12.42
   6  13   4   46.77   12.95
  -6 -13   4   40.13   15.22
  -6 -13  -4   60.73    6.03
   6 -13   4   53.75   15.81
  -6  13   5   12.52    3.36
  -6  13  -5    6.37    3.17
   6  13  -5   13.33    4.65
   6  13   5    4.98    1.89
  -6 -13   5    8.25    2.72
  -6 -13  -5    9.89    3.94
   6 -13   5    5.75    3.43
  -6  13   6   57.61   16.30
  -6  13  -6   63.37   12.37
   6  13  -6   63.52   14.23
   6  13   6   58.79    7.17
  -6 -13   6   72.68    8.67
  -6 -13  -6   69.79    7.47
   6 -13   6   54.18   12.25
  -6  13   7    8.87    3.56
  -6  13  -7    5.58    2.36
   6  13  -7   14.85    3.36
   6  13   7    9.55    2.88
  -6 -13   7   10.40    4.29
  -6 -13  -7    9.39    3.26
   6 -13   7   14.24    5.40
  -6  13   8   31.66   11.18
  -6  13  -8   32.23    4.41
   6  13  -8   36.27   11.23
  -6 -13   8   38.59    8.67
  -6 -13  -8   29.51    7.02
   6 -13   8   41.37    7.08
  -6  13   9   62.64   10.95
  -6  13  -9   63.85    7.68
   6  13  -9   62.11   12.84
  -6 -13   9   59.37   14.63
  -6 -13  -9   53.16   17.97
   6 -13   9   61.22   17.99
  -6  13  10   20.67    7.73
  -6  13 -10   27.54    7.19
   6  13 -10   29.59    6.90
  -6 -13  10   24.83    5.02
  -6 -13 -10   26.00    5.38
   6 -13  10   24.50   11.09
  -6 -13  10   24.31    4.40
  -6  13  11    2.42    2.56
  -6  13 -11    4.45    2.24
   6  13 -11    6.97    2.33
  -6 -13  11    4.56    3.90
  -6 -13 -11    6.90    3.05
   6 -13  11    7.30    3.63
  -6 -13  11   -0.34    2.83
  -6  13 -12   11.95    4.08
   6  13 -12   20.24    4.86
  -6 -13  12   14.11    9.40
   6 -13  12    8.44    5.36
  -6  14   0   12.23    3.26
   6  14   0   13.06    3.30
  -6 -14   0   18.07    4.30
  -6  14   1   64.71   18.48
  -6  14  -1   66.79    9.00
   6  14  -1   74.24   10.51
   6  14   1   74.44   11.63
  -6 -14   1   86.50    7.86
  -6 -14  -1   70.79   18.26
  -6  14   2   66.82    8.69
  -6  14  -2   69.29   16.28
   6  14   2   77.80    7.29
   6  14  -2   78.67    9.10
  -6 -14   2   82.05   21.38
  -6 -14  -2   74.50    6.70
  -6  14   3   40.82   13.28
  -6  14  -3   47.05   10.38
   6  14   3   49.76   15.37
   6  14  -3   47.45   14.83
  -6 -14   3   52.66   14.80
  -6 -14  -3   43.24   10.29
  -6  14   4    7.83    4.42
  -6  14  -4    6.19    2.47
   6  14   4   13.40    3.73
   6  14  -4    9.11    4.19
  -6 -14   4   15.29    5.37
  -6 -14  -4    7.24    4.52
  -6  14   5   24.14    5.52
  -6  14  -5   17.70    4.32
   6  14  -5   25.17    6.22
   6  14   5   21.38    4.64
  -6 -14   5   20.73    5.12
  -6 -14  -5   25.39    8.47
   6 -14   5   23.60    6.65
  -6  14   6   47.50   15.31
  -6  14  -6   46.78    5.53
   6  14  -6   54.17   15.22
   6  14   6   45.54   14.60
  -6 -14   6   55.10   16.45
  -6 -14  -6   54.34    5.87
   6 -14   6   48.21   15.93
  -6  14   7   -1.28    2.35
  -6  14  -7    1.26    1.75
   6  14  -7    3.32    2.95
   6  14   7    2.15    1.28
  -6 -14   7   11.35    3.55
  -6 -14  -7    2.46    2.40
   6 -14   7   -0.31    3.47
  -6  14   8    4.96    4.18
  -6  14  -8   10.73    2.58
   6  14  -8   11.34    2.41
  -6 -14   8   13.23    3.79
  -6 -14  -8   11.97    3.06
   6 -14   8   12.14    6.83
  -6  14   9   13.19    6.09
  -6  14  -9   13.78    3.41
   6  14  -9   18.75    3.37
  -6 -14   9   20.58    4.94
  -6 -14  -9   11.53    3.84
   6 -14   9   18.10    5.25
  -6  14  10   10.84    6.26
  -6  14 -10   15.69    3.75
   6  14 -10   20.34    4.35
  -6 -14  10   20.02    5.49
   6 -14  10   18.70    9.30
  -6  14 -11    8.41    1.94
   6  14 -11    8.12    3.35
  -6 -14  11    8.09    3.12
   6 -14  11    5.94    5.14
  -6  15   0   47.31    5.73
   6  15   0   37.74    9.54
  -6 -15   0   39.70    8.90
  -6  15   1   12.06    2.64
  -6  15  -1    9.76    4.24
   6  15  -1    4.80    2.69
   6  15   1    5.64    1.81
  -6 -15   1   13.00    3.45
  -6 -15  -1    5.46    2.17
  -6  15   2    5.96    3.52
  -6  15  -2    4.71    2.82
   6  15   2   11.63    3.21
   6  15  -2   14.71    2.79
  -6 -15   2    9.54    5.52
  -6 -15  -2   10.59    3.50
  -6  15   3   23.11    7.49
  -6  15  -3   27.43    5.71
   6  15   3   20.18    4.63
   6  15  -3   23.34    5.57
  -6 -15   3   31.07    7.49
  -6 -15  -3   20.95    6.46
  -6  15   4   27.86   10.63
  -6  15  -4   28.53    6.72
   6  15   4   26.28    7.36
   6  15  -4   27.65    9.12
  -6 -15   4   32.81    9.27
  -6 -15  -4   25.84    5.64
  -6  15   5   37.93   14.74
  -6  15  -5   51.47   18.46
   6  15  -5   52.89    7.40
   6  15   5   58.37    8.04
  -6 -15   5   71.93   18.41
  -6 -15  -5   41.50   13.59
  -6  15   6   12.21    4.01
  -6  15  -6    4.31    3.27
   6  15  -6    8.79    3.36
   6  15   6   10.44    2.98
  -6 -15   6    8.95    4.19
  -6 -15  -6    9.78    2.79
   6 -15   6   13.15    5.02
  -6  15   7   28.27   11.25
  -6  15  -7   35.71   12.26
   6  15  -7   38.40    9.84
   6  15   7   35.27   10.80
  -6 -15   7   45.00    7.79
   6 -15   7   36.24   11.49
  -6  15   8    4.44    2.64
  -6  15  -8   11.34    4.92
   6  15  -8    9.22    4.05
  -6 -15   8   12.75    3.29
   6 -15   8    9.16    4.24
  -6  15   9    7.37    2.45
  -6  15  -9    7.41    3.08
   6  15  -9    6.41    2.00
  -6 -15   9   -1.08    3.43
   6 -15   9    8.35    5.34
  -6  16   0   24.43   11.22
   6  16   0   26.68    8.52
  -6 -16   0   31.72    6.13
  -6  16   1   -2.35    2.87
  -6  16  -1   -2.80    2.79
   6  16   1    1.40    1.81
   6  16  -1    7.87    2.29
  -6 -16   1    2.08    2.57
  -6 -16  -1    2.43    2.18
  -6  16   2    1.95    1.63
  -6  16  -2    3.71    3.15
   6  16  -2    7.33    2.97
   6  16   2    3.85    1.90
  -6 -16   2    7.08    2.80
  -6 -16  -2    3.58    1.99
  -6  16   3   31.89   10.72
  -6  16  -3   29.54   10.74
   6  16  -3   47.20   11.02
   6  16   3   38.40   11.91
  -6 -16   3   44.42   10.51
  -6 -16  -3   40.55    5.32
  -6  16   4   34.85   10.10
  -6  16  -4   45.97   13.63
   6  16   4   38.51    9.02
   6  16  -4   49.38   11.42
  -6 -16   4   47.17   10.04
  -6 -16  -4   35.30    8.71
  -6  16   5   16.08    4.71
  -6  16  -5   23.69    5.92
   6  16  -5   19.75    5.00
   6  16   5   15.45    7.27
  -6 -16   5   29.15    7.25
  -6 -16  -5   18.86    5.40
  -6  16   6    8.05    5.15
  -6  16  -6   12.94    3.39
   6  16  -6    8.07    3.19
   6  16   6    8.14    2.40
  -6 -16   6    6.03    3.62
  -6  16   7   13.10    6.18
  -6  16  -7   17.14    3.90
   6  16  -7   14.18    3.27
  -6 -16   7   18.05    5.90
   6 -16   7    9.75    6.91
  -6  17   0   -0.63    3.08
   6  17   0    2.18    1.87
  -6 -17   0    1.47    2.69
  -6  17   1   16.82    7.71
  -6  17  -1   19.87    5.45
   6  17   1   21.03    7.43
   6  17  -1   19.74    4.10
  -6 -17   1   22.39    4.65
  -6 -17  -1   22.70    5.62
  -6  17   2    1.73    2.16
  -6  17  -2    2.07    2.13
   6  17   2    4.68    2.48
   6  17  -2    6.48    2.49
  -6 -17   2    2.03    2.88
  -6 -17  -2    2.14    1.62
   7   0   0    2.72    1.50
  -7   0   0    2.98    1.21
   7   0   0    0.61    0.69
   7   0  -1  103.09    7.20
   7   0   1  108.00    6.93
  -7   0   1  103.70    6.69
  -7   0  -1  102.43    7.05
   7   0   1  109.68    6.50
   7   0  -2    5.99    2.75
   7   0   2    0.37    1.57
  -7   0   2    3.06    1.98
  -7   0  -2    3.54    1.85
   7   0   2    3.76    1.20
  -7   0  -3  690.40   16.67
   7   0  -3  664.75   16.42
  -7   0   3  670.95   16.38
  -7   0  -3  661.60   16.35
   7   0   3  667.67   15.77
  -7   0  -4  142.40    9.32
   7   0  -4  141.83    5.41
  -7   0   4  139.80    4.43
  -7   0  -4  148.56    6.95
   7   0   4  139.86    3.96
  -7   0   4  140.66    1.43
  -7   0  -5  161.99   10.04
   7   0  -5  157.55    6.86
  -7   0   5  170.86    7.45
  -7   0  -5  160.28    7.29
  -7   0   5  162.58    5.40
   7   0   5  168.95   12.78
  -7   0  -6    7.77    1.91
   7   0  -6   10.33    2.58
  -7   0   6    7.55    2.36
  -7   0  -6    4.10    2.55
  -7   0   6    7.05    1.91
   7   0   6    3.33    1.73
  -7   0  -7   94.92    6.66
   7   0  -7   92.99    5.58
  -7   0   7  100.24    6.07
  -7   0  -7   91.99    5.91
   7   0   7   96.34    8.77
  -7   0  -8  272.64    9.15
   7   0  -8  268.25    8.77
  -7   0   8  282.03    9.14
  -7   0  -8  263.57    9.22
  -7   0   8  279.39    9.03
   7   0   8  285.68    9.86
  -7   0  -9   47.25    2.19
   7   0  -9   49.22    3.96
  -7   0   9   50.28    3.84
  -7   0  -9   46.71   12.50
  -7   0   9   46.69    2.39
   7   0   9   49.01   11.38
  -7   0 -10    7.00    1.28
   7   0 -10    4.82    2.25
  -7   0  10    5.99    1.93
  -7   0 -10    6.84    2.74
  -7   0  10    5.96    1.97
   7   0  10    3.32    2.59
  -7   0 -11  366.24    7.79
   7   0 -11  385.27   10.28
  -7   0  11  373.25    9.92
  -7   0 -11  382.65   11.47
  -7   0  11  370.35   12.34
   7   0  11  385.35   11.81
   7   0 -12    3.09    1.47
  -7   0  12    4.00    2.46
  -7   0 -12    4.82    2.61
  -7   0  12    4.39    1.87
   7   0  12    4.00    1.59
   7   0 -13   62.56    4.93
  -7   0  13   66.67    6.19
  -7   0 -13   64.58    9.38
  -7   0  13   63.61    3.78
   7   0  13   60.85   13.13
   7   0 -14    6.46    2.01
  -7   0  14    5.01    1.95
  -7   0 -14    3.78    2.05
   7   0  14    1.96    2.16
  -7   0  15  229.09    9.33
  -7   0 -15  225.20    8.71
  -7   0  15  222.12    7.67
   7   0  15  215.61   11.47
  -7   0  16   27.10   12.53
  -7   0 -16   39.75    5.29
  -7   0  16   30.41   13.14
   7   0  16   40.93   11.48
  -7   0  17   65.04   16.81
  -7   0 -17   80.33   12.34
   7   0  17  106.02   15.70
  -7   0 -18    2.61    2.56
   7   0  18    2.33    2.15
  -7   0 -19   13.47    3.37
   7   0  19    8.53    3.17
  -7   1   0   17.65    4.90
   7   1   0   15.89    4.95
  -7  -1   0   15.61    6.29
  -7   1   0   14.78    3.28
   7   1   0   13.67    1.87
   7  -1   0   16.60    3.91
  -7   1   1  762.92   18.38
  -7   1  -1  736.68   17.74
   7   1  -1  757.94   17.97
   7   1   1  751.35   18.18
  -7  -1   1  734.27   18.63
  -7   1   1  773.47   17.96
  -7  -1  -1  773.54   18.88
  -7   1  -1  743.36   17.58
   7   1   1  759.16   16.20
   7  -1   1  768.78   17.30
  -7   1  -2  883.11   20.54
   7   1  -2  903.18   21.39
   7   1   2  903.88   20.66
   7  -1  -2  887.67   20.90
  -7  -1   2  892.14   21.15
  -7   1   2  907.21   20.73
  -7  -1  -2  907.85   21.32
  -7   1  -2  911.92   21.49
   7   1   2  917.47   19.86
  -7   1   2  934.68   19.41
   7  -1   2  902.46   19.80
  -7   1  -3  131.45    9.08
   7   1  -3  122.11    8.07
   7   1   3  130.06    5.41
   7  -1  -3  128.82    6.59
  -7   1   3  130.58    6.30
  -7  -1  -3  123.52    5.31
  -7   1  -3  128.29    5.79
   7   1   3  128.24    4.84
   7  -1   3  128.19    5.61
  -7   1   3  130.75    4.39
  -7   1  -4  224.50    8.43
   7   1  -4  218.49    8.80
   7  -1  -4  227.02    9.00
   7   1   4  238.25    8.93
  -7   1   4  214.63   10.90
  -7  -1  -4  209.59   10.87
  -7   1  -4  238.55    9.53
   7   1   4  253.80    9.23
   7  -1   4  221.36    8.23
  -7  -1  -5  817.64   18.58
  -7   1  -5  801.98   18.55
   7   1  -5  811.12   19.20
   7  -1  -5  788.08   18.71
  -7  -1   5  792.39   18.69
  -7   1   5  790.49   18.23
  -7  -1  -5  806.43   20.04
  -7   1  -5  815.14   19.74
   7   1   5  829.91   19.38
   7  -1   5  822.10   19.58
  -7  -1   5  784.38   16.07
  -7  -1  -6  199.20    7.64
   7   1  -6  198.88    8.66
   7  -1  -6  194.00    9.58
  -7  -1   6  217.38    8.75
  -7   1   6  214.81    8.59
  -7  -1  -6  206.03   10.80
  -7   1  -6  199.51    8.54
   7   1   6  200.62   10.35
   7  -1   6  201.49   12.71
  -7  -1   6  202.56    6.98
  -7  -1  -7  487.35   15.38
  -7   1  -7  447.10   13.97
   7   1  -7  489.13   15.85
   7  -1  -7  464.41   14.89
  -7  -1   7  471.32   14.97
  -7   1   7  486.35   15.07
  -7  -1  -7  501.99   17.02
  -7   1  -7  447.91   14.55
   7   1   7  468.78   15.67
   7  -1   7  489.39   15.69
  -7  -1   7  450.11   13.10
  -7  -1  -8  268.84   11.83
  -7   1  -8  265.02    9.77
   7   1  -8  274.75    9.29
   7  -1  -8  257.40    8.36
  -7  -1   8  275.37    9.33
  -7   1   8  293.12    9.11
  -7  -1  -8  274.54    9.47
  -7   1  -8  260.65    9.09
   7   1   8  274.18    9.19
   7  -1   8  269.77    9.39
  -7  -1   8  262.93    8.55
  -7  -1  -9   88.84    3.30
  -7   1  -9   93.01    5.46
   7   1  -9   99.74    9.79
   7  -1  -9   86.17    6.25
  -7  -1   9   87.55    6.42
  -7   1   9   87.37    3.89
  -7  -1  -9   83.04    6.64
  -7   1  -9   83.95    7.36
   7   1   9   83.96    4.78
   7  -1   9   87.78    6.25
  -7  -1   9   82.45    3.04
  -7  -1 -10  282.01   10.68
  -7   1 -10  270.76    9.58
   7   1 -10  287.75   11.14
   7  -1 -10  275.65   10.38
  -7  -1  10  274.90   16.31
  -7   1  10  290.17   10.64
  -7  -1 -10  276.48   11.39
  -7   1 -10  265.94   11.07
   7   1  10  279.04   12.82
  -7  -1  10  292.85   10.36
   7  -1  10  286.33   11.60
  -7   1 -11  189.22    8.65
   7   1 -11  191.08    7.03
   7  -1 -11  178.49    6.43
  -7  -1  11  182.21    7.90
  -7   1  11  184.05    6.52
  -7  -1 -11  181.20    9.31
  -7   1 -11  175.03   10.16
   7   1  11  195.78    8.11
  -7  -1  11  177.98    6.12
   7  -1  11  182.09    7.59
  -7   1  12   22.97    5.37
   7   1 -12   20.07    7.02
  -7  -1  12   16.59    5.16
  -7   1  12   17.68    7.10
  -7  -1 -12   23.36    5.26
  -7   1 -12   18.69    4.16
   7   1  12   24.00    6.48
  -7  -1  12   20.74    5.39
   7  -1  12   18.51    5.42
  -7   1  13   72.45    5.94
   7   1 -13   79.28    6.94
  -7  -1  13   74.36    7.71
  -7   1  13   71.08    7.10
  -7  -1 -13   71.78    5.79
  -7   1 -13   74.49   17.79
   7   1  13   79.34    8.98
   7  -1  13   62.08   18.18
  -7  -1  13   81.13    4.55
   7   1 -14  305.10   18.69
  -7  -1  14  304.14   10.14
  -7   1  14  298.30    7.59
  -7  -1 -14  298.20    9.72
  -7   1 -14  302.84    9.70
  -7   1  14  318.65    9.73
   7   1  14  317.56   28.23
   7  -1  14  305.65   21.78
  -7  -1  14  288.74    7.41
  -7   1  15   18.66    5.83
   7   1 -15   23.77    3.15
  -7  -1  15   20.03    9.52
  -7   1  15   15.57    7.62
  -7  -1 -15   25.93    5.15
  -7   1 -15   18.69    3.22
  -7   1  15   19.57    8.44
   7   1  15   25.14    7.46
   7  -1  15   22.41    4.50
  -7  -1  15   21.64    7.58
  -7  -1  16   14.41    7.15
  -7  -1 -16   19.89    4.39
  -7   1 -16   14.54    3.65
  -7   1  16   17.25    5.45
   7   1  16   21.00    6.89
   7  -1  16   21.18    4.03
  -7  -1  16   17.43    6.05
  -7  -1 -17   43.76   12.82
  -7   1 -17   44.87   10.39
   7   1  17   46.58   13.19
   7  -1  17   45.34   14.61
  -7  -1  18   22.38   10.50
  -7  -1 -18   27.30    5.71
  -7   1 -18   34.74   10.31
   7   1  18   24.33   13.24
   7  -1  18   24.90    6.37
  -7  -1 -19   11.63    4.30
  -7   1 -19   12.60    3.08
   7   1  19   15.93    4.60
   7  -1  19    7.87    6.84
  -7   2   0   14.80    4.19
   7   2   0   10.25    2.58
  -7  -2   0   13.58    4.09
  -7   2   0   12.18    1.99
   7  -2   0   14.79    3.95
  -7   2   1    1.47    3.73
  -7   2  -1    1.00    1.20
   7   2  -1    1.85    2.25
   7   2   1    4.30    1.65
  -7  -2   1    3.58    1.77
  -7  -2  -1   -1.66    2.71
  -7   2   1    0.20    1.84
  -7   2  -1    2.83    1.04
   7  -2   1   -0.25    1.32
  -7   2   2  169.57    8.96
  -7   2  -2  198.68    7.60
   7   2  -2  177.48   10.98
   7   2   2  210.20    7.89
  -7  -2   2  213.08    8.53
  -7  -2  -2  186.90    7.84
  -7   2   2  193.77    7.94
  -7   2  -2  228.15    8.38
   7  -2   2  186.85    8.24
  -7   2   3  475.05   12.81
  -7   2  -3  435.56   11.31
   7   2  -3  513.20   14.16
  -7  -2   3  450.29   12.62
  -7   2   3  514.52   12.29
  -7  -2  -3  490.36   16.66
  -7   2  -3  444.91   14.57
   7  -2   3  484.34   12.16
  -7   2   4   21.47   10.54
  -7   2  -4   22.06    6.15
   7   2  -4   25.63    4.03
   7   2   4   25.10    3.71
  -7  -2   4   26.57    9.53
  -7   2   4   20.48    4.61
  -7  -2  -4   22.63    7.92
   7  -2   4   22.93    2.70
  -7   2   5 1049.50   24.60
  -7   2  -5 1048.39   23.80
   7   2  -5 1078.88   24.81
   7   2   5 1056.16   23.26
  -7  -2   5 1019.90   25.16
  -7   2   5 1072.64   24.81
  -7  -2  -5 1077.96   25.17
  -7   2  -5 1036.93   24.01
   7  -2   5 1069.35   24.66
  -7  -2   5 1005.29   20.38
  -7   2   6  639.19   23.01
  -7   2  -6  667.88   19.65
   7   2  -6  651.82   20.01
   7   2   6  659.04   18.71
  -7  -2   6  699.34   21.55
  -7   2   6  647.25   18.53
  -7  -2  -6  649.76   20.00
  -7   2  -6  643.01   19.44
   7  -2   6  655.45   19.72
  -7  -2   6  690.62   19.02
  -7  -2  -7  625.47   18.57
  -7   2   7  617.10   19.80
  -7   2  -7  637.19   18.94
   7   2  -7  611.76   19.68
  -7  -2   7  643.14   20.00
  -7   2   7  611.40   19.35
  -7  -2  -7  610.34   19.14
  -7   2  -7  674.78   20.80
   7  -2   7  608.71   19.69
  -7  -2   7  635.87   17.98
  -7   2   8  217.50    6.37
  -7  -2  -8  222.07    5.09
  -7   2  -8  216.76    6.88
   7   2  -8  224.34    7.06
  -7  -2   8  224.14   13.78
  -7   2   8  229.70    6.69
  -7  -2  -8  219.68    7.13
  -7   2  -8  209.77    6.53
   7  -2   8  231.56    7.44
  -7  -2   8  225.64    6.58
  -7   2   9  339.15   12.75
  -7  -2  -9  326.00   10.64
  -7   2  -9  338.93   12.18
   7   2  -9  341.81   13.44
  -7  -2   9  366.00   13.59
  -7   2   9  348.20   11.92
  -7  -2  -9  338.96   13.25
  -7   2  -9  332.53   12.54
   7  -2   9  344.73   13.38
  -7  -2   9  349.24   11.63
  -7   2  10   82.11   10.07
  -7  -2 -10   73.43    6.06
  -7   2 -10   71.53    5.13
   7   2 -10   87.59    4.85
  -7  -2  10   74.69    8.10
  -7   2  10   84.75    3.81
  -7  -2 -10   88.25   16.06
  -7   2 -10   67.46   11.71
   7  -2  10   84.92    6.10
  -7  -2  10   70.62    3.12
  -7   2  11   17.74    4.71
  -7   2 -11   12.84    2.28
   7   2 -11   14.65    3.91
  -7  -2  11    9.31    2.10
  -7   2  11   15.57    5.13
  -7  -2 -11   19.74    5.30
  -7   2 -11    9.83    4.37
   7  -2  11   21.66    5.05
  -7  -2  11   10.49    3.39
  -7   2  12   71.19    6.34
   7   2 -12   78.84    6.83
  -7  -2  12   72.90    8.46
  -7   2  12   72.65    3.63
  -7  -2 -12   70.82    8.89
  -7   2 -12   75.16   10.28
   7  -2  12   70.25    6.17
  -7  -2  12   68.47    3.84
  -7   2  13   12.32    4.33
   7   2 -13   14.06    3.88
  -7  -2  13   18.40    6.78
  -7   2  13   11.11    4.26
  -7  -2 -13   11.09    3.05
  -7   2 -13   16.16    4.72
   7  -2  13   15.42    3.05
  -7  -2  13   12.83    4.51
  -7   2  14   37.47    6.82
   7   2 -14   23.36    7.56
  -7  -2  14   24.72    8.85
  -7  -2 -14   30.70    9.64
  -7   2 -14   25.31    8.47
   7   2  14   29.68   11.90
   7  -2  14   27.12    6.44
  -7  -2  14   16.03    6.94
   7   2 -15    2.61    1.90
  -7  -2  15    3.09    2.87
  -7  -2 -15    2.09    1.83
  -7   2 -15    3.96    2.84
   7   2  15    4.83    3.98
   7  -2  15    2.20    1.49
  -7  -2  15    3.53    2.46
   7   2 -16   26.94    3.22
  -7  -2  16   26.58    8.60
  -7  -2 -16   32.37    8.23
  -7   2 -16   27.59    8.21
   7   2  16   29.66   10.64
   7  -2  16   34.88    8.55
  -7  -2  17   21.37   10.65
  -7  -2 -17   41.30   12.50
  -7   2 -17   28.43    9.70
  -7   2  17   22.77    8.25
   7   2  17   24.25   10.49
   7  -2  17   26.59    7.29
  -7  -2  18    5.91    2.42
  -7  -2 -18    8.56    5.59
  -7   2 -18    7.22    3.26
   7   2  18   11.01    5.38
   7  -2  18   13.10    6.65
  -7  -2  19   17.71    9.90
  -7  -2 -19   27.11    9.39
  -7   2 -19   30.11    7.43
   7   2  19   34.02    8.80
   7  -2  19   28.43    7.14
  -7   3   0   76.24    5.73
   7   3   0   83.47    7.74
  -7  -3   0   81.46    6.36
  -7   3   0   86.85    5.75
   7  -3   0   85.12    5.66
  -7   3   1  259.37   10.00
  -7   3  -1  242.47   12.09
   7   3  -1  260.21   11.08
   7   3   1  250.94   12.16
  -7  -3   1  241.38    9.91
  -7  -3  -1  257.97   10.43
  -7   3   1  276.08   10.05
  -7   3  -1  238.12    8.63
   7  -3   1  257.24    9.29
   7   3  -1  257.31    7.64
  -7   3   2   89.88    4.36
  -7   3  -2   92.46    6.20
   7   3  -2  103.16    4.76
   7   3   2   95.75    3.95
  -7  -3   2   86.55   11.20
  -7  -3  -2   92.35    5.80
  -7   3   2   93.04    3.24
  -7   3  -2   93.37    5.17
   7   3  -2   92.05    1.57
   7  -3   2   95.10    3.71
  -7   3   3  429.08   13.81
  -7   3  -3  401.75   14.01
   7   3  -3  383.83   14.02
  -7  -3   3  369.57   13.93
  -7  -3  -3  384.50   14.16
  -7   3   3  393.97   13.00
   7  -3   3  390.54   13.64
  -7   3   4  926.78   22.36
  -7   3  -4  912.91   23.03
   7   3  -4  962.01   22.78
   7   3   4  931.54   21.10
  -7  -3   4  926.61   22.60
  -7   3   4  944.36   20.61
  -7  -3  -4  886.45   21.57
  -7   3  -4  941.61   21.89
   7  -3   4  902.26   21.81
  -7   3   5   38.03   10.83
   7   3  -5   32.21    9.77
   7   3   5   30.03    2.94
  -7  -3   5   30.48   10.75
  -7   3   5   33.24    1.93
  -7  -3  -5   40.37   12.46
   7  -3   5   33.57    9.92
  -7  -3   5   28.77    1.37
  -7   3   6    3.78    1.14
   7   3  -6    4.70    1.35
   7   3   6   11.99    3.40
  -7  -3   6   17.82    5.07
  -7   3   6    6.05    1.58
  -7  -3  -6    7.77    3.04
   7  -3   6    1.13    2.40
  -7  -3   6    9.55    3.22
  -7   3   7   35.93    4.49
  -7   3  -7   38.57    5.55
   7   3  -7   34.72    9.88
   7   3   7   32.79    3.14
  -7  -3   7   35.06    9.27
  -7   3   7   33.23    3.22
  -7  -3  -7   37.61   14.05
  -7   3  -7   37.37    9.17
   7  -3   7   33.93   10.20
  -7  -3   7   33.85    2.67
  -7   3   8  535.90   15.76
  -7   3  -8  571.80   14.86
   7   3  -8  550.06   15.40
  -7  -3   8  569.99   16.17
  -7   3   8  565.43   14.45
  -7  -3  -8  538.81   21.53
  -7   3  -8  553.16   16.47
   7  -3   8  540.40   15.51
  -7  -3   8  542.68   14.90
  -7  -3  -9  125.25    5.54
  -7   3   9  146.04   12.83
  -7   3  -9  146.79    4.99
   7   3  -9  127.13    6.27
  -7  -3   9  114.02    5.94
  -7   3   9  123.53    4.94
  -7  -3  -9  121.01    7.57
  -7   3  -9  143.70    6.72
   7  -3   9  124.25   13.52
  -7  -3   9  112.92    6.55
  -7   3  10   37.44    3.17
  -7  -3 -10   36.27    4.37
  -7   3 -10   39.43    5.61
   7   3 -10   34.06    9.96
  -7  -3  10   40.47   10.77
  -7   3  10   35.45    7.38
  -7  -3 -10   35.45    9.83
  -7   3 -10   40.51    6.40
   7  -3  10   37.33   11.84
  -7  -3  10   40.27    7.15
  -7   3  11   96.68    4.77
  -7   3 -11  105.02    7.69
   7   3 -11  106.94    7.49
  -7  -3  11  102.34   11.27
  -7   3  11   98.77    4.85
  -7  -3 -11  101.24   12.08
  -7   3 -11   98.00    6.64
   7  -3  11  100.76    6.08
  -7  -3  11  101.72    4.64
  -7   3  12   10.15    2.86
  -7   3 -12   14.00    3.39
   7   3 -12    4.88    2.45
  -7  -3  12   16.65    5.21
  -7   3  12    9.21    4.49
  -7  -3 -12   12.73    3.79
  -7   3 -12   17.30    3.70
   7  -3  12   13.32    4.27
  -7  -3  12   17.37    6.02
   7   3 -13  167.94    6.61
  -7  -3  13  154.09    6.84
  -7  -3 -13  164.18   10.17
  -7   3 -13  149.13   14.88
   7  -3  13  176.20   20.51
  -7  -3  13  151.18    5.97
  -7   3  14    6.37    2.38
   7   3 -14    5.36    2.39
  -7  -3  14    5.42    2.53
  -7  -3 -14    4.56    2.36
  -7   3 -14    4.78    2.46
   7  -3  14    7.36    2.95
  -7  -3  14    5.06    2.95
   7   3 -15  118.82    6.38
  -7  -3  15  101.88    6.30
  -7  -3 -15   98.57   20.24
  -7   3 -15  105.21   15.45
   7  -3  15  112.76   25.96
   7   3 -16   42.82    6.00
  -7  -3  16   37.54   14.81
  -7  -3 -16   43.76   11.32
  -7   3 -16   48.37   16.21
   7   3  16   35.98   10.25
   7  -3  16   49.39   15.60
  -7  -3  17   37.67   14.89
  -7  -3 -17   41.38   15.05
  -7   3 -17   55.82   16.24
   7   3  17   38.88   14.28
   7  -3  17   43.79   10.37
  -7  -3  18    6.06    4.25
  -7  -3 -18   15.35    4.41
  -7   3 -18   10.74    4.92
   7   3  18   11.89    5.24
   7  -3  18    8.37    4.35
  -7  -3  19    3.63    2.67
  -7  -3 -19    1.54    2.48
  -7   3 -19   -0.99    3.16
   7   3  19    0.66    2.01
  -7   4   0  637.63   17.18
   7   4   0  672.84   16.91
  -7  -4   0  668.74   22.25
  -7   4   0  670.13   16.25
   7  -4   0  638.11   16.51
  -7   4   1  173.77   13.16
  -7   4  -1  197.77   12.34
   7   4  -1  175.83    7.68
   7   4   1  207.26    8.49
  -7  -4   1  203.94   12.78
  -7  -4  -1  185.97    8.46
  -7   4   1  186.88    8.15
  -7   4  -1  204.31    7.65
   7  -4   1  178.23    8.67
  -7   4   2   47.84    3.84
  -7   4  -2   49.01    3.28
   7   4  -2   34.84    4.29
   7   4   2   33.52    4.18
  -7  -4   2   39.31   12.99
  -7  -4  -2   30.07    4.66
  -7   4   2   32.37    3.59
  -7   4  -2   52.61    3.12
   7  -4   2   38.03    3.56
  -7   4   3  116.55    4.81
  -7   4  -3  113.50    4.40
   7   4  -3  123.43    5.17
   7   4   3  120.07    4.38
  -7  -4   3  127.58    7.08
  -7  -4  -3  125.50    6.04
  -7   4   3  133.17    3.32
  -7   4  -3  116.06    4.02
   7  -4   3  114.31    5.45
  -7   4   4  846.58   20.94
  -7   4  -4  741.64   21.14
   7   4  -4  815.54   19.96
   7   4   4  770.30   18.49
  -7  -4   4  762.97   19.73
  -7  -4  -4  824.99   20.75
  -7   4   4  818.78   18.17
  -7   4  -4  785.15   19.06
   7  -4   4  824.80   20.09
  -7   4   5   85.37    8.43
   7   4  -5   59.87    5.02
   7   4   5   63.22    6.78
  -7  -4   5   59.67    6.51
  -7   4   5   57.41    2.59
  -7  -4  -5   58.86    4.34
  -7   4  -5   83.97    5.94
   7  -4   5   68.91    7.65
  -7  -4   5   57.87    2.40
  -7   4   6   18.81    8.76
  -7   4  -6   21.37    9.63
   7   4  -6   28.01    7.90
   7   4   6   22.70    5.83
  -7  -4   6   22.72    8.08
  -7   4   6   24.74    2.95
  -7  -4  -6   26.61    7.59
  -7   4  -6   27.86   10.44
   7  -4   6   24.93   10.15
  -7  -4   6   26.36    4.40
   7   4  -7    4.81    2.71
   7   4   7    3.98    1.17
  -7  -4   7    6.24    3.51
  -7   4   7    1.10    1.11
  -7  -4  -7   -0.73    2.70
   7  -4   7    0.99    1.67
  -7  -4   7    6.52    1.76
  -7   4   8   79.69    6.07
  -7   4  -8   85.83    4.07
   7   4  -8   84.10    6.28
   7   4   8   83.08    3.10
  -7  -4   8   86.14    6.41
  -7   4   8   83.21    3.07
  -7  -4  -8   80.18    5.76
  -7   4  -8   85.05   12.88
   7  -4   8   86.92    7.94
  -7  -4   8   88.46    3.45
  -7   4   9   19.83    6.19
  -7   4  -9   24.26    8.72
   7   4  -9   20.69    5.44
   7   4   9   25.04    2.95
  -7  -4   9   31.03    8.66
  -7   4   9   17.03    4.91
  -7  -4  -9   19.53    5.44
  -7   4  -9   26.84    8.58
   7  -4   9   15.58    6.13
  -7  -4   9   21.50    7.98
  -7  -4 -10    3.20    0.85
  -7   4  10    2.53    1.66
  -7   4 -10    1.65    2.33
   7   4 -10    0.82    2.43
  -7  -4  10    4.06    1.90
  -7   4  10    3.15    1.71
  -7  -4 -10    1.71    1.68
  -7   4 -10    3.15    2.30
   7  -4  10    2.44    1.61
  -7  -4  10    3.38    1.89
  -7   4  11   58.58    6.67
  -7   4 -11   43.66    3.30
   7   4 -11   50.61   11.06
  -7  -4  11   33.51   11.23
  -7  -4 -11   49.59    5.54
  -7   4 -11   38.91   13.45
   7  -4  11   41.43    6.40
  -7  -4  11   18.74    8.03
  -7   4  12   69.94   12.70
  -7   4 -12   73.55    6.41
   7   4 -12   76.72    7.16
  -7  -4  12   77.42    5.63
  -7  -4 -12   72.56    9.53
  -7   4 -12   79.66    9.11
   7  -4  12   70.54   17.85
  -7  -4  12   72.26    4.01
   7   4 -13  105.03    7.67
  -7  -4  13   95.23    8.66
  -7  -4 -13  110.93   16.69
  -7   4 -13   96.68    9.04
   7  -4  13   86.18   16.91
  -7  -4  13  102.83    6.39
  -7   4  14   28.71   11.38
   7   4 -14   29.62    9.38
  -7  -4  14   37.07   13.13
  -7  -4 -14   30.42    5.83
  -7   4 -14   31.88   10.73
   7  -4  14   32.44   12.10
  -7  -4  14   30.82    9.57
   7   4 -15   69.89    8.40
  -7  -4  15   67.75    9.61
  -7  -4 -15   74.58   15.73
  -7   4 -15   75.01   13.68
   7  -4  15   81.05   18.13
   7   4 -16  226.83   28.49
  -7  -4  16  248.61    9.75
  -7  -4 -16  245.36    9.49
  -7   4 -16  223.40   20.57
   7  -4  16  256.63   23.52
  -7  -4  17    5.13    3.99
  -7  -4 -17    1.83    2.17
  -7   4 -17    7.70    3.19
   7  -4  17    7.27    4.90
  -7  -4  18    5.42    3.57
  -7  -4 -18   -0.89    2.84
  -7   4 -18    0.25    2.00
   7   4  18   -0.48    3.47
   7  -4  18    0.82    2.29
  -7   5   0  110.60    6.08
   7   5   0  114.99    5.45
  -7  -5   0  109.70    6.44
  -7   5   0  109.86    3.47
   7  -5   0  109.21    5.93
  -7   5   1  149.44    6.98
  -7   5  -1  164.05    8.07
   7   5  -1  137.06    5.48
   7   5   1  148.89    9.44
  -7  -5   1  146.32    7.41
  -7  -5  -1  131.13   10.99
  -7   5   1  150.47    5.90
  -7   5  -1  166.75    6.53
   7  -5   1  157.87    7.14
  -7   5   2  391.00   14.42
  -7   5  -2  392.23   14.51
   7   5  -2  417.33   11.77
   7   5   2  391.59   13.75
  -7  -5   2  377.24   14.22
  -7  -5  -2  385.54   14.45
  -7   5   2  391.12   13.23
  -7   5  -2  397.61   13.63
   7  -5   2  393.75   14.26
  -7   5   3  532.92   18.04
  -7   5  -3  541.27   17.19
   7   5  -3  531.21   18.97
   7   5   3  588.97   17.87
  -7  -5   3  564.03   19.47
  -7  -5  -3  540.51   17.66
  -7   5   3  553.87   15.34
  -7   5  -3  561.80   16.88
   7  -5   3  532.94   16.64
  -7   5   4  264.73   14.61
  -7   5  -4  257.70   15.81
   7   5  -4  258.61   12.73
   7   5   4  261.13   12.87
  -7  -5   4  239.20   12.27
  -7  -5  -4  251.98   12.87
  -7   5   4  287.05    8.35
  -7   5  -4  258.88   12.28
   7  -5   4  293.71   10.71
  -7   5   5  142.61    8.54
  -7   5  -5  147.82   11.65
   7   5  -5  152.57    8.89
   7   5   5  157.95    8.04
  -7  -5   5  164.75    9.37
  -7  -5  -5  143.48    8.30
  -7   5   5  153.18    7.14
  -7   5  -5  158.87    8.38
   7  -5   5  157.26    9.71
  -7   5   6   20.81    6.71
  -7   5  -6   24.05    7.42
   7   5  -6   19.00    3.20
   7   5   6   27.41    8.12
  -7  -5   6   26.22    7.27
  -7  -5  -6   23.04    5.57
  -7   5   6   22.21    2.13
  -7   5  -6   25.60    8.98
   7  -5   6   26.60    7.28
  -7  -5   6   28.10    3.79
  -7   5   7  159.15    6.13
  -7   5  -7  159.15    7.39
   7   5  -7  160.72   13.17
   7   5   7  155.97    4.88
  -7  -5   7  151.93    6.42
  -7   5   7  152.40    3.06
  -7  -5  -7  153.61    8.35
  -7   5  -7  164.50    6.10
   7  -5   7  169.15   11.72
  -7  -5   7  145.92    6.27
  -7   5   8   30.09   11.28
  -7   5  -8   29.51    8.80
   7   5  -8   23.43    6.01
   7   5   8   19.27    3.92
  -7  -5   8   17.49    7.00
  -7  -5  -8   14.25    3.36
  -7   5  -8   32.46    8.31
   7  -5   8   24.53    9.98
  -7  -5   8   19.96    6.76
  -7   5   9  436.99   13.32
  -7   5  -9  414.43   10.82
   7   5  -9  425.51   13.26
   7   5   9  379.52    8.69
  -7  -5   9  400.21   12.06
  -7  -5  -9  441.25   12.71
  -7   5  -9  368.41   11.99
   7  -5   9  453.90   15.75
  -7  -5   9  382.11   10.44
  -7   5  10   25.16    7.33
  -7   5 -10   20.88    7.22
   7   5 -10   27.87    4.40
  -7  -5  10   21.93    5.98
  -7  -5 -10   24.51    9.20
  -7   5 -10   27.43    8.67
   7  -5  10   27.53    7.49
  -7  -5  10   21.82    7.38
  -7   5  11   61.95    5.86
  -7   5 -11   63.49    3.66
   7   5 -11   71.22    8.44
  -7  -5  11   64.45    7.13
  -7  -5 -11   57.93    5.06
  -7   5 -11   56.90    6.59
   7  -5  11   63.01   15.15
  -7  -5  11   62.33    3.66
  -7   5  12    3.25    1.77
  -7   5 -12    2.44    1.24
   7   5 -12    3.01    3.00
  -7  -5  12    1.05    1.99
  -7  -5 -12   -0.03    2.80
  -7   5 -12    2.81    1.45
   7  -5  12    4.01    1.97
  -7  -5  12    2.41    2.17
  -7   5  13   58.83    8.94
   7   5 -13   51.41   12.95
  -7  -5  13   51.92   11.57
  -7  -5 -13   50.48   12.06
  -7   5 -13   58.69   14.97
   7  -5  13   62.92   15.81
  -7  -5  13   41.91    6.99
  -7   5  14  123.38    5.88
   7   5 -14  132.90   12.06
  -7  -5  14  113.80    6.62
  -7  -5 -14  126.93   11.35
  -7   5 -14  121.32   13.48
   7  -5  14  127.97    9.08
   7   5 -15   24.57    6.23
  -7  -5  15   24.43    6.93
  -7  -5 -15   10.32    3.38
  -7   5 -15   25.14    6.10
   7  -5  15   20.61    5.69
   7   5 -16   44.14    4.90
  -7  -5  16   29.95   12.64
  -7  -5 -16   44.97   12.36
  -7   5 -16   42.18    8.19
   7  -5  16   51.70   10.42
  -7  -5  17    4.41    3.12
  -7  -5 -17    4.62    2.32
  -7   5 -17    4.90    3.31
   7  -5  17    6.06    2.61
  -7  -5  18    9.70    3.79
  -7  -5 -18   13.35    4.00
  -7   5 -18   12.10    3.00
   7  -5  18   11.14    3.99
  -7   6   0   30.67    7.47
   7   6   0   34.86    9.75
  -7  -6   0   27.12    9.19
  -7   6   0   34.01    4.42
   7  -6   0   35.72    4.77
  -7   6   1  199.14   13.76
  -7   6  -1  200.58   11.69
   7   6  -1  171.80    9.07
   7   6   1  183.57   12.45
  -7  -6   1  180.13   13.84
  -7  -6  -1  174.77    9.78
  -7   6   1  209.90    9.47
  -7   6  -1  211.67   10.12
   7  -6   1  219.18   11.40
  -7   6   2  229.31   11.51
  -7   6  -2  233.18   11.60
   7   6  -2  240.14   15.57
   7   6   2  233.78   15.98
  -7  -6   2  242.20   12.54
  -7  -6  -2  247.65   15.70
  -7   6   2  237.86   10.48
  -7   6  -2  232.96   10.86
   7  -6   2  244.91   12.61
  -7   6   3   -0.67    2.24
  -7   6  -3    3.03    2.57
   7   6  -3    1.82    1.24
   7   6   3    1.83    1.87
  -7  -6   3    3.70    1.84
  -7  -6  -3    2.48    1.83
  -7   6   3    1.55    0.58
  -7   6  -3    5.06    1.84
   7  -6   3    2.57    3.37
  -7   6   4   17.54    3.80
  -7   6  -4   15.47    4.04
   7   6  -4   15.84    4.93
   7   6   4   16.21    3.99
  -7  -6   4    7.22    4.15
  -7  -6  -4   14.42    3.95
  -7   6   4   13.62    2.12
  -7   6  -4   14.82    4.85
   7  -6   4   13.25    5.01
  -7   6   5   81.67    5.90
  -7   6  -5   84.07   11.95
   7   6  -5   77.01    8.07
   7   6   5   56.48    4.16
  -7  -6   5   62.42    5.67
  -7  -6  -5   69.43    6.62
  -7   6  -5   73.32    3.89
   7  -6   5   85.61    7.39
  -7   6   6  652.88   19.62
  -7   6  -6  648.79   21.93
   7   6  -6  688.06   22.88
   7   6   6  665.10   18.05
  -7  -6   6  674.71   28.54
  -7  -6  -6  640.03   22.54
  -7   6  -6  624.88   25.63
   7  -6   6  634.12   22.77
  -7  -6   6  650.96   20.62
  -7   6   7   14.50    4.27
  -7   6  -7   18.50    4.75
   7   6  -7    0.61    1.69
   7   6   7    3.02    1.69
  -7  -6   7    2.47    1.86
  -7  -6  -7    2.33    1.45
  -7   6  -7   16.38    5.60
   7  -6   7    9.00    7.39
  -7  -6   7    0.64    1.28
  -7   6   8   21.56    6.65
  -7   6  -8   21.49    6.17
   7   6  -8   17.49    3.87
   7   6   8   22.17    2.55
  -7  -6   8   20.43    6.76
  -7  -6  -8   20.10    5.23
  -7   6  -8   20.16    5.31
   7  -6   8   19.67    4.65
  -7  -6   8   21.61    7.20
  -7   6   9   10.10    2.78
  -7   6  -9   11.13    2.49
   7   6  -9    6.33    1.94
   7   6   9    7.10    1.61
  -7  -6   9    5.58    2.88
  -7  -6  -9    8.25    3.69
  -7   6  -9   10.98    3.96
   7  -6   9    7.11    4.41
  -7  -6   9    4.22    2.26
  -7   6  10  295.76    8.56
  -7   6 -10  277.11    9.46
   7   6 -10  319.09    9.29
  -7  -6  10  297.71   14.32
  -7  -6 -10  294.53   17.03
  -7   6 -10  285.40    9.01
   7  -6  10  306.79   10.60
  -7  -6  10  277.04    8.41
  -7   6  11   27.02    7.67
  -7   6 -11   21.57    5.18
   7   6 -11   13.12    5.51
  -7  -6  11   12.67    3.62
  -7  -6 -11   13.11    3.50
  -7   6 -11   20.48    4.57
   7  -6  11   23.58    5.23
  -7  -6  11   12.53    5.22
  -7   6  12    6.04    2.48
  -7   6 -12    3.66    1.65
   7   6 -12    2.81    1.90
  -7  -6  12    1.65    1.66
  -7  -6 -12    1.55    1.26
  -7   6 -12    3.40    2.62
   7  -6  12    0.04    2.08
  -7  -6  12   -0.53    1.94
  -7   6  13   35.47    9.34
  -7   6 -13   28.89    6.31
   7   6 -13   31.27    9.73
  -7  -6  13   39.00    9.94
  -7  -6 -13   31.53    5.15
  -7   6 -13   34.56    9.40
   7  -6  13   40.60   10.50
  -7  -6  13   24.73   10.49
   7   6 -14    5.86    2.21
  -7  -6  14    4.60    5.17
  -7  -6 -14    4.58    2.34
  -7   6 -14   11.38    3.19
   7   6 -15   23.46    7.12
  -7  -6  15   22.52    6.91
  -7  -6 -15   17.78    4.56
  -7   6 -15   22.55    5.52
   7  -6  15   23.40    4.22
   7   6 -16    0.36    1.13
  -7  -6  16    0.60    1.17
  -7  -6 -16   -1.03    2.19
  -7   6 -16   -1.23    2.70
   7  -6  16    1.48    1.46
  -7  -6  17    9.30    4.13
  -7  -6 -17    8.28    2.99
  -7   6 -17   12.93    2.61
   7  -6  17    6.88    3.14
  -7  -6  18  121.22   21.58
  -7  -6 -18  132.42   16.23
  -7   6 -18  128.18   13.46
   7  -6  18  134.48   18.74
  -7   7   0   23.53    8.53
   7   7   0   22.69    5.43
  -7  -7   0   23.40    6.87
  -7   7   0   22.49    3.94
   7  -7   0   20.79    7.69
  -7   7   1   85.13    7.41
  -7   7  -1   78.62    5.04
   7   7  -1   91.00   11.26
   7   7   1   82.45    4.47
  -7  -7   1   79.97   11.28
  -7  -7  -1   82.64    8.99
  -7   7  -1   80.72    7.64
  -7   7   1   81.88    2.67
   7  -7   1   89.34    4.95
  -7   7   2  661.70   19.20
  -7   7  -2  647.68   18.07
   7   7  -2  692.34   18.77
   7   7   2  685.79   18.26
  -7  -7   2  666.39   20.32
  -7  -7  -2  641.84   25.31
  -7   7  -2  678.97   17.04
  -7   7   2  659.28   15.26
   7  -7   2  692.06   19.32
  -7   7   3  492.01   20.82
  -7   7  -3  465.80   15.37
   7   7  -3  523.78   15.34
   7   7   3  478.26   14.28
  -7  -7   3  472.57   14.84
  -7  -7  -3  471.83   14.47
  -7   7  -3  485.08   13.21
   7  -7   3  501.07   15.25
  -7   7   4   92.59    5.06
  -7   7  -4  110.39    9.24
   7   7  -4  111.93   13.59
   7   7   4  115.67    4.74
  -7  -7   4  113.97   11.00
  -7  -7  -4   98.80   11.00
  -7   7  -4  112.80    4.34
   7  -7   4  103.03   11.99
  -7   7   5   15.06    4.08
  -7   7  -5   11.52    5.33
   7   7  -5   10.98    3.25
   7   7   5   15.08    2.54
  -7  -7   5   12.60    3.28
  -7  -7  -5   13.21    4.45
  -7   7  -5   14.72    4.38
   7  -7   5   15.45    4.07
  -7   7   6    3.34    3.05
  -7   7  -6    3.42    2.10
   7   7  -6    3.11    4.10
   7   7   6    1.39    1.03
  -7  -7   6    2.61    1.69
  -7  -7  -6    4.57    2.84
  -7   7  -6    2.98    1.88
   7  -7   6    3.46    2.84
  -7  -7   6    2.22    1.81
  -7   7   7   64.91    5.46
  -7   7  -7   58.72    7.03
   7   7  -7   70.85    7.81
   7   7   7   62.36    3.38
  -7  -7   7   60.47   17.67
  -7  -7  -7   64.34   10.50
  -7   7  -7   58.47    6.79
   7  -7   7   62.35    6.50
  -7  -7   7   63.89    7.64
  -7   7   8   38.84    4.17
  -7   7  -8   35.31    7.88
   7   7  -8   37.91   10.61
   7   7   8   32.26    7.34
  -7  -7   8   34.37   11.72
  -7  -7  -8   39.47    8.38
  -7   7  -8   38.50    5.99
   7  -7   8   47.05   14.29
  -7  -7   8   26.03    9.62
  -7   7   9  232.84    7.86
  -7   7  -9  236.59    9.04
   7   7  -9  243.96   15.04
   7   7   9  246.38    6.17
  -7  -7   9  224.21   13.46
  -7  -7  -9  211.34   14.70
  -7   7  -9  244.29    8.22
   7  -7   9  243.59   15.15
  -7  -7   9  229.44    7.32
  -7   7  10  249.34    8.03
  -7   7 -10  249.77    8.64
   7   7 -10  247.61   23.18
  -7  -7  10  243.83    9.11
  -7  -7 -10  234.90    9.51
  -7   7 -10  246.40    8.25
   7  -7  10  274.40    9.86
  -7  -7  10  233.20    8.36
  -7   7  11    9.03    3.08
  -7   7 -11    7.41    2.16
   7   7 -11    9.08    2.54
  -7  -7  11   10.87    2.27
  -7  -7 -11    5.78    5.05
  -7   7 -11    7.77    4.08
   7  -7  11    9.76    4.46
  -7  -7  11    7.28    3.89
  -7   7  12   46.40   11.19
  -7   7 -12   46.49    3.25
   7   7 -12   49.65   11.82
  -7  -7  12   47.36   10.20
  -7  -7 -12   47.89   11.94
  -7   7 -12   43.54   16.15
   7  -7  12   57.31   14.29
  -7  -7  12   36.92   13.97
  -7   7  13   77.00    6.92
  -7   7 -13   75.79    6.82
   7   7 -13   78.86    7.22
  -7  -7  13   75.22   17.03
  -7  -7 -13   79.85    9.60
  -7   7 -13   71.91    9.80
   7  -7  13   75.12   19.19
   7   7 -14  211.77   21.41
  -7  -7  14  207.22    9.68
  -7  -7 -14  190.56   14.74
  -7   7 -14  219.07    9.26
   7  -7  14  217.65   20.89
   7   7 -15   77.77    6.21
  -7  -7  15   48.20   16.07
  -7  -7 -15   46.89   14.68
  -7   7 -15   57.12   15.09
   7  -7  15   61.19   17.37
   7   7 -16    3.65    1.66
  -7  -7  16    8.98    4.01
  -7  -7 -16    9.34    3.01
  -7   7 -16    8.28    4.10
   7  -7  16    6.27    5.20
   7   7 -17    4.50    3.22
  -7  -7  17    1.88    2.27
  -7  -7 -17    1.02    1.61
  -7   7 -17    2.68    3.20
   7  -7  17    3.23    3.69
  -7   8   0  476.89   23.76
   7   8   0  524.78   18.32
  -7  -8   0  542.07   19.97
  -7   8   0  512.26   16.26
  -7   8   1   56.36   12.48
  -7   8  -1   53.62   11.65
   7   8  -1   39.13   12.32
   7   8   1   40.94    3.92
  -7  -8   1   39.28   10.77
  -7  -8  -1   36.48   12.96
  -7   8  -1   59.90    2.76
   7  -8   1   58.01    6.42
  -7   8   2   18.16    4.60
  -7   8  -2   24.20    3.73
   7   8  -2   16.61    4.79
   7   8   2   23.87    6.64
  -7  -8   2   22.94    7.29
  -7  -8  -2   20.27    6.59
  -7   8  -2   18.37    5.84
   7  -8   2   12.26    7.66
  -7   8   3  166.56    9.73
  -7   8  -3  169.74    6.31
   7   8  -3  167.21    6.16
   7   8   3  181.29    9.36
  -7  -8   3  174.74   20.67
  -7  -8  -3  167.94   11.74
  -7   8  -3  185.75    5.39
   7  -8   3  187.77    7.55
  -7   8   4  452.66   16.59
  -7   8  -4  442.98   15.88
   7   8  -4  491.92   18.87
   7   8   4  478.90   16.97
  -7  -8   4  459.16   22.39
  -7  -8  -4  466.07   22.49
  -7   8  -4  448.10   15.25
   7  -8   4  470.55   17.94
  -7   8   5   96.24   13.46
  -7   8  -5   86.65    8.01
   7   8  -5   69.01   16.22
   7   8   5   54.94    5.19
  -7  -8   5   66.51    6.66
  -7  -8  -5   64.12   14.28
  -7   8  -5   78.74    3.92
   7  -8   5   89.18    8.56
  -7   8   6   11.85    3.31
  -7   8  -6   16.25    3.05
   7   8  -6   20.14    3.27
   7   8   6   16.86    4.59
  -7  -8   6   17.80    6.89
  -7  -8  -6   15.42    4.31
  -7   8  -6   14.95    4.57
   7  -8   6   14.37    4.26
  -7   8   7  125.24    6.43
  -7   8  -7  129.89    9.46
   7   8  -7  130.39   14.50
   7   8   7  126.18    5.41
  -7  -8   7  118.51   12.91
  -7  -8  -7  109.85    6.17
  -7   8  -7  123.01   10.84
   7  -8   7  120.29    6.58
  -7  -8   7  109.69    5.49
  -7   8   8  185.75    7.14
  -7   8  -8  192.56   12.18
   7   8  -8  183.48    7.18
   7   8   8  190.82    9.42
  -7  -8   8  192.18    8.73
  -7  -8  -8  172.15   10.71
   7  -8   8  177.17    7.65
  -7  -8   8  190.06    7.52
  -7   8   9   19.30    6.18
  -7   8  -9   14.54    4.49
   7   8  -9   17.91    3.98
   7   8   9   12.61    3.48
  -7  -8   9   10.12    4.59
  -7  -8  -9   10.84    5.59
   7  -8   9   20.41    5.10
  -7  -8   9   11.85    4.47
  -7   8  10   38.45    4.26
  -7   8 -10   43.34   11.02
   7   8 -10   39.87    8.56
  -7  -8  10   42.69   11.11
  -7  -8 -10   39.92    9.42
  -7   8 -10   38.44   14.14
   7  -8  10   36.92    6.07
  -7  -8  10   25.04   10.65
  -7   8  11   57.07   15.02
  -7   8 -11   71.39    5.18
   7   8 -11   55.21   12.91
  -7  -8  11   54.50   15.78
  -7  -8 -11   51.42    9.16
  -7   8 -11   58.62   10.58
   7  -8  11   62.27   18.96
  -7  -8  11   59.50    4.55
  -7   8  12  269.36   10.03
  -7   8 -12  282.50   12.13
   7   8 -12  291.13   10.18
  -7  -8  12  275.14   20.22
  -7  -8 -12  258.93   17.07
  -7   8 -12  281.94   10.57
   7  -8  12  277.57   16.14
  -7   8  13   20.52    7.10
  -7   8 -13   20.44    4.68
   7   8 -13   21.50    4.98
  -7  -8  13   21.19    4.69
  -7  -8 -13   18.51    6.50
  -7   8 -13   15.93    5.27
   7  -8  13   26.32    6.26
   7   8 -14    1.70    2.92
  -7  -8  14    1.04    1.93
  -7  -8 -14   -0.01    2.50
  -7   8 -14    2.87    3.05
   7  -8  14    2.44    2.19
   7   8 -15   52.46    9.87
  -7  -8  15   59.93   20.89
  -7  -8 -15   55.01   11.75
   7  -8  15   65.68   18.72
   7   8 -16   72.56    7.00
  -7  -8  16   74.45   23.74
  -7  -8 -16   56.36   15.03
   7  -8  16   79.00   19.56
  -7  -8 -17    5.03    3.36
  -7   9   0    4.69    2.27
   7   9   0   -1.92    2.29
  -7  -9   0   -0.16    3.00
  -7   9   1  350.33   10.97
  -7   9  -1  349.43   10.54
   7   9  -1  373.67   10.77
   7   9   1  384.13   11.02
  -7  -9   1  378.23   12.59
  -7  -9  -1  375.50   16.62
   7  -9   1  375.63   12.86
   7   9  -2   10.88    2.91
   7   9   2   12.94    3.45
  -7  -9   2   16.87    5.73
  -7  -9  -2   13.03    3.22
  -7   9   3  158.22   13.18
  -7   9  -3  170.67    7.13
   7   9  -3  169.67    9.24
   7   9   3  176.83    6.83
  -7  -9   3  179.69   10.81
  -7  -9  -3  170.97    8.95
  -7   9  -3  182.24    6.12
   7  -9   3  182.23    9.80
  -7   9   4   27.56    8.12
  -7   9  -4   24.09    5.61
   7   9  -4   26.83    8.39
   7   9   4   15.34    3.15
  -7  -9   4   16.36    5.10
  -7  -9  -4   26.46    5.41
   7  -9   4   31.54    9.09
  -7   9   5   10.38    3.92
  -7   9  -5   10.70    2.40
   7   9  -5   10.98    3.57
   7   9   5   14.32    3.86
  -7  -9   5   10.04    6.09
  -7  -9  -5   11.11    2.42
  -7   9  -5   10.02    3.07
   7  -9   5    7.93    4.52
  -7   9   6   86.43    8.51
  -7   9  -6   84.04    6.17
   7   9  -6  101.26   12.76
   7   9   6   94.45    4.82
  -7  -9   6   88.97    8.37
  -7  -9  -6   83.66    8.98
  -7   9  -6   86.98    5.19
   7  -9   6   90.36    7.03
  -7   9  -7   30.53    7.02
   7   9  -7   28.67    3.97
   7   9   7   23.73    7.08
  -7  -9   7   25.52    7.30
  -7  -9  -7   31.13    9.01
  -7   9  -7   23.89    7.68
   7  -9   7   34.32    5.99
  -7  -9   7   21.83    7.90
  -7   9   8  322.90   12.08
  -7   9  -8  300.42    9.86
   7   9  -8  351.97   11.35
   7   9   8  319.62   12.08
  -7  -9   8  309.23   18.01
  -7  -9  -8  318.25   10.03
  -7   9  -8  321.20    9.45
   7  -9   8  344.62   10.93
  -7  -9   8  311.14    9.65
  -7   9   9   20.70    5.74
  -7   9  -9   15.69    3.54
   7   9  -9   20.00    6.33
  -7  -9   9   10.35    5.41
  -7  -9  -9   19.05    6.11
  -7   9  -9   13.10    4.41
   7  -9   9   24.47    5.55
  -7  -9   9   11.07    4.21
  -7   9 -10    2.76    2.47
   7   9 -10    3.45    2.24
  -7  -9  10    2.90    1.97
  -7  -9 -10   -0.05    1.46
  -7   9 -10    6.36    3.38
   7  -9  10    2.59    3.20
  -7  -9  10    2.76    2.01
  -7   9  11  115.26    8.76
  -7   9 -11  116.69    9.52
   7   9 -11  131.16    9.91
  -7  -9  11  116.56   15.52
  -7  -9 -11  124.00   10.94
  -7   9 -11  115.62    6.20
   7  -9  11  126.59   22.47
  -7  -9  11  122.45    6.31
  -7   9  12   37.89   12.08
  -7   9 -12   39.61   10.75
   7   9 -12   47.66   10.93
  -7  -9  12   41.16   10.96
  -7  -9 -12   36.64    8.98
   7  -9  12   44.12   13.33
  -7   9 -13   84.14   10.80
   7   9 -13   70.79   18.82
  -7  -9  13   70.69   19.88
  -7  -9 -13   80.77    6.70
   7  -9  13   82.13   12.85
   7   9 -14    1.50    2.28
  -7  -9  14    2.75    2.78
  -7  -9 -14    1.06    1.36
   7  -9  14   -1.25    3.52
   7   9 -15   12.72    4.39
  -7  -9  15   18.64    6.98
  -7  -9 -15   17.11    5.61
   7  -9  15   21.62    4.55
   7   9 -16    2.33    1.65
  -7  -9  16    3.99    2.99
  -7  -9 -16    7.41    3.63
   7  -9  16   -1.45    4.04
  -7  10   0    4.60    2.08
   7  10   0    2.17    2.22
  -7 -10   0   -2.08    2.78
  -7  10   1   24.84    7.02
  -7  10  -1   24.63    5.69
   7  10  -1   25.47    6.46
   7  10   1   22.92    7.73
  -7 -10   1   31.74    8.69
  -7 -10  -1   26.51    7.26
  -7  10   2   16.47    3.62
  -7  10  -2   24.72    4.36
   7  10  -2   16.93    4.29
   7  10   2   24.58    7.84
  -7 -10   2   29.81    7.32
  -7 -10  -2    9.47    5.12
   7 -10   2   18.97    4.29
  -7  10   3    7.26    2.76
  -7  10  -3   17.01    3.32
   7  10  -3   12.08    2.91
   7  10   3   18.30    5.05
  -7 -10   3   20.20    4.65
  -7 -10  -3   17.40    3.92
   7 -10   3    4.99    4.40
  -7  10   4   29.33    4.60
  -7  10  -4   30.12    7.38
   7  10  -4   32.84    9.44
   7  10   4   34.10    9.33
  -7 -10   4   32.22    6.97
  -7 -10  -4   27.77    8.95
   7 -10   4   33.47    5.10
  -7  10   5   98.60    5.77
  -7  10  -5  108.72    7.07
   7  10  -5   95.57    9.93
   7  10   5  107.16    5.33
  -7 -10   5  100.65   12.52
  -7 -10  -5   77.75   11.07
   7 -10   5   81.95    7.92
  -7  10   6  160.51   10.32
  -7  10  -6  170.71    7.67
   7  10  -6  167.57   11.84
   7  10   6  175.57    7.00
  -7 -10   6  180.33    8.83
  -7 -10  -6  165.93   11.19
   7 -10   6  163.07   13.44
  -7  10   7  197.08   15.80
  -7  10  -7  202.25    7.92
   7  10  -7  224.75   14.52
  -7 -10   7  212.96   12.91
  -7 -10  -7  207.48    8.45
   7 -10   7  213.24    8.89
  -7  10   8    5.20    3.38
   7  10  -8    1.48    2.02
   7  10   8    3.08    1.66
  -7 -10   8    0.63    2.87
  -7 -10  -8    6.16    3.47
  -7 -10   8    3.04    3.16
  -7  10   9   75.89   11.71
  -7  10  -9   84.00    9.74
   7  10  -9   76.16    7.33
  -7 -10   9  100.97   13.36
  -7 -10  -9   73.25    7.08
   7 -10   9   83.05    7.33
  -7 -10   9   78.77    9.10
  -7  10  10   42.05   13.32
  -7  10 -10   47.12    9.51
   7  10 -10   55.82   16.54
  -7 -10  10   50.12   13.46
  -7 -10 -10   39.85   11.55
   7 -10  10   45.42   11.00
  -7 -10  10   39.99   15.54
  -7  10  11   31.95   10.73
  -7  10 -11   39.99    7.28
   7  10 -11   46.43    4.82
  -7 -10  11   36.44    8.10
  -7 -10 -11   31.65    8.12
   7 -10  11   38.50    7.96
  -7  10  12    1.04    1.31
  -7  10 -12    0.56    1.71
   7  10 -12    4.65    2.62
  -7 -10  12    1.67    2.32
  -7 -10 -12    3.58    2.63
   7 -10  12    1.60    1.15
  -7  10 -13    3.69    2.17
   7  10 -13    3.28    2.41
  -7 -10  13    3.31    3.77
  -7 -10 -13    3.31    1.56
   7 -10  13    6.13    3.73
  -7  10 -14    5.09    2.54
   7  10 -14    3.86    1.80
  -7 -10  14    1.44    1.47
  -7 -10 -14    4.50    2.67
   7 -10  14    1.12    2.91
   7  10 -15    2.29    2.89
  -7 -10  15    5.27    2.79
  -7 -10 -15    0.21    1.43
   7 -10  15    2.56    2.02
  -7  11   0    2.81    1.61
   7  11   0    5.92    2.93
  -7 -11   0    3.46    2.75
  -7  11   1   55.56   12.47
  -7  11  -1   43.36   14.49
   7  11  -1   45.90   12.21
   7  11   1   46.43    4.86
  -7 -11   1   52.20   10.25
  -7 -11  -1   43.30   14.44
  -7  11   2  225.28   17.31
  -7  11  -2  208.52   14.70
   7  11  -2  237.26    9.47
   7  11   2  238.59   13.59
  -7 -11   2  242.24    9.48
  -7 -11  -2  237.35    9.73
   7 -11   2  219.72    9.13
  -7  11  -3   14.16    6.92
   7  11  -3   15.98    3.23
   7  11   3   12.58    3.57
  -7 -11   3   17.51    4.87
  -7 -11  -3   18.23    5.66
   7 -11   3   14.19    6.46
  -7  11   4    3.12    1.78
  -7  11  -4    9.46    3.18
   7  11  -4    2.78    1.62
   7  11   4   10.15    2.53
  -7 -11   4    8.95    5.41
  -7 -11  -4    8.50    3.57
   7 -11   4    0.57    2.33
  -7  11   5   51.05   13.84
  -7  11  -5   37.56    9.59
   7  11  -5   46.30   10.32
   7  11   5   41.78    6.31
  -7 -11   5   36.02    8.98
  -7 -11  -5   51.30    9.16
   7 -11   5   47.05    5.84
  -7  11   6    4.56    2.38
  -7  11  -6   11.54    3.58
   7  11  -6    5.42    2.05
   7  11   6   12.67    2.73
  -7 -11   6    7.83    5.09
  -7 -11  -6    4.99    2.40
   7 -11   6    4.74    3.80
  -7  11   7  107.14    6.15
  -7  11  -7   99.78   17.69
   7  11  -7  117.89   23.16
   7  11   7  101.34    5.00
  -7 -11   7  104.25   12.40
  -7 -11  -7   99.97   12.21
   7 -11   7  106.70   14.89
  -7  11   8   22.07    6.91
  -7  11  -8   18.95    4.12
   7  11  -8   21.73    4.33
   7  11   8   19.52    4.60
  -7 -11   8   17.12    4.78
  -7 -11  -8   18.89    6.11
   7 -11   8   23.75    6.33
  -7  11   9   11.30    6.39
  -7  11  -9   12.39    5.52
   7  11  -9   14.39    3.39
  -7 -11   9   17.36    8.15
  -7 -11  -9   14.93    4.63
   7 -11   9   10.31    4.83
  -7 -11   9   11.99    5.15
  -7  11  10   42.03   14.80
  -7  11 -10   50.35    4.77
   7  11 -10   54.78   16.70
  -7 -11  10   50.14   20.34
  -7 -11 -10   44.54    6.17
   7 -11  10   62.73    8.26
  -7  11  11   32.14   10.84
  -7  11 -11   38.48   10.89
   7  11 -11   34.57   10.48
  -7 -11  11   41.13   12.49
  -7 -11 -11   34.52    8.79
   7 -11  11   46.23    6.58
  -7  11  12   18.42    7.42
  -7  11 -12   21.60    5.17
   7  11 -12   25.22    4.69
  -7 -11  12   24.84    6.70
  -7 -11 -12   17.83    4.55
   7 -11  12   28.40    8.45
  -7  11 -13    7.91    2.31
   7  11 -13   11.08    5.32
  -7 -11  13   12.06    5.12
  -7 -11 -13    7.83    3.79
   7 -11  13    5.29    3.87
   7  11 -14   34.82    8.96
  -7 -11  14   32.80   15.64
  -7 -11 -14   27.99    6.91
   7 -11  14   29.94    6.97
  -7  12   0   -0.21    2.96
   7  12   0    1.92    2.03
  -7 -12   0    1.04    2.08
  -7  12   1  182.91   12.59
  -7  12  -1  160.48   14.32
   7  12  -1  225.30    9.21
   7  12   1  182.49   12.13
  -7 -12   1  182.44    8.54
  -7 -12  -1  228.52   10.15
  -7  12   2   39.83    6.28
  -7  12  -2   37.73   11.04
   7  12  -2   42.06   10.15
   7  12   2   43.20   11.25
  -7 -12   2   39.30   15.42
  -7 -12  -2   36.64   12.31
  -7  12   3  148.17   12.32
  -7  12  -3  147.01   16.26
   7  12  -3  185.09   12.56
   7  12   3  157.23    9.43
  -7 -12   3  167.94   11.09
   7 -12   3  163.26   19.73
  -7  12   4   13.67    4.51
  -7  12  -4   17.72    5.21
   7  12  -4   17.91    4.77
   7  12   4   24.91    5.43
  -7 -12   4   18.54    5.92
  -7 -12  -4    7.80    3.05
   7 -12   4   11.95    3.71
  -7  12   5   18.68    4.73
  -7  12  -5   19.66    4.38
   7  12  -5   15.78    3.49
   7  12   5   16.83    5.03
  -7 -12   5   23.87    6.90
  -7 -12  -5   12.64    3.02
   7 -12   5   17.00    5.18
  -7  12   6    0.71    1.32
  -7  12  -6   -1.21    2.62
   7  12  -6    1.57    3.01
   7  12   6    0.88    1.19
  -7 -12   6    1.56    2.01
  -7 -12  -6    0.89    1.46
   7 -12   6   -1.65    3.42
  -7  12   7    0.22    1.83
  -7  12  -7   -0.18    2.23
   7  12  -7    2.02    1.63
   7  12   7    1.27    1.49
  -7 -12   7    3.01    1.89
  -7 -12  -7   -0.95    2.59
   7 -12   7    5.06    3.79
  -7  12   8   24.77    4.74
  -7  12  -8   15.85    4.31
   7  12  -8   22.79    4.23
   7  12   8   18.28    4.59
  -7 -12   8   20.79    4.82
  -7 -12  -8   25.68    5.01
   7 -12   8   24.48    8.54
  -7  12   9   55.29    5.54
  -7  12  -9   62.14    5.58
   7  12  -9   54.53    8.95
  -7 -12   9   58.29   17.12
  -7 -12  -9   47.02    9.44
   7 -12   9   55.45   16.67
  -7  12  10   -0.13    1.77
  -7  12 -10    1.04    2.00
   7  12 -10    3.40    2.27
  -7 -12  10    3.77    3.42
  -7 -12 -10    1.22    1.86
   7 -12  10    4.41    2.46
  -7  12  11   70.04   10.22
  -7  12 -11   79.73    5.83
   7  12 -11   63.75   12.35
  -7 -12  11   79.43   20.72
  -7 -12 -11   56.09   18.30
   7 -12  11   59.91   19.01
  -7  12 -12    0.36    1.62
   7  12 -12    2.84    1.58
  -7 -12  12    2.18    2.58
  -7 -12 -12    2.28    1.66
   7 -12  12    9.10    4.32
  -7  12 -13   33.68    4.70
   7  12 -13   35.59    7.93
  -7 -12  13   26.60    5.92
  -7 -12 -13   28.16    8.43
   7 -12  13   34.83    9.05
  -7  13   0   80.48    6.03
   7  13   0   74.63    6.87
  -7 -13   0   76.44   15.57
  -7  13   1   28.28    8.73
  -7  13  -1   31.37   11.25
   7  13   1   38.95   10.34
   7  13  -1   31.78    6.89
  -7 -13   1   31.82    7.75
  -7 -13  -1   38.72    7.79
  -7  13   2   51.11   11.55
  -7  13  -2   56.29    7.35
   7  13  -2   55.82   10.18
   7  13   2   60.20   14.34
  -7 -13   2   56.85   17.88
  -7 -13  -2   57.32    9.63
  -7  13   3   16.85    5.32
  -7  13  -3   15.89    3.27
   7  13  -3   13.89    3.84
   7  13   3   15.56    5.07
  -7 -13   3   16.03    3.57
  -7 -13  -3   13.16    2.76
  -7  13   4   43.12   12.00
  -7  13  -4   48.05   11.23
   7  13  -4   53.49   14.36
   7  13   4   49.97   11.85
  -7 -13   4   52.64   16.11
  -7 -13  -4   48.53    6.31
   7 -13   4   51.01    7.28
  -7  13   5   38.87   13.66
  -7  13  -5   36.27    8.99
   7  13  -5   46.52    9.60
   7  13   5   45.12   12.53
  -7 -13   5   49.29   15.13
  -7 -13  -5   43.27   14.86
   7 -13   5   45.30    9.14
  -7  13   6    4.39    2.91
  -7  13  -6    6.40    2.49
   7  13  -6    8.00    4.43
   7  13   6    6.92    1.67
  -7 -13   6    9.88    3.39
  -7 -13  -6    5.95    4.03
   7 -13   6    9.98    2.57
  -7  13   7   29.73    8.90
  -7  13  -7   29.56    7.70
   7  13  -7   34.94    5.06
   7  13   7   30.82   12.44
  -7 -13   7   38.63    7.06
  -7 -13  -7   24.08    8.54
   7 -13   7   33.26   18.15
  -7  13   8   29.32   10.64
  -7  13  -8   39.33    4.67
   7  13  -8   46.24   12.86
  -7 -13   8   35.34    9.17
  -7 -13  -8   50.15    5.58
   7 -13   8   47.05   11.73
  -7  13   9    9.06    4.70
  -7  13  -9   11.20    3.19
   7  13  -9   15.00    5.66
  -7 -13   9    9.22    1.94
  -7 -13  -9   10.81    4.54
   7 -13   9   14.03    5.07
  -7  13  10   12.05    3.28
  -7  13 -10    6.00    2.83
   7  13 -10   11.44    3.44
  -7 -13  10    8.23    4.89
  -7 -13 -10    8.89    2.77
   7 -13  10   11.84    4.35
  -7  13  11   20.50    9.11
  -7  13 -11   23.62    7.64
   7  13 -11   28.46    6.05
  -7 -13  11   26.23    6.92
  -7 -13 -11   20.61    5.66
   7 -13  11   32.57    9.16
  -7  13 -12   18.70    6.00
   7  13 -12   17.02    3.91
  -7 -13  12   19.05    7.97
   7 -13  12   29.89    6.72
  -7  14   0    2.35    2.10
   7  14   0    3.16    3.06
  -7 -14   0    1.26    2.78
  -7  14   1   -0.08    2.64
  -7  14  -1   -1.89    3.00
   7  14  -1    2.56    1.78
   7  14   1    0.13    2.46
  -7 -14   1   -0.21    3.43
  -7 -14  -1   -3.05    3.63
  -7  14   2   12.09    3.35
  -7  14  -2    5.37    3.62
   7  14  -2   12.13    4.89
   7  14   2   13.66    3.24
  -7 -14   2    8.27    3.00
  -7 -14  -2    7.04    4.32
  -7  14   3   64.84    8.66
  -7  14  -3   61.20   14.11
   7  14  -3   65.57   18.60
   7  14   3   55.08   14.75
  -7 -14   3   74.97   14.74
  -7 -14  -3   65.78   13.28
  -7  14   4   13.24    3.38
  -7  14  -4   14.57    4.26
   7  14  -4   14.81    4.40
   7  14   4   15.95    5.18
  -7 -14   4   12.47    2.01
  -7 -14  -4    5.58    3.60
  -7  14   5   74.53   12.57
  -7  14  -5   78.72   20.94
   7  14  -5   81.16   19.13
   7  14   5  103.57   10.36
  -7 -14   5   96.79   22.27
  -7 -14  -5   77.69    7.52
   7 -14   5   71.97   10.67
  -7  14   6   39.97   12.82
  -7  14  -6   42.87   12.07
   7  14  -6   47.07   10.34
   7  14   6   37.19   13.30
  -7 -14   6   42.66   11.48
  -7 -14  -6   39.16    7.72
   7 -14   6   43.95   12.89
  -7  14   7   38.37   15.21
  -7  14  -7   42.89   10.52
   7  14  -7   52.38   13.00
   7  14   7   40.55   14.62
  -7 -14   7   47.62   20.83
  -7 -14  -7   37.67   11.35
   7 -14   7   45.45   11.29
  -7  14   8   -0.44    2.80
  -7  14  -8   -1.89    2.58
   7  14  -8    2.50    3.32
  -7 -14   8    1.44    3.85
  -7 -14  -8    1.83    1.51
   7 -14   8    1.80    3.01
  -7  14   9   32.56   11.87
  -7  14  -9   41.46    6.56
   7  14  -9   34.50   12.86
  -7 -14   9   34.53   12.43
  -7 -14  -9   31.29   10.78
   7 -14   9   51.16    8.40
  -7  14  10   11.99    4.79
  -7  14 -10   14.10    4.28
   7  14 -10    7.12    3.04
  -7 -14  10    9.52    4.74
  -7 -14 -10    6.91    5.05
   7 -14  10    7.11    4.71
  -7  15   0    5.91    3.19
   7  15   0   17.74    4.79
  -7 -15   0   21.17    3.19
  -7  15   1   45.29    8.29
  -7  15  -1   47.64    9.25
   7  15   1   43.62   14.36
   7  15  -1   47.50   16.77
  -7 -15   1   54.66   12.83
  -7 -15  -1   46.15   12.76
  -7  15   2   18.01    4.08
  -7  15  -2   13.17    3.40
   7  15  -2   15.01    5.12
   7  15   2    9.50    2.28
  -7 -15   2   17.47    5.65
  -7 -15  -2   15.28    3.86
  -7  15   3   16.84    5.76
  -7  15  -3   18.89    6.68
   7  15  -3   23.12    4.66
   7  15   3   28.12    6.24
  -7 -15   3   25.58    8.33
  -7 -15  -3   16.68    5.74
  -7  15   4   56.91   17.46
  -7  15  -4   66.93   19.46
   7  15  -4   77.82   23.34
   7  15   4   74.22   18.72
  -7 -15   4   80.82   19.49
  -7 -15  -4   54.52   19.69
  -7  15   5   18.73    6.83
  -7  15  -5   30.64    5.39
   7  15  -5   23.37    5.24
   7  15   5   21.18    5.94
  -7 -15   5   19.88    4.71
  -7 -15  -5   20.88    5.18
  -7  15   6    9.44    2.75
  -7  15  -6    5.77    3.30
   7  15  -6    5.61    2.15
   7  15   6    5.14    2.33
  -7 -15   6   10.71    3.46
  -7 -15  -6    6.34    1.94
   7 -15   6    2.19    3.87
  -7  15   7    1.98    1.81
  -7  15  -7    3.84    2.88
   7  15  -7    5.17    3.39
  -7 -15   7    7.49    3.91
  -7 -15  -7    7.34    2.60
   7 -15   7    1.90    3.22
  -7  15   8   45.53   17.04
  -7  15  -8   51.23    5.59
   7  15  -8   61.56   13.15
  -7 -15   8   49.19   11.61
  -7 -15  -8   43.34   10.12
   7 -15   8   57.10    7.59
  -7  16   0   46.49   11.77
   7  16   0   51.26   12.76
  -7 -16   0   56.39   14.52
  -7  16   1    3.95    3.28
  -7  16  -1    8.89    3.58
   7  16   1   16.44    6.29
   7  16  -1    3.99    2.20
  -7 -16   1   14.95    4.22
  -7 -16  -1    6.50    3.86
  -7  16   2    4.37    3.59
  -7  16  -2    4.24    2.25
   7  16  -2    5.01    2.58
   7  16   2    6.23    3.22
  -7 -16   2    1.68    1.21
  -7 -16  -2    1.84    2.85
  -7  16   3   10.04    4.24
  -7  16  -3    7.01    3.55
   7  16  -3    7.98    3.54
   7  16   3   11.40    4.09
  -7 -16   3    9.63    3.22
  -7 -16  -3   14.07    5.65
  -7  16   4   27.73    6.46
  -7  16  -4   34.41    6.93
   7  16  -4   29.17   10.13
   7  16   4   27.58    6.10
  -7 -16   4   34.25    7.23
  -7 -16  -4   22.07    7.18
  -7  16   5    2.53    2.83
  -7  16  -5    1.37    1.22
   7  16  -5    2.37    2.22
   7  16   5    3.93    2.04
  -7 -16   5    2.08    2.85
  -7 -16  -5    3.72    2.74
   8   0   0  864.96   20.80
  -8   0   0  864.88   20.23
   8   0   0  926.09   19.20
   8   0  -1   31.51   10.20
   8   0   1   26.33    8.08
  -8   0  -1   28.29    3.26
   8   0   1   27.22    2.06
  -8   0  -2  167.73   10.64
   8   0  -2  165.41    7.81
  -8   0   2  169.29    7.43
  -8   0  -2  155.29    7.12
   8   0   2  167.99    6.18
  -8   0  -3  849.18   22.50
   8   0  -3  820.30   19.67
  -8   0   3  835.18   19.75
  -8   0  -3  818.39   21.54
   8   0   3  839.95   19.68
  -8   0  -4  412.68   11.66
   8   0  -4  415.24   13.53
  -8   0   4  399.47   14.55
  -8   0  -4  412.42   11.88
   8   0   4  411.74   10.58
  -8   0  -5  115.58    6.32
   8   0  -5  113.19    6.63
  -8   0   5  121.30    8.99
  -8   0  -5  121.01   10.68
   8   0   5  121.82   13.00
  -8   0  -6  150.80    7.83
   8   0  -6  147.85    8.33
  -8   0   6  164.35    8.64
  -8   0  -6  151.43    8.44
  -8   0   6  160.95    7.13
   8   0   6  164.96   11.78
  -8   0  -7  228.15    5.79
   8   0  -7  230.86    6.74
  -8   0   7  237.67    6.85
  -8   0  -7  223.98    6.94
  -8   0   7  226.50    3.84
   8   0   7  241.27    6.61
  -8   0  -8   11.05    3.24
   8   0  -8    8.56    2.28
  -8   0   8   10.81    3.71
  -8   0  -8    8.26    4.71
  -8   0   8    9.85    3.92
   8   0   8   12.19    2.45
  -8   0  -9  168.65   14.59
   8   0  -9  166.91    6.10
  -8   0   9  167.76    6.47
  -8   0  -9  156.82    6.44
  -8   0   9  156.38    4.10
   8   0   9  161.52    6.96
  -8   0 -10    3.26    2.12
   8   0 -10    2.49    2.05
  -8   0  10    6.04    2.19
  -8   0 -10    9.18    3.02
  -8   0  10    5.16    2.29
   8   0  10    2.35    1.70
   8   0 -11   -1.72    1.99
  -8   0  11   -0.27    2.21
  -8   0 -11   -0.59    2.71
  -8   0  11    0.37    0.86
   8   0  11    2.64    2.29
   8   0 -12  555.22   13.00
  -8   0  12  583.64   13.65
  -8   0 -12  535.95   12.35
  -8   0  12  526.68    9.10
   8   0  12  581.15   14.20
   8   0 -13   13.94    4.39
  -8   0 -13   21.48    3.64
   8   0  13   16.28    4.18
   8   0 -14   -0.50    1.65
  -8   0  14    1.40    1.17
  -8   0 -14    0.62    0.97
   8   0  14    0.54    2.27
  -8   0  15   79.95    4.94
  -8   0  15   67.50   13.59
  -8   0 -15   71.63   14.84
   8   0  15   73.49   19.79
  -8   0 -16  120.37   23.58
   8   0  16  112.26   24.40
  -8   0 -17    1.63    1.60
   8   0  17    2.90    2.04
  -8   0 -18   16.86    4.66
   8   0  18   23.06    6.11
  -8   1   0   31.74    8.42
   8   1   0   32.99    7.91
  -8  -1   0   33.73   10.50
  -8   1   0   33.40    6.29
   8   1   0   28.86    1.40
   8  -1   0   32.35    3.00
  -8   1   1   15.83    3.80
  -8   1  -1   13.46    3.10
   8   1  -1   18.05    4.87
   8   1   1   14.73    2.72
  -8  -1   1   13.03    5.59
  -8   1   1   13.33    1.92
  -8  -1  -1   15.82    3.59
  -8   1  -1   15.50    4.75
   8   1   1   14.00    3.30
   8  -1   1   12.67    3.84
  -8   1   2  408.45    8.36
  -8   1  -2  394.25   13.89
   8   1  -2  423.71   11.66
   8   1   2  404.23    8.10
  -8  -1   2  403.05    9.81
  -8   1   2  444.18   12.33
  -8  -1  -2  417.19   11.79
  -8   1  -2  405.73    8.02
  -8   1   2  436.14    9.44
   8   1   2  418.66   10.81
   8  -1   2  427.64   10.32
  -8   1  -3   94.85    4.59
   8   1  -3   99.77    7.52
   8   1   3  100.37    5.08
   8  -1  -3   94.31    4.44
  -8  -1   3   98.72    6.20
  -8   1   3  101.33    4.91
  -8  -1  -3   99.86   12.02
  -8   1  -3   99.40    4.65
   8   1   3  100.44    3.51
  -8   1   3  103.42    1.76
   8  -1   3  107.20    3.71
  -8   1  -4  557.92   17.71
   8   1  -4  597.24   18.42
   8  -1  -4  567.49   18.20
   8   1   4  568.27   16.95
  -8  -1   4  572.26   17.81
  -8   1   4  594.29   17.63
  -8  -1  -4  585.94   18.13
  -8   1  -4  573.36   17.77
   8   1   4  577.24   17.37
   8  -1   4  596.63   17.66
  -8   1   4  613.80   16.38
  -8  -1  -5   62.29    4.28
  -8   1  -5   69.62    5.44
   8   1  -5   70.16   11.55
   8  -1  -5   65.61    4.54
  -8  -1   5   72.52    4.60
  -8   1   5   61.90    4.92
  -8  -1  -5   62.52    4.08
  -8   1  -5   70.43    5.39
   8   1   5   71.49    4.32
   8  -1   5   60.44    7.05
  -8  -1  -6  304.09   10.25
  -8   1  -6  321.39   12.52
   8   1  -6  318.84   11.35
   8  -1  -6  315.92   11.11
  -8  -1   6  325.19   11.62
  -8   1   6  318.29   11.02
  -8  -1  -6  340.61   12.80
  -8   1  -6  316.41   11.14
   8   1   6  311.09   13.32
   8  -1   6  314.79   15.01
  -8  -1   6  299.37    8.27
  -8  -1  -7   17.81    2.45
  -8   1  -7   16.25    5.26
   8   1  -7   17.22    3.89
   8  -1  -7   17.36    3.30
  -8  -1   7   17.06    4.04
  -8   1   7   19.49    4.72
  -8  -1  -7   16.40    4.37
  -8   1  -7   12.89    6.34
   8   1   7   13.89    3.63
   8  -1   7   16.59    3.37
  -8  -1   7   14.37    2.70
  -8  -1  -8  418.36   21.28
  -8   1  -8  410.05   13.82
   8   1  -8  416.38   15.51
   8  -1  -8  407.83   16.51
  -8  -1   8  428.58   22.31
  -8   1   8  426.06   15.87
  -8  -1  -8  426.73   15.59
  -8   1  -8  422.84   15.35
   8   1   8  425.25   22.19
   8  -1   8  435.52   15.95
  -8  -1   8  424.15   13.17
  -8  -1  -9  140.62    8.03
  -8   1  -9  146.36   10.37
   8   1  -9  133.36    5.72
   8  -1  -9  135.81    7.27
  -8  -1   9  143.29    8.47
  -8   1   9  137.49    5.35
  -8  -1  -9  124.83    7.32
  -8   1  -9  139.25    6.27
   8   1   9  139.68    8.30
   8  -1   9  134.67    8.65
  -8  -1   9  139.89    3.99
  -8  -1 -10  197.19   12.19
  -8   1 -10  194.19    8.26
   8   1 -10  200.18   12.48
   8  -1 -10  199.19   15.65
  -8  -1  10  187.49    7.57
  -8   1  10  206.95    8.69
  -8  -1 -10  197.02    8.45
  -8   1 -10  193.76   13.70
   8   1  10  212.10   15.75
   8  -1  10  201.50   10.58
  -8  -1  10  193.15    5.72
  -8   1 -11    6.20    1.53
   8   1 -11    6.48    1.67
  -8  -1  11    1.70    1.85
  -8   1  11    8.80    2.83
  -8  -1 -11    5.00    2.12
  -8   1 -11    4.42    2.56
   8   1  11    7.73    3.32
   8  -1  11    7.56    3.95
  -8  -1  11    4.00    1.69
  -8   1  12   34.32    9.05
   8   1 -12   37.49    3.69
  -8  -1  12   29.12   10.76
  -8   1  12   32.44    4.89
  -8  -1 -12   29.72    9.78
  -8   1 -12   40.32   13.24
   8   1  12   41.72   10.22
   8  -1  12   35.94    9.86
  -8   1  13   28.63    9.75
   8   1 -13   29.93    4.28
  -8  -1  13   23.62    7.91
  -8   1  13   25.73    7.80
  -8  -1 -13   28.18    7.16
  -8   1 -13   26.28    7.60
  -8   1  13   12.04    6.86
   8   1  13   28.30    5.72
   8  -1  13   27.60    6.83
  -8   1  14   50.91    5.82
   8   1 -14   50.89    5.42
  -8  -1  14   38.99   13.53
  -8   1  14   49.19    7.29
  -8  -1 -14   47.94   14.62
  -8   1 -14   45.05   12.79
   8   1  14   46.30   11.18
   8  -1  14   48.70   16.40
  -8   1  15   17.64    6.08
   8   1 -15   18.81    4.60
  -8  -1  15   12.98    3.94
  -8  -1 -15   26.55    4.36
  -8   1 -15   18.96    4.57
   8   1  15   19.23    4.07
   8  -1  15   26.41    5.45
   8   1 -16  119.38   19.35
  -8  -1  16  131.49    6.78
  -8  -1 -16  143.29    8.09
  -8   1 -16  122.95   10.57
   8   1  16  127.77   27.43
   8  -1  16  136.76   17.88
  -8  -1  17    5.71    2.60
  -8  -1 -17   10.93    2.91
  -8   1 -17   10.19    3.02
   8   1  17    7.13    4.19
   8  -1  17    7.99    5.05
  -8  -1 -18   25.07    8.48
  -8   1 -18   30.01    7.21
   8   1  18   33.50    6.66
   8  -1  18   32.38    5.47
  -8   2   0   -0.80    2.06
   8   2   0    2.44    2.26
  -8  -2   0    3.47    4.10
  -8   2   0   -0.25    1.48
   8  -2   0    0.43    1.30
  -8   2   1  220.52    9.12
  -8   2  -1  214.95    8.71
   8   2  -1  219.14   12.45
   8   2   1  217.36    8.86
  -8  -2   1  209.98    8.93
  -8  -2  -1  224.94    9.46
  -8   2   1  219.33    8.39
  -8   2  -1  217.58    8.78
   8   2   1  207.47    6.96
   8  -2   1  233.23    8.64
  -8   2   2  634.57   16.22
  -8   2  -2  596.72   15.14
   8   2  -2  621.52   16.26
   8   2   2  623.04   15.90
  -8  -2   2  613.39   16.54
  -8  -2  -2  628.58   16.21
  -8   2   2  663.58   15.65
  -8   2  -2  610.91   15.64
   8   2   2  631.54   14.97
   8  -2   2  630.60   14.56
  -8   2   3  855.24   20.89
  -8   2  -3  866.03   20.81
   8   2  -3  850.61   21.50
   8   2   3  915.07   22.59
  -8  -2   3  906.46   22.12
  -8   2   3  890.28   21.04
  -8  -2  -3  863.58   21.05
  -8   2  -3  888.53   21.91
   8  -2   3  871.14   21.86
  -8   2   4   41.89    4.12
  -8   2  -4   57.30   10.65
   8   2  -4   38.54    3.71
   8   2   4   55.76    4.83
  -8  -2   4   53.67    8.53
  -8   2   4   47.36    4.13
  -8  -2  -4   46.80    4.78
  -8   2  -4   57.15    9.07
   8  -2   4   38.56    2.99
  -8   2   5   37.37    5.69
  -8   2  -5   39.20    4.41
   8   2  -5   31.36    2.72
   8   2   5   45.85    7.56
  -8  -2   5   42.89    4.22
  -8   2   5   34.81    5.41
  -8  -2  -5   38.01    5.03
  -8   2  -5   37.90    5.02
   8  -2   5   38.50    2.99
  -8   2   6  617.57   18.13
  -8   2  -6  600.11   16.39
   8   2  -6  618.76   16.92
   8   2   6  611.14   15.35
  -8  -2   6  611.50   17.30
  -8   2   6  596.46   14.89
  -8  -2  -6  612.70   18.16
  -8   2  -6  606.31   16.48
   8  -2   6  632.30   17.70
  -8  -2   6  572.91   12.53
  -8  -2  -7   77.78    3.60
  -8   2   7   80.38    5.96
  -8   2  -7   74.79    4.99
   8   2  -7   76.42    4.65
  -8  -2   7   83.34    7.15
  -8   2   7   86.36    4.04
  -8  -2  -7   75.63    5.83
  -8   2  -7   76.09    9.73
   8  -2   7   81.44    4.93
  -8  -2   7   74.40    2.24
  -8   2   8   88.00   10.20
  -8  -2  -8   86.15    4.57
  -8   2  -8   72.41    3.69
   8   2  -8   87.41    5.15
  -8  -2   8   77.39    6.43
  -8   2   8   87.99    3.97
  -8  -2  -8   86.94    5.22
  -8   2  -8   75.43    4.53
   8  -2   8   94.82   10.05
  -8  -2   8   75.74    2.82
  -8   2   9  196.56    9.75
  -8  -2  -9  205.02    9.34
  -8   2  -9  202.38    7.68
   8   2  -9  203.19    7.43
  -8  -2   9  209.16    7.64
  -8   2   9  210.70    7.55
  -8  -2  -9  204.44    8.23
  -8   2  -9  193.62    7.53
   8  -2   9  204.65    9.57
  -8  -2   9  197.26    7.75
  -8   2  10  173.42    7.33
  -8  -2 -10  178.80    6.05
  -8   2 -10  186.59    6.14
   8   2 -10  201.98   15.11
  -8  -2  10  188.55    7.36
  -8   2  10  183.00    6.26
  -8  -2 -10  179.18    7.62
  -8   2 -10  182.32   10.04
   8  -2  10  194.29    8.18
  -8  -2  10  178.15    7.47
  -8   2  11    6.40    1.93
  -8   2 -11    4.69    1.40
   8   2 -11    2.75    1.33
  -8  -2  11    2.93    3.83
  -8   2  11    5.07    2.49
  -8  -2 -11    5.07    3.53
  -8   2 -11    4.75    2.98
   8   2  11    4.19    2.33
   8  -2  11    5.20    2.62
  -8  -2  11    6.12    1.85
  -8   2  12   19.66    6.12
   8   2 -12   24.49    6.25
  -8  -2  12   12.39    2.90
  -8   2  12   14.49    4.64
  -8  -2 -12   18.45    9.87
  -8   2 -12   16.03    4.00
   8   2  12   10.42    2.56
   8  -2  12   16.64    6.30
  -8   2  13  114.90    5.63
   8   2 -13  123.94   12.14
  -8  -2  13  104.92   13.75
  -8  -2 -13  121.86   15.39
  -8   2 -13  107.98    6.67
   8   2  13  125.21   11.25
   8  -2  13  123.61   21.54
  -8   2  14  101.09    5.39
   8   2 -14  104.64   11.00
  -8  -2  14  102.86    6.27
  -8  -2 -14  109.55   14.94
  -8   2 -14   90.78    6.80
   8   2  14  110.46   10.80
   8  -2  14  105.32   10.71
  -8   2  15   52.03    5.70
   8   2 -15   60.06    6.38
  -8  -2  15   43.20   13.21
  -8  -2 -15   51.75   19.53
  -8   2 -15   52.48   16.97
   8   2  15   50.77    9.62
   8  -2  15   55.76   15.63
   8   2 -16   11.53    3.04
  -8  -2  16    4.18    1.87
  -8  -2 -16    7.60    3.72
  -8   2 -16    3.54    3.47
   8   2  16    5.17    3.28
   8  -2  16    5.20    4.46
  -8  -2  17    9.64    2.82
  -8  -2 -17    5.99    2.62
  -8   2 -17   12.97    3.87
   8   2  17    6.08    3.06
   8  -2  17    5.60    2.29
  -8  -2  18   22.98   10.40
  -8  -2 -18   27.22    7.86
  -8   2 -18   21.47    7.00
   8   2  18   25.45    8.74
   8  -2  18   35.87    7.19
  -8   3   0   53.05    6.73
   8   3   0   52.81    3.67
  -8  -3   0   60.79    4.86
  -8   3   0   74.91    3.34
   8  -3   0   59.60    8.36
  -8   3   1  166.68    8.86
  -8   3  -1  163.88    7.38
   8   3  -1  172.48    7.61
   8   3   1  163.15    7.29
  -8  -3   1  156.55    7.61
  -8  -3  -1  175.96    8.31
  -8   3   1  179.30    8.95
  -8   3  -1  157.20    6.51
   8   3  -1  174.24    5.65
   8  -3   1  184.57    7.89
  -8   3   2  388.03   14.21
  -8   3  -2  377.16   18.58
   8   3  -2  400.40   14.62
   8   3   2  364.04   13.43
  -8  -3   2  376.89   14.02
  -8  -3  -2  389.43   14.48
  -8   3   2  408.50    6.54
  -8   3  -2  374.17   13.41
   8  -3   2  383.58   13.16
  -8   3   3   54.43    4.10
  -8   3  -3   65.26    4.19
   8   3  -3   63.67    4.75
   8   3   3   65.40    4.27
  -8  -3   3   66.47   11.13
  -8  -3  -3   49.79    5.66
  -8   3   3   54.03    4.21
  -8   3  -3   59.23    3.45
   8  -3   3   58.56    8.72
  -8   3   4  278.74   10.28
  -8   3  -4  258.10   12.56
   8   3  -4  294.20   10.86
   8   3   4  276.18    9.92
  -8  -3   4  271.96   10.76
  -8   3   4  291.56   11.02
  -8  -3  -4  263.10   13.05
  -8   3  -4  270.48    6.90
   8  -3   4  284.51   10.09
  -8   3   5  452.83   15.24
  -8   3  -5  427.67   16.21
   8   3  -5  477.87   15.77
   8   3   5  432.66   13.50
  -8  -3   5  443.97   16.09
  -8   3   5  463.18   13.69
  -8  -3  -5  460.74   15.39
  -8   3  -5  406.09   13.37
   8  -3   5  439.42   18.68
  -8   3   6   82.98    4.58
   8   3  -6   81.76    5.29
   8   3   6   88.92    3.71
  -8  -3   6   85.59    5.49
  -8   3   6   84.42    3.16
  -8  -3  -6   89.42    5.30
   8  -3   6   87.03    7.23
  -8  -3   6   86.67    2.14
  -8   3   7  300.33   10.90
  -8   3  -7  305.23   10.39
   8   3  -7  295.39   13.16
   8   3   7  291.67    8.97
  -8  -3   7  320.83   11.88
  -8   3   7  312.27    9.13
  -8  -3  -7  318.25   11.19
  -8   3  -7  289.93   10.09
   8  -3   7  309.91   16.03
  -8  -3   7  300.68    8.18
  -8  -3  -8  231.75    8.70
  -8   3   8  232.87   10.03
  -8   3  -8  227.64    9.34
   8   3  -8  245.28   10.17
  -8  -3   8  238.22   10.86
  -8   3   8  244.86    9.32
  -8  -3  -8  252.32   10.99
  -8   3  -8  223.20   12.35
   8  -3   8  251.18   11.55
  -8  -3   8  225.64    7.82
  -8  -3  -9   39.08    5.27
  -8   3   9   33.35   11.37
  -8   3  -9   40.60    3.77
   8   3  -9   35.13    9.42
  -8  -3   9   40.95    4.58
  -8   3   9   36.31    4.76
  -8  -3  -9   37.03    4.12
  -8   3  -9   41.51    4.78
   8  -3   9   41.83   11.45
  -8  -3   9   44.82    3.19
  -8   3  10   14.22    3.47
  -8  -3 -10   11.44    2.73
  -8   3 -10   14.93    3.92
   8   3 -10   12.07    1.89
  -8  -3  10   15.63    4.60
  -8   3  10   11.19    3.64
  -8  -3 -10   14.98    3.77
  -8   3 -10   11.03    4.91
   8  -3  10   16.68    3.79
  -8  -3  10   12.87    3.71
  -8   3  11    4.94    2.31
  -8   3 -11   10.19    3.45
   8   3 -11    5.11    1.49
  -8  -3  11   13.33    4.88
  -8  -3 -11    6.27    1.93
  -8   3 -11   16.10    4.55
   8  -3  11    6.80    3.12
  -8   3  12   23.64    6.53
   8   3 -12   26.67    5.32
  -8  -3  12   24.00    8.34
  -8  -3 -12   25.89    9.36
  -8   3 -12   32.61   10.14
   8  -3  12   27.05    6.32
  -8   3  13   46.06   13.19
   8   3 -13   46.34    7.80
  -8  -3  13   40.01   12.40
  -8  -3 -13   45.59    5.16
  -8   3 -13   48.48    9.76
   8  -3  13   49.39   14.62
  -8   3  14   84.39    7.57
   8   3 -14   95.33    6.43
  -8  -3  14   82.49    9.87
  -8  -3 -14   88.42    6.85
  -8   3 -14   91.54   11.55
   8  -3  14  103.89   11.51
   8   3 -15   38.10    5.02
  -8  -3  15   34.16   12.03
  -8  -3 -15   29.26    8.54
  -8   3 -15   38.81   15.19
   8   3  15   32.21    7.28
   8  -3  15   40.31   11.66
   8   3 -16   49.02   10.72
  -8  -3  16   40.32   14.68
  -8  -3 -16   55.40    8.01
  -8   3 -16   46.01    7.89
   8   3  16   45.13   17.07
   8  -3  16   51.05    8.77
  -8  -3  17   38.51   13.24
  -8  -3 -17   36.41   10.61
  -8   3 -17   39.77   12.30
   8   3  17   39.78   10.17
   8  -3  17   40.99   10.31
  -8  -3  18   18.30    6.04
  -8  -3 -18   15.41    5.66
  -8   3 -18   22.53    6.21
   8   3  18   22.11    8.07
   8  -3  18   26.62    9.17
  -8   4   0  122.24   11.75
   8   4   0  119.89    7.25
  -8  -4   0  133.53    8.51
  -8   4   0  125.89    6.55
   8  -4   0  124.09    7.04
  -8   4   1  567.49   17.97
  -8   4  -1  569.99   17.83
   8   4  -1  582.80   17.95
   8   4   1  562.92   22.03
  -8  -4   1  550.89   18.61
  -8  -4  -1  570.16   18.24
  -8   4   1  570.70   16.69
  -8   4  -1  539.73   17.08
   8  -4   1  573.40   18.66
   8   4  -2  101.32    9.16
   8   4   2   82.68    7.06
  -8  -4   2   86.80    7.35
  -8  -4  -2   92.33    6.49
  -8   4   2   92.58    5.30
   8   4  -2   95.38    4.52
   8  -4   2   91.21    5.90
  -8   4   3   87.22   13.80
  -8   4  -3   99.05    9.34
   8   4  -3   81.59    7.48
   8   4   3   93.99    6.91
  -8  -4   3   96.71    9.36
  -8  -4  -3   82.03    7.82
  -8   4   3   82.59    4.54
  -8   4  -3  102.47    5.87
   8   4  -3   78.61    1.94
   8  -4   3   83.99    5.57
  -8   4   4  423.76   14.32
  -8   4  -4  408.61   13.71
   8   4  -4  418.75   14.78
   8   4   4  396.80   12.97
  -8  -4   4  413.53   15.20
  -8  -4  -4  405.58   14.74
  -8   4   4  407.40   12.20
  -8   4  -4  410.13   13.39
   8  -4   4  404.75   13.82
  -8   4   5    1.90    0.88
   8   4  -5    2.85    2.51
   8   4   5    3.51    1.11
  -8  -4   5    2.93    1.39
  -8   4   5    1.89    1.11
  -8  -4  -5    1.46    1.93
  -8   4  -5    2.47    1.29
   8  -4   5    0.73    2.01
  -8   4   6    3.27    1.54
  -8   4  -6    4.02    1.50
   8   4  -6    6.56    2.47
   8   4   6    2.39    1.05
  -8  -4   6    2.92    2.60
  -8   4   6    6.35    1.99
  -8  -4  -6   -0.62    3.08
  -8   4  -6    3.61    2.42
   8  -4   6    3.99    1.92
  -8   4   7   24.88    5.92
  -8   4  -7   25.21    5.27
   8   4  -7   28.76    5.42
   8   4   7   27.38    8.61
  -8  -4   7   25.96    7.76
  -8   4   7   22.67    6.29
  -8  -4  -7   22.57    6.65
  -8   4  -7   19.97    4.91
   8  -4   7   24.09    5.38
  -8  -4   7   22.28    3.28
  -8   4   8  238.91    8.38
  -8   4  -8  254.71   12.80
   8   4  -8  273.58   22.91
   8   4   8  253.98    7.41
  -8  -4   8  277.09    9.98
  -8   4   8  242.86    6.19
  -8  -4  -8  246.98   16.82
  -8   4  -8  252.97    8.60
   8  -4   8  257.61    9.71
  -8  -4   8  262.85    6.76
  -8   4   9  106.82    6.70
  -8   4  -9  119.73    4.91
   8   4  -9  107.40    5.65
  -8  -4   9  104.40    9.12
  -8  -4  -9  106.90   13.40
  -8   4  -9   93.29   10.95
   8  -4   9  104.08    7.78
  -8  -4   9   88.81    3.89
  -8   4  10   59.50    5.82
  -8   4 -10   67.02    3.88
   8   4 -10   70.12    8.79
  -8  -4  10   61.37    5.84
  -8  -4 -10   65.12    4.56
  -8   4 -10   55.55    5.27
   8  -4  10   65.39    5.63
  -8   4  11  105.85    5.07
  -8   4 -11   89.78    4.45
   8   4 -11  114.93    8.31
  -8  -4  11   89.34    5.80
  -8  -4 -11  107.19    5.95
  -8   4 -11   79.80    6.53
   8  -4  11  110.70    7.40
  -8   4  12   30.56   10.18
  -8   4 -12   25.95    2.62
   8   4 -12   34.34   10.13
  -8  -4  12   27.47    6.51
  -8  -4 -12   30.52    9.13
  -8   4 -12   27.66    7.10
   8  -4  12   30.43    7.13
  -8   4  13  106.12    5.35
   8   4 -13  110.96    9.72
  -8  -4  13  107.05   11.78
  -8  -4 -13  103.16   13.97
  -8   4 -13  104.38    8.92
   8  -4  13  109.83   15.05
  -8   4  14   36.90   10.10
   8   4 -14   31.87    7.63
  -8  -4  14   30.29   13.82
  -8  -4 -14   30.40    9.32
  -8   4 -14   28.83   14.62
   8  -4  14   28.53   13.53
   8   4 -15   70.69    7.63
  -8  -4  15   68.50   10.20
  -8  -4 -15   64.60   17.67
  -8   4 -15   72.46   13.85
   8  -4  15   63.43   13.85
   8   4 -16   24.23    6.90
  -8  -4  16   24.26    7.65
  -8  -4 -16   25.21    4.55
   8  -4  16   28.04    7.90
  -8  -4  17   -1.23    2.85
  -8  -4 -17    2.04    1.75
  -8   4 -17    2.49    3.27
   8   4  17   -0.24    1.74
   8  -4  17    1.81    2.56
  -8  -4  18   11.59    5.37
  -8  -4 -18   13.55    4.11
  -8   4 -18   13.89    5.89
   8   4  18   13.41    3.86
   8  -4  18   14.20    6.70
  -8   5   0  184.62    9.99
   8   5   0  178.31   12.71
  -8  -5   0  175.73   11.21
  -8   5   0  181.33    8.78
   8  -5   0  190.63    9.78
  -8   5   1  248.47   14.94
  -8   5  -1  253.80   12.51
   8   5  -1  270.77    7.73
   8   5   1  270.95    7.93
  -8  -5   1  292.13   11.29
  -8  -5  -1  269.91   15.25
  -8   5   1  268.21    7.14
  -8   5  -1  264.27   13.29
   8  -5   1  258.39   13.69
  -8   5   2    2.91    1.29
   8   5  -2    4.61    1.58
   8   5   2    4.06    1.39
  -8  -5   2    8.52    1.80
  -8  -5  -2    3.07    2.04
  -8   5   2    2.70    1.16
   8  -5   2    4.84    3.34
  -8   5   3   -0.60    2.59
  -8   5  -3    1.12    1.40
   8   5  -3    4.27    2.81
   8   5   3    4.23    2.11
  -8  -5   3    6.04    2.19
  -8  -5  -3    1.61    2.10
  -8   5   3    5.85    1.50
  -8   5  -3    3.26    1.47
   8  -5   3    2.40    3.06
  -8   5   4   96.64   14.17
  -8   5  -4  104.14    9.16
   8   5  -4  100.43   10.78
   8   5   4  105.24    4.67
  -8  -5   4  114.21   10.20
  -8  -5  -4   79.64    6.35
  -8   5   4   91.34    3.80
  -8   5  -4  101.60    4.32
   8  -5   4   91.81    8.89
  -8   5   5  580.63   16.35
  -8   5  -5  485.76   14.95
   8   5  -5  548.53   15.67
   8   5   5  489.22   13.83
  -8  -5   5  504.50   15.97
  -8  -5  -5  516.87   15.43
  -8   5   5  523.18   13.00
  -8   5  -5  502.24   14.20
   8  -5   5  527.96   15.54
  -8   5   6   62.95   10.72
  -8   5  -6   56.68   13.77
   8   5  -6   56.40    5.04
   8   5   6   53.84    3.27
  -8  -5   6   59.82    6.97
  -8  -5  -6   55.79   16.09
  -8   5   6   52.69    2.05
  -8   5  -6   65.05   11.46
   8  -5   6   56.63   14.70
  -8   5   7  121.26   12.06
  -8   5  -7  125.26    7.97
   8   5  -7  119.23    7.34
   8   5   7  120.59    4.54
  -8  -5   7  133.39    8.11
  -8  -5  -7  113.22    8.70
  -8   5  -7  130.13    5.91
   8  -5   7  121.10    7.71
  -8  -5   7  119.84    3.49
  -8   5   8   55.97   12.85
  -8   5  -8   50.76    6.34
   8   5  -8   50.26    4.23
   8   5   8   50.11    2.85
  -8  -5   8   49.71    4.99
  -8  -5  -8   43.44    4.79
  -8   5  -8   54.10    5.08
   8  -5   8   49.63   14.01
  -8  -5   8   48.92    2.79
  -8   5   9   91.31   13.36
  -8   5  -9   99.61    6.72
   8   5  -9  102.71   11.98
   8   5   9   94.54    3.50
  -8  -5   9   91.76   11.41
  -8  -5  -9   83.01    6.90
  -8   5  -9   94.41   16.21
   8  -5   9   82.07    9.75
  -8   5  10   46.66   12.71
  -8   5 -10   40.76    3.75
   8   5 -10   37.17   11.25
  -8  -5  10   28.70    8.87
  -8  -5 -10   29.97    9.97
  -8   5 -10   28.01   13.20
   8  -5  10   38.00    8.74
  -8   5  11  218.11    7.82
  -8   5 -11  197.75   10.49
   8   5 -11  222.87    8.38
  -8  -5  11  211.83    9.17
  -8  -5 -11  209.18    8.19
  -8   5 -11  191.72   22.13
   8  -5  11  218.88   15.91
  -8   5  12   60.39    8.88
  -8   5 -12   62.80    9.91
   8   5 -12   58.41    5.00
  -8  -5  12   66.30   20.01
  -8  -5 -12   55.60    6.18
  -8   5 -12   56.04   16.07
   8  -5  12   58.90   14.96
  -8   5  13   51.29    5.46
   8   5 -13   43.91    7.20
  -8  -5  13   39.90   12.41
  -8  -5 -13   51.39    4.88
  -8   5 -13   45.39   12.05
   8  -5  13   49.32   11.91
  -8   5  14    1.51    1.40
   8   5 -14    0.64    1.57
  -8  -5  14    4.33    2.93
  -8  -5 -14    2.27    1.35
  -8   5 -14    2.09    2.72
   8  -5  14   -0.65    3.08
   8   5 -15   66.43   11.09
  -8  -5  15   47.52   14.88
  -8  -5 -15   66.93   11.08
  -8   5 -15   63.05   18.72
   8  -5  15   67.69   15.55
   8   5 -16    6.28    2.70
  -8  -5  16    5.71    3.44
  -8  -5 -16    2.62    1.92
  -8   5 -16   10.70    2.71
   8  -5  16    4.41    2.36
  -8  -5  17   51.36   15.59
  -8  -5 -17   56.61   18.00
  -8   5 -17   60.66   15.78
   8  -5  17   58.66   14.64
  -8   6   0   82.31    5.81
   8   6   0   90.87    6.96
  -8  -6   0   87.63    5.64
  -8   6   0   85.92    3.20
   8  -6   0   94.38    8.43
   8   6  -1    1.42    1.04
   8   6   1    1.24    1.36
  -8  -6   1   -4.60    3.17
  -8  -6  -1   -1.70    3.30
  -8   6   2  302.93   10.13
  -8   6  -2  314.13   10.69
   8   6  -2  320.54   12.08
   8   6   2  325.44   10.74
  -8  -6   2  318.63   11.18
  -8  -6  -2  310.98   11.31
  -8   6   2  315.03    8.74
  -8   6  -2  325.40    9.36
   8  -6   2  314.63   10.57
  -8   6   3  385.59   13.99
  -8   6  -3  406.23   12.75
   8   6  -3  412.45   12.92
   8   6   3  391.76   12.89
  -8  -6   3  393.90   13.06
  -8  -6  -3  386.31   20.04
  -8   6   3  400.40    9.66
  -8   6  -3  395.79   11.29
   8  -6   3  385.49   11.98
  -8   6   4  104.06   10.36
  -8   6  -4   71.75    9.15
   8   6  -4   88.69    5.46
  -8  -6   4   81.29   15.96
  -8  -6  -4   89.79    8.98
  -8   6   4   97.69    3.90
  -8   6  -4   99.74    4.35
   8  -6   4  107.43    7.39
  -8   6   5   86.41    4.87
  -8   6  -5   79.46   12.55
   8   6  -5   90.33   10.69
   8   6   5   76.02    5.92
  -8  -6   5   81.11    5.63
  -8  -6  -5   77.96   11.70
  -8   6  -5   82.29    4.34
   8  -6   5   82.80    9.47
  -8   6   6   21.71    7.15
  -8   6  -6   20.06    6.60
   8   6  -6   24.02    6.81
   8   6   6   19.15    4.16
  -8  -6   6   17.82    5.82
  -8  -6  -6   26.51    5.91
  -8   6  -6   20.50    5.26
   8  -6   6   19.67    9.99
  -8   6   7   85.66    8.21
  -8   6  -7   84.61   14.91
   8   6  -7   83.78    6.11
   8   6   7   87.00    4.04
  -8  -6   7   86.79    8.49
  -8  -6  -7   92.99   11.82
  -8   6  -7   84.32   10.08
   8  -6   7   89.00    9.19
  -8  -6   7   77.89    3.47
  -8   6   8  191.87   12.06
  -8   6  -8  217.59   11.55
   8   6  -8  174.39    7.38
   8   6   8  184.36    6.51
  -8  -6   8  180.44   12.25
  -8  -6  -8  167.45    7.55
  -8   6  -8  201.01    9.95
   8  -6   8  175.64   13.16
  -8  -6   8  200.34    6.53
  -8   6   9  371.93    9.82
  -8   6  -9  354.34   13.88
   8   6  -9  356.02    9.87
   8   6   9  333.96    6.72
  -8  -6   9  341.46   13.75
  -8  -6  -9  344.11   10.27
  -8   6  -9  318.96   19.57
   8  -6   9  360.20   11.04
  -8   6  10   30.97    8.93
  -8   6 -10   36.29    5.81
   8   6 -10   31.97    7.72
  -8  -6  10   32.55    9.92
  -8  -6 -10   31.02    8.23
  -8   6 -10   29.48    9.16
   8  -6  10   32.43    5.77
  -8   6  11    3.17    1.96
  -8   6 -11    7.39    1.97
   8   6 -11    6.69    2.97
  -8  -6  11   11.07    3.40
  -8  -6 -11    4.15    2.36
  -8   6 -11    4.84    2.55
   8  -6  11    3.60    2.86
  -8   6  12   36.22   11.96
  -8   6 -12   35.37   10.60
   8   6 -12   36.38    3.99
  -8  -6  12   35.78   11.13
  -8  -6 -12   33.04    6.98
  -8   6 -12   39.49   12.08
   8  -6  12   39.01    7.78
  -8   6  13   21.71    7.04
   8   6 -13   23.39    6.70
  -8  -6  13   24.07    6.52
  -8  -6 -13   21.32    7.12
  -8   6 -13   19.20    5.20
   8  -6  13   24.98    6.88
  -8   6  14   95.01    5.92
   8   6 -14   89.30   20.98
  -8  -6  14  105.78   13.33
  -8  -6 -14   94.75    9.29
  -8   6 -14   99.85   10.57
   8  -6  14   92.84   21.99
   8   6 -15   20.77    5.33
  -8  -6  15   15.08    4.25
  -8  -6 -15   22.49    5.76
  -8   6 -15   19.19    4.48
   8  -6  15   20.60    6.90
   8   6 -16    0.98    1.37
  -8  -6  16    4.77    2.59
  -8  -6 -16    2.35    1.82
  -8   6 -16    0.70    2.64
   8  -6  16    3.35    2.52
   8   6 -17   27.71    7.19
  -8  -6  17   27.60    6.16
  -8  -6 -17   28.26    6.03
  -8   6 -17   24.25    5.77
   8  -6  17   30.71   12.17
  -8   7   0   93.42    8.06
   8   7   0   65.91    6.68
  -8  -7   0   57.79   17.80
  -8   7   0   91.01    5.99
  -8   7   1  319.24   14.76
  -8   7  -1  304.57   14.30
   8   7  -1  358.97   13.54
   8   7   1  327.50   12.68
  -8  -7   1  323.92   20.94
  -8  -7  -1  356.88   20.78
  -8   7  -1  315.54   11.29
  -8   7   1  325.63   11.73
   8  -7   1  334.47   13.46
  -8   7   2    0.80    1.00
  -8   7  -2    1.59    2.32
   8   7  -2    1.91    1.62
   8   7   2    1.01    1.42
  -8  -7   2    2.93    1.77
  -8  -7  -2    9.15    5.03
  -8   7  -2    0.79    0.80
  -8   7   2    1.61    1.13
   8  -7   2    2.47    2.90
  -8   7   3  191.01    6.62
  -8   7  -3  197.76    6.61
   8   7  -3  196.32    6.78
   8   7   3  199.13    6.59
  -8  -7   3  192.73    7.99
  -8  -7  -3  182.65   13.59
  -8   7  -3  195.33    7.17
   8  -7   3  198.19    7.20
  -8   7   4  118.07    7.29
  -8   7  -4  122.96    6.79
   8   7  -4   93.65    7.50
   8   7   4   86.53    5.62
  -8  -7   4   88.28    8.77
  -8  -7  -4   97.34    6.10
  -8   7  -4  114.78    4.63
   8  -7   4  131.26   11.90
  -8   7   5  437.60   12.74
  -8   7  -5  434.58   11.87
   8   7  -5  433.98   12.39
   8   7   5  436.96   14.07
  -8  -7   5  445.40   12.96
  -8  -7  -5  415.79   16.91
  -8   7  -5  425.01   11.37
   8  -7   5  411.88   12.00
  -8   7   6   21.84    3.73
  -8   7  -6   21.91    6.15
   8   7  -6   18.76    5.02
   8   7   6   20.27    7.81
  -8  -7   6   20.03    5.23
  -8  -7  -6   19.02    5.09
  -8   7  -6   19.21    6.51
   8  -7   6   21.37    4.33
  -8   7   7  203.14    7.70
  -8   7  -7  220.83   15.87
   8   7  -7  192.76   11.46
   8   7   7  193.41    6.94
  -8  -7   7  201.64   12.41
  -8  -7  -7  202.59   12.51
  -8   7  -7  203.45    7.97
   8  -7   7  200.96    8.43
  -8   7   8   50.73    6.29
  -8   7  -8   63.55    4.89
   8   7  -8   36.42   12.11
   8   7   8   44.03    6.22
  -8  -7   8   44.20   14.92
  -8  -7  -8   36.48   10.74
   8  -7   8   50.29   14.71
  -8   7   9   59.23   13.90
  -8   7  -9   66.43   13.85
   8   7  -9   58.89    6.75
   8   7   9   64.84    3.71
  -8  -7   9   72.66    7.79
  -8  -7  -9   58.93    5.48
  -8   7  -9   72.31   11.11
   8  -7   9   63.86   17.19
  -8   7  10   39.45   11.32
  -8   7 -10   38.97   10.72
   8   7 -10   33.98   10.59
  -8  -7  10   38.55   12.24
  -8  -7 -10   41.07    9.24
  -8   7 -10   36.36   10.21
   8  -7  10   38.86   12.80
  -8   7  11  228.83    8.43
  -8   7 -11  243.16    8.02
   8   7 -11  247.89   18.91
  -8  -7  11  244.40   10.17
  -8  -7 -11  239.28   24.51
  -8   7 -11  226.35    8.80
   8  -7  11  244.16   20.73
  -8   7  12   25.01    7.04
  -8   7 -12   30.68    3.88
   8   7 -12   13.92    3.60
  -8  -7  12    8.79    3.35
  -8  -7 -12   14.24    3.44
  -8   7 -12   26.87    7.72
   8  -7  12   26.70    6.17
  -8   7  13   60.22   16.84
   8   7 -13   75.50   10.26
  -8  -7  13   73.20   11.05
  -8  -7 -13   69.04   16.38
  -8   7 -13   58.62   20.62
   8  -7  13   71.24   17.09
   8   7 -14    4.52    2.47
  -8  -7  14    6.65    2.04
  -8  -7 -14    7.14    3.32
  -8   7 -14    5.92    3.38
   8  -7  14    9.49    3.30
   8   7 -15   32.84    9.41
  -8  -7  15   26.21    7.89
  -8  -7 -15   33.77   11.51
  -8   7 -15   35.38    9.22
   8  -7  15   41.74   10.26
   8   7 -16   15.98    3.92
  -8  -7  16   15.97    6.15
  -8  -7 -16   16.27    3.72
  -8   7 -16   18.86    4.84
   8  -7  16   21.37    5.78
  -8   8   0   80.97    5.44
   8   8   0   89.75    7.08
  -8  -8   0   85.35   22.33
  -8   8   0   92.98    5.11
  -8   8   1  294.97    9.67
  -8   8  -1  289.06   13.24
   8   8  -1  311.30   10.25
   8   8   1  312.53   10.61
  -8  -8   1  291.83   10.70
  -8  -8  -1  295.07   16.93
  -8   8  -1  301.97    8.08
  -8   8   1  296.63    6.76
   8  -8   1  309.96   11.18
  -8   8   2  197.13    7.98
  -8   8  -2  185.41    7.47
   8   8  -2  197.12   11.16
   8   8   2  203.75    8.11
  -8  -8   2  190.64    9.13
  -8  -8  -2  201.23    8.70
  -8   8  -2  199.15    6.28
   8  -8   2  209.56    8.69
  -8   8   3  151.65    7.18
  -8   8  -3  153.98    8.97
   8   8  -3  153.83    9.82
   8   8   3  147.78    9.14
  -8  -8   3  162.80   11.42
  -8  -8  -3  141.79    7.06
  -8   8  -3  164.27    6.03
   8  -8   3  153.86    7.41
  -8   8   4   39.60   12.71
  -8   8  -4   31.65   11.71
   8   8  -4   48.54    6.46
   8   8   4   38.46    3.58
  -8  -8   4   36.58   11.33
  -8  -8  -4   46.94   13.74
  -8   8  -4   36.66    6.59
   8  -8   4   42.05   12.26
  -8   8   5   31.12    7.35
  -8   8  -5   29.20    9.71
   8   8  -5   27.92    7.17
   8   8   5   36.45    8.94
  -8  -8   5   28.81   10.94
  -8  -8  -5   27.99    5.99
  -8   8  -5   28.54    7.83
   8  -8   5   30.10    8.36
  -8   8   6   61.50    5.06
  -8   8  -6   52.83    6.99
   8   8  -6   53.52   13.37
   8   8   6   55.40    5.82
  -8  -8   6   49.96   19.81
  -8  -8  -6   55.24    7.04
  -8   8  -6   49.58    5.51
   8  -8   6   65.74    9.68
  -8   8   7    7.21    2.75
  -8   8  -7   23.16    6.62
   8   8  -7   13.38    2.98
   8   8   7   19.85    5.69
  -8  -8   7   16.95    7.33
  -8  -8  -7    9.66    2.63
  -8   8  -7   18.13    5.65
   8  -8   7    7.74    3.50
  -8   8   8  112.79   10.62
  -8   8  -8  108.41    5.72
   8   8  -8  114.62    9.88
   8   8   8   99.31    4.66
  -8  -8   8  103.56   12.16
  -8  -8  -8   99.49    6.93
  -8   8  -8  109.09    5.70
   8  -8   8  113.42   11.75
  -8   8   9  130.95    6.35
  -8   8  -9  139.94    7.31
   8   8  -9  132.14   12.86
  -8  -8   9  133.00   10.02
  -8  -8  -9  111.51    8.05
  -8   8  -9  134.11    6.10
   8  -8   9  127.84   18.57
  -8   8  10    7.55    1.47
  -8   8 -10    9.50    3.11
   8   8 -10    6.40    2.99
  -8  -8  10    5.56    2.66
  -8  -8 -10    8.04    3.80
  -8   8 -10    8.11    2.68
   8  -8  10    7.76    4.49
  -8   8  11   41.62   12.21
  -8   8 -11   47.93    4.48
   8   8 -11   39.17   10.82
  -8  -8  11   45.69   12.59
  -8  -8 -11   34.89   13.56
  -8   8 -11   32.31    9.17
   8  -8  11   42.87   12.46
  -8   8  12  154.29    8.12
  -8   8 -12  134.19   20.79
   8   8 -12  147.29    9.00
  -8  -8  12  144.98   29.31
  -8  -8 -12  142.59   27.27
  -8   8 -12  153.70    7.73
   8  -8  12  147.35   13.36
  -8   8  13  119.35    6.17
  -8   8 -13  131.23   10.01
   8   8 -13  127.61    7.41
  -8  -8  13  107.10   25.69
  -8  -8 -13  103.93    7.03
  -8   8 -13  113.99    6.95
   8  -8  13  114.14   25.89
   8   8 -14   10.39    5.81
  -8  -8  14    6.52    4.10
  -8  -8 -14   11.52    4.91
  -8   8 -14   13.87    3.97
   8  -8  14   11.63    2.45
   8   8 -15   27.17    7.80
  -8  -8  15   30.06    9.01
  -8  -8 -15   26.61    4.54
  -8   8 -15   25.32    6.98
   8  -8  15   31.14    8.59
   8   8 -16    4.91    3.14
  -8  -8  16    4.43    3.48
  -8  -8 -16    7.04    3.76
  -8   8 -16    2.63    2.15
   8  -8  16    5.73    2.99
  -8   9   0   94.23   10.96
   8   9   0  110.74    6.28
  -8  -9   0  112.19   16.63
  -8   9   1   39.15   14.06
  -8   9  -1   35.20    5.62
   8   9  -1   45.39   12.48
   8   9   1   34.92    4.11
  -8  -9   1   31.32    9.76
  -8  -9  -1   39.83   10.23
  -8   9  -1   32.04    3.22
   8  -9   1   38.61   13.77
  -8   9   2   23.77    8.73
  -8   9  -2   27.69    7.63
   8   9  -2   31.63    7.17
   8   9   2   26.72    7.65
  -8  -9   2   21.35    7.47
  -8  -9  -2   25.67    8.22
  -8   9  -2   24.08    8.20
   8  -9   2   31.54    6.38
  -8   9   3   13.57    3.76
  -8   9  -3   11.05    2.70
   8   9  -3   10.18    3.66
   8   9   3   12.20    4.07
  -8  -9   3   11.93    6.14
  -8  -9  -3    4.24    2.99
  -8   9  -3   11.35    3.50
   8  -9   3    7.65    4.82
  -8   9   4   66.64    5.89
  -8   9  -4   54.50    5.09
   8   9  -4   79.98   12.76
   8   9   4   56.00    5.65
  -8  -9   4   53.67   15.06
  -8  -9  -4   63.35    5.86
  -8   9  -4   63.29    3.91
   8  -9   4   66.94    6.36
  -8   9   5   98.54    6.13
  -8   9  -5   99.00    8.36
   8   9  -5  106.23    6.45
   8   9   5   89.70    5.29
  -8  -9   5   93.29   24.16
  -8  -9  -5   91.29    6.94
  -8   9  -5   97.24    9.31
   8  -9   5   83.95    6.75
  -8   9   6   91.28   10.19
  -8   9  -6   84.47    5.85
   8   9  -6   64.69   13.84
   8   9   6   57.83   14.41
  -8  -9   6   65.67   14.64
  -8  -9  -6   56.98   15.09
  -8   9  -6   73.06    7.05
   8  -9   6   82.92    7.67
  -8   9   7  215.75   16.56
  -8   9  -7  237.77   10.17
   8   9  -7  253.73   21.24
   8   9   7  233.40    7.44
  -8  -9   7  248.34   12.78
  -8  -9  -7  235.05    9.33
  -8   9  -7  228.20    8.20
   8  -9   7  226.84   10.51
  -8   9   8   42.03   10.23
  -8   9  -8   47.52    9.67
   8   9  -8   40.83   11.87
   8   9   8   31.92   10.73
  -8  -9   8   47.96    9.57
  -8  -9  -8   36.13   12.70
  -8   9  -8   41.17   12.87
   8  -9   8   48.86    7.55
  -8   9   9   17.51    6.76
  -8   9  -9   18.45    6.09
   8   9  -9   20.68    7.10
  -8  -9   9   22.83    6.59
  -8  -9  -9   17.37    5.07
  -8   9  -9   15.69    5.24
   8  -9   9   19.75    4.62
  -8   9  10   76.19   13.06
  -8   9 -10   78.76    5.22
   8   9 -10   62.07   19.85
  -8  -9  10   75.38    7.04
  -8  -9 -10   75.18    8.53
  -8   9 -10   72.97   14.31
   8  -9  10   73.49   10.32
  -8   9  11   70.01    7.97
  -8   9 -11   83.37    8.47
   8   9 -11   86.00    8.78
  -8  -9  11   77.26   22.18
  -8  -9 -11   75.71   11.80
  -8   9 -11   74.90    6.89
   8  -9  11   70.15   17.74
  -8   9  12    8.93    3.51
  -8   9 -12   10.77    3.99
   8   9 -12    4.11    3.48
  -8  -9  12   10.54    5.03
  -8  -9 -12    5.86    2.96
  -8   9 -12    5.94    3.25
   8  -9  12    4.28    2.10
  -8   9  13    4.08    2.31
  -8   9 -13    2.31    2.13
   8   9 -13    2.95    2.12
  -8  -9  13    4.52    2.87
  -8  -9 -13    4.33    2.21
  -8   9 -13    7.59    4.08
   8  -9  13   -0.82    3.71
   8   9 -14   20.25    4.41
  -8  -9  14   22.61    5.41
  -8  -9 -14   12.59    3.76
   8  -9  14   12.76    6.96
   8   9 -15    4.93    3.84
  -8  -9  15    1.11    1.88
  -8  -9 -15    5.00    3.74
   8  -9  15    9.58    5.93
  -8  10   0    6.12    2.39
   8  10   0    7.08    2.83
  -8 -10   0    9.69    2.71
  -8  10   1   45.55    9.99
  -8  10  -1   46.10   13.59
   8  10  -1   43.65    4.02
   8  10   1   47.20   14.47
  -8 -10   1   42.21   15.44
  -8 -10  -1   51.00   10.83
  -8  10   2   94.74   14.73
  -8  10  -2   86.96    7.99
   8  10  -2   86.18    5.35
   8  10   2   85.19    5.11
  -8 -10   2   80.17   14.98
  -8 -10  -2   92.59   10.11
   8 -10   2   90.50    8.64
  -8  10   3   68.14   17.44
  -8  10  -3   66.02   16.48
   8  10  -3   71.23   17.54
   8  10   3   74.20    5.35
  -8 -10   3   75.71   10.91
  -8 -10  -3   79.14   12.32
   8 -10   3   66.50    5.87
  -8  10   4    5.02    2.68
  -8  10  -4    4.47    2.69
   8  10  -4    5.20    2.73
   8  10   4    7.97    2.50
  -8 -10   4   12.42    4.96
  -8 -10  -4   -0.36    3.05
   8 -10   4    8.71    6.08
  -8  10   5   42.55   13.44
  -8  10  -5   47.88    5.15
   8  10  -5   48.96   17.27
   8  10   5   49.81   13.93
  -8 -10   5   54.57   14.56
  -8 -10  -5   55.94    7.79
   8 -10   5   49.93   15.65
  -8  10   6  126.13   11.41
  -8  10  -6  125.35    6.58
   8  10  -6  141.42   14.51
   8  10   6  136.46    6.25
  -8 -10   6  121.86   11.95
  -8 -10  -6  138.99   17.66
   8 -10   6  131.62   14.58
  -8  10   7    9.60    2.78
  -8  10  -7    6.71    2.79
   8  10  -7   15.44    3.35
   8  10   7   13.00    2.73
  -8 -10   7    8.78    4.41
  -8 -10  -7    3.76    3.72
   8 -10   7   17.33    3.90
  -8  10   8   10.39    2.60
  -8  10  -8   10.12    4.28
   8  10  -8   12.58    2.87
  -8 -10   8    7.41    5.13
  -8 -10  -8    8.97    3.01
   8 -10   8    6.07    4.71
  -8  10   9   35.84   11.52
  -8  10  -9   39.32   10.50
   8  10  -9   50.79    9.92
  -8 -10   9   42.47    8.99
  -8 -10  -9   37.15   11.15
   8 -10   9   50.15    8.02
  -8  10  10   75.19   13.76
  -8  10 -10   81.41    8.89
   8  10 -10   77.56   16.31
  -8 -10  10   73.46   18.59
  -8 -10 -10   69.07    5.55
   8 -10  10   70.80   22.19
  -8  10  11    0.39    1.30
  -8  10 -11   -0.14    2.25
   8  10 -11   -2.36    2.32
  -8 -10  11    6.02    3.08
  -8 -10 -11    1.16    1.36
   8 -10  11    1.29    3.51
  -8  10 -12   10.37    2.65
   8  10 -12    3.71    2.40
  -8 -10  12    8.47    3.15
  -8 -10 -12    1.94    0.99
   8 -10  12    5.45    3.35
  -8  10 -13   31.23    5.17
   8  10 -13   33.74    8.22
  -8 -10  13   36.17    9.98
  -8 -10 -13   24.56    3.20
   8 -10  13   32.78    7.92
   8  10 -14    6.91    4.07
  -8 -10  14    4.26    5.76
  -8 -10 -14    3.34    2.81
   8 -10  14    8.94    5.56
  -8  11   0  122.62    8.87
   8  11   0  125.60   12.47
  -8 -11   0  141.63   27.54
  -8  11   1  106.18   22.72
  -8  11  -1  102.92   18.62
   8  11  -1  110.60   10.39
   8  11   1   98.38    8.24
  -8 -11   1  105.94   10.83
  -8 -11  -1  104.87   18.65
  -8  11   2  123.66    7.22
  -8  11  -2  117.86    7.91
   8  11  -2  132.23   11.58
   8  11   2  126.89    7.97
  -8 -11   2  136.88    7.70
  -8 -11  -2  123.24   18.45
   8 -11   2  123.34   12.11
  -8  11   3   18.49    6.05
   8  11  -3   17.79    4.34
   8  11   3    8.61    3.10
  -8 -11   3    6.17    6.38
   8 -11   3   12.66    3.92
  -8  11   4   72.16    9.59
  -8  11  -4   75.30   11.67
   8  11  -4   75.01    8.79
   8  11   4   88.50    9.71
  -8 -11   4   78.14   21.36
  -8 -11  -4   81.01   11.52
   8 -11   4   61.09   17.05
  -8  11   5   14.41    3.97
  -8  11  -5   14.27    3.82
   8  11  -5   19.95    4.84
   8  11   5   16.48    3.34
  -8 -11   5   17.92    5.33
  -8 -11  -5   14.78    4.92
   8 -11   5    6.34    3.51
  -8  11   6   26.58    8.20
  -8  11  -6   28.69    4.06
   8  11  -6   37.24    9.70
   8  11   6   26.96    9.64
  -8 -11   6   31.49   10.72
  -8 -11  -6   37.34    7.63
   8 -11   6   38.94    7.05
  -8  11   7    9.84    3.92
  -8  11  -7    7.65    1.82
   8  11  -7    7.60    3.21
   8  11   7   10.48    3.91
  -8 -11   7   11.55    6.16
  -8 -11  -7   10.34    4.04
   8 -11   7   10.98    4.37
  -8  11   8   79.99   14.88
  -8  11  -8   74.12   14.66
   8  11  -8   79.61   13.78
  -8 -11   8   72.54   19.63
  -8 -11  -8   68.24   22.07
   8 -11   8   66.02   16.23
  -8  11   9    2.20    1.68
  -8  11  -9    5.75    2.77
   8  11  -9    6.05    4.28
  -8 -11   9    3.25    3.22
  -8 -11  -9    4.21    2.66
   8 -11   9    1.31    1.92
  -8  11  10   36.46   10.64
  -8  11 -10   42.22    7.30
   8  11 -10   41.64    6.13
  -8 -11  10   48.21   11.03
  -8 -11 -10   39.18   10.28
   8 -11  10   43.16    8.53
  -8  11  11   18.27    6.45
  -8  11 -11   27.62    4.15
   8  11 -11   28.08    6.60
  -8 -11  11   27.14    7.86
  -8 -11 -11   20.71    5.05
   8 -11  11   29.84    6.57
  -8  11  12   28.64   13.10
  -8  11 -12   27.54    6.23
   8  11 -12   37.53   10.90
  -8 -11  12   33.82    8.27
  -8 -11 -12   34.06    7.79
   8 -11  12   41.98    8.10
  -8  11 -13   14.05    4.03
   8  11 -13   15.36    4.01
  -8 -11  13   16.21    8.82
  -8 -11 -13    7.57    3.68
   8 -11  13   14.14    4.36
  -8  12   0  218.94   14.96
   8  12   0  243.57   10.91
  -8 -12   0  246.42   13.06
  -8  12   1    7.75    3.44
  -8  12  -1   14.61    2.96
   8  12  -1    6.32    3.29
   8  12   1    9.44    2.78
  -8 -12   1   11.22    5.05
  -8 -12  -1    8.03    3.63
   8  12  -2   16.32    4.30
   8  12   2   10.79    2.36
  -8 -12   2    7.41    2.94
  -8 -12  -2    8.82    2.91
  -8  12   3   79.15   14.93
  -8  12  -3   89.16   12.14
   8  12  -3   97.92    7.42
   8  12   3   95.33    7.77
  -8 -12   3   91.79   24.41
  -8 -12  -3   89.67    7.14
   8 -12   3   82.91   10.70
  -8  12   4   21.15    6.12
  -8  12  -4   21.96    4.51
   8  12  -4   23.39    5.65
   8  12   4   29.50    7.92
  -8 -12   4   30.30    8.18
  -8 -12  -4   28.60    5.39
   8 -12   4   20.99    7.69
  -8  12   5    6.64    2.91
  -8  12  -5    2.18    2.38
   8  12  -5    7.10    3.29
   8  12   5   10.87    4.36
  -8 -12   5    4.69    2.57
  -8 -12  -5    7.79    4.72
  -8  12   6   11.53    4.43
  -8  12  -6   11.43    3.43
   8  12  -6    7.84    4.33
   8  12   6   18.48    2.85
  -8 -12   6   11.97    3.34
  -8 -12  -6   12.66    4.12
   8 -12   6   12.72    4.93
  -8  12   7   27.32    7.96
  -8  12  -7   30.04    6.89
   8  12  -7   30.89    5.05
   8  12   7   30.63   10.48
  -8 -12   7   40.81    7.74
  -8 -12  -7   27.81    8.83
   8 -12   7   26.32    7.14
  -8  12   8    6.83    2.64
  -8  12  -8    4.76    2.86
   8  12  -8   10.47    2.55
  -8 -12   8    6.66    3.66
  -8 -12  -8    5.18    2.78
   8 -12   8    8.72    3.65
  -8  12   9   23.12    7.52
  -8  12  -9   32.77    9.16
   8  12  -9   43.45    8.13
  -8 -12   9   32.12    6.64
  -8 -12  -9   23.99   10.32
   8 -12   9   32.58    8.71
  -8  12  10    6.05    3.36
  -8  12 -10   10.83    2.92
   8  12 -10   10.78    4.29
  -8 -12  10    7.74    3.61
  -8 -12 -10    1.29    1.80
   8 -12  10    2.67    3.92
  -8  12  11    6.46    2.98
  -8  12 -11    3.59    1.74
   8  12 -11    6.04    3.39
  -8 -12  11    3.54    2.69
  -8 -12 -11   -0.30    2.78
   8 -12  11   10.87    6.27
  -8  12  12   57.78    5.86
  -8  12 -12   48.29   15.93
   8  12 -12   59.43   13.01
  -8 -12  12   48.35   13.30
  -8 -12 -12   42.72   13.82
   8 -12  12   49.51   19.74
  -8  13   0   10.14    3.78
   8  13   0   13.02    2.45
  -8 -13   0    9.78    3.45
  -8  13   1   22.87    6.22
  -8  13  -1   23.81    7.12
   8  13  -1   23.28    5.31
   8  13   1   21.48    6.46
  -8 -13   1   25.74    5.10
  -8 -13  -1   31.90    7.14
  -8  13   2   40.35   11.52
  -8  13  -2   31.85    6.31
   8  13  -2   56.04   14.60
   8  13   2   31.52   10.85
  -8 -13   2   40.09    7.99
  -8 -13  -2   49.47   10.29
  -8  13   3   16.43    6.18
  -8  13  -3   16.86    6.32
   8  13  -3   18.78    3.89
   8  13   3   22.54    5.77
  -8 -13   3   19.49    4.74
  -8 -13  -3   15.82    5.95
  -8  13   4  157.30    7.95
  -8  13  -4  175.74   17.73
   8  13  -4  173.55   11.62
   8  13   4  181.00    8.10
  -8 -13   4  183.85   24.50
  -8 -13  -4  175.48   17.46
   8 -13   4  155.30   17.21
  -8  13   5    1.63    2.21
  -8  13  -5   -0.89    2.75
   8  13  -5    5.10    2.58
   8  13   5    4.78    1.96
  -8 -13   5    1.39    2.02
  -8 -13  -5    2.95    2.45
   8 -13   5   -1.93    3.17
  -8  13   6   58.84   19.25
  -8  13  -6   84.41   10.46
   8  13  -6   78.25   14.18
   8  13   6   87.35   13.09
  -8 -13   6   78.73   18.02
  -8 -13  -6   77.78    9.10
   8 -13   6   65.04   14.84
  -8  13   7    1.60    1.99
  -8  13  -7    3.19    2.44
   8  13  -7    5.15    2.40
   8  13   7    4.10    1.60
  -8 -13   7    4.71    3.76
  -8 -13  -7    5.25    2.94
   8 -13   7    1.25    3.38
  -8  13   8   62.48   19.66
  -8  13  -8   83.84    7.08
   8  13  -8   83.21    6.93
  -8 -13   8   64.37   18.65
  -8 -13  -8   61.22   14.66
   8 -13   8   66.92   21.93
  -8  13   9    7.41    2.91
  -8  13  -9   15.30    4.04
   8  13  -9   15.88    3.92
  -8 -13   9    8.46    3.12
  -8 -13  -9   10.28    4.58
   8 -13   9   13.12    5.92
  -8  13  10   23.03    8.81
  -8  13 -10   30.12    8.38
   8  13 -10   28.25    5.87
  -8 -13  10   33.10   10.11
  -8 -13 -10   30.61    8.23
   8 -13  10   23.23    8.01
  -8  13  11    7.99    3.88
  -8  13 -11    8.54    3.85
   8  13 -11   10.98    3.33
  -8 -13  11   14.15    5.57
  -8 -13 -11    8.70    3.39
   8 -13  11    5.86    2.43
  -8  14   0    7.32    2.02
   8  14   0    5.20    2.17
  -8 -14   0   12.98    4.04
  -8  14   1   18.30    4.29
  -8  14  -1   12.67    3.79
   8  14   1   18.84    5.90
   8  14  -1   15.24    4.90
  -8 -14   1   23.93    5.74
  -8 -14  -1    9.35    4.00
  -8  14   2   33.99    8.12
  -8  14  -2   24.67    4.58
   8  14  -2   29.60   10.22
   8  14   2   23.05    8.51
  -8 -14   2   27.19    7.16
  -8 -14  -2   28.21    7.46
  -8  14   3   34.87    8.00
  -8  14  -3   39.64   11.35
   8  14  -3   46.28   11.16
   8  14   3   43.83   13.92
  -8 -14   3   53.62   12.97
  -8 -14  -3   43.76   10.38
  -8  14   4    0.54    2.79
  -8  14  -4    2.80    1.77
   8  14  -4    4.32    2.04
   8  14   4    1.55    1.62
  -8 -14   4    3.60    2.70
  -8 -14  -4    2.40    1.43
  -8  14   5    5.16    1.86
  -8  14  -5    7.90    4.30
   8  14  -5    4.12    4.37
   8  14   5    8.12    3.17
  -8 -14   5    7.34    3.24
  -8 -14  -5    4.06    2.99
   8 -14   5    1.94    1.37
  -8  14   6   39.26   12.41
  -8  14  -6   61.09    9.81
   8  14  -6   60.39   17.26
   8  14   6   43.92   14.87
  -8 -14   6   45.31   14.04
  -8 -14  -6   54.75   15.30
   8 -14   6   51.35   15.00
  -8  14   7    8.20    3.57
  -8  14  -7    6.56    3.58
   8  14  -7    8.37    3.65
  -8 -14   7   11.34    2.87
  -8 -14  -7   14.91    3.64
   8 -14   7    7.25    3.76
  -8  14   8    3.61    1.64
  -8  14  -8    1.35    2.24
   8  14  -8   -0.17    2.08
  -8 -14   8   -0.11    2.77
  -8 -14  -8    1.55    3.02
   8 -14   8    2.89    2.17
  -8  14   9    9.98    4.64
  -8  14  -9   16.24    3.50
   8  14  -9   22.62    6.17
  -8 -14   9   15.15    2.38
  -8 -14  -9   12.43    4.23
  -8  15   0   18.14    4.99
   8  15   0   20.12    4.76
  -8 -15   0   22.89    3.95
  -8  15   1   24.01    8.46
  -8  15  -1   22.75    7.48
   8  15  -1   28.52    8.29
   8  15   1   20.91    6.35
  -8 -15   1   19.83    5.70
  -8 -15  -1   28.67    4.97
  -8  15   2   33.63    9.76
  -8  15  -2   41.13    8.22
   8  15  -2   37.31   10.16
   8  15   2   40.83   10.40
  -8 -15   2   43.67    9.76
  -8 -15  -2   50.12    7.33
  -8  15   3    0.40    3.05
  -8  15  -3    2.57    1.95
   8  15  -3    2.33    2.17
   8  15   3    1.87    1.96
  -8 -15   3    5.60    2.96
  -8 -15  -3    1.01    3.18
  -8  15   4   22.10    6.83
  -8  15  -4   19.01    6.67
   8  15  -4   23.18    3.93
   8  15   4   21.92    5.82
  -8 -15   4   28.17    6.46
  -8 -15  -4   22.03    4.32
  -8  15   5   14.41    5.17
  -8  15  -5   20.65    6.10
   8  15  -5   24.16    5.02
   8  15   5   16.90    6.43
  -8 -15   5   29.50    5.52
  -8 -15  -5   12.72    4.35
  -8  15   6    1.94    2.39
  -8  15  -6    3.26    1.10
   8  15  -6    2.33    1.89
   8  15   6    2.19    2.48
  -8 -15   6    7.21    3.22
  -8 -15  -6    2.17    1.42
   8 -15   6    4.99    3.93
  -8  15   7   19.19    5.97
  -8  15  -7   18.56    5.36
   8  15  -7   18.95    8.65
  -8 -15   7   10.41    3.88
  -8 -15  -7   21.25    6.73
   8 -15   7   11.35    4.04
  -8  16   0   23.28    6.89
   8  16   0   18.98    5.85
  -8  16   1   48.52    6.08
  -8  16  -1   32.06   10.39
   8  16   1   34.41   11.56
   8  16  -1   36.50    8.82
  -8 -16   1   45.72   12.94
  -8 -16  -1   32.80    9.31
  -8  16   2    7.41    4.22
  -8  16  -2    7.26    4.26
   8  16  -2   10.15    4.44
   8  16   2    6.09    3.07
  -8 -16   2    4.41    3.62
  -8 -16  -2    7.12    2.20
   9   0   0    0.74    1.97
  -9   0   0    2.77    2.30
   9   0   0   -0.17    0.60
   9   0  -1  137.82    8.68
  -9   0   1  139.20    7.72
  -9   0  -1  140.57    7.91
   9   0   1  148.46    7.68
  -9   0  -2   27.31    6.47
   9   0  -2   30.71    8.70
  -9   0   2   29.01    8.60
  -9   0  -2   28.94    8.45
   9   0   2   22.92    1.77
  -9   0  -3  218.33   12.57
   9   0  -3  216.07   12.68
  -9   0   3  226.41   13.45
  -9   0  -3  212.77   10.97
   9   0   3  226.50   11.73
  -9   0  -4  171.40    5.95
   9   0  -4  164.00   10.81
  -9   0   4  179.56    5.99
  -9   0  -4  167.96    6.17
   9   0   4  166.86    4.88
  -9   0  -5  266.01    9.05
   9   0  -5  267.28    9.32
  -9   0   5  262.92   11.64
  -9   0  -5  264.11   15.72
   9   0   5  274.26   12.05
  -9   0  -6   77.99    5.87
   9   0  -6   78.90    5.61
  -9   0   6   84.54    9.51
  -9   0  -6   76.01    4.98
   9   0   6   84.64   12.47
  -9   0  -7  624.02   21.95
   9   0  -7  627.69   21.79
  -9   0   7  629.26   23.66
  -9   0  -7  638.14   22.13
   9   0   7  630.95   21.00
  -9   0  -8  255.59   12.72
   9   0  -8  229.89    7.92
  -9   0   8  267.50    9.12
  -9   0  -8  258.42    8.96
   9   0   8  257.11    9.06
  -9   0  -9  382.24    9.85
   9   0  -9  376.98   10.92
  -9   0   9  394.12   11.58
  -9   0  -9  352.90   11.02
   9   0   9  381.87   17.85
  -9   0 -10   17.15    3.15
   9   0 -10   21.82    5.37
  -9   0  10   18.72    7.27
  -9   0 -10   19.00    6.11
   9   0  10   21.54    5.65
   9   0 -11    0.32    1.14
  -9   0  11   -0.08    2.27
  -9   0 -11    1.25    1.37
   9   0  11   -0.94    2.61
   9   0 -12   11.16    2.61
  -9   0 -12   12.86    3.18
   9   0  12   10.02    6.63
   9   0 -13   -2.37    2.02
  -9   0  13    1.90    2.40
  -9   0 -13    1.18    1.33
   9   0  13    1.15    1.80
  -9   0  14    1.47    1.05
  -9   0 -14    0.38    2.02
   9   0  14    1.47    2.12
  -9   0  15    4.81    2.96
  -9   0 -15    7.43    3.85
   9   0  15   12.46    2.64
  -9   0 -16   13.07    4.65
   9   0  16   20.10    4.35
  -9   0 -17   37.72    7.88
   9   0  17   28.49    8.42
  -9   0 -18   -0.16    1.86
   9   0  18    1.63    1.52
  -9   1   0  236.54   11.95
   9   1   0  247.52   15.35
  -9  -1   0  248.86   12.39
  -9   1   0  234.67   12.32
   9   1   0  248.36   10.68
   9  -1   0  267.45    8.25
  -9   1   1  237.85   15.19
  -9   1  -1  183.10    9.74
   9   1  -1  212.07   10.72
   9   1   1  203.27   10.87
  -9  -1   1  199.38   10.46
  -9  -1  -1  227.76   11.61
  -9   1   1  236.05   11.71
  -9   1  -1  195.86   10.09
   9   1   1  206.80    9.67
   9  -1   1  220.09    9.97
  -9   1   2  121.35   14.84
  -9   1  -2  101.91   10.69
   9   1  -2  107.80    6.57
   9   1   2   94.27    6.91
  -9  -1   2  101.45    8.51
  -9   1   2  107.90    6.15
  -9  -1  -2  105.38    6.51
  -9   1  -2   93.73    7.05
   9   1   2   94.30    7.19
   9  -1   2  112.80    6.18
  -9   1   3   78.24    5.64
  -9   1  -3   66.98   14.99
   9   1  -3   80.25    5.73
   9   1   3   75.14   10.26
  -9  -1   3   60.51    5.12
  -9   1   3   74.39    4.95
  -9  -1  -3   75.70    5.29
  -9   1  -3   66.60    6.13
   9   1   3   69.13    2.83
   9  -1   3   81.51    5.98
  -9  -1  -4  299.27    9.59
  -9   1  -4  350.58   17.50
   9   1  -4  321.58   10.48
  -9  -1   4  343.23   11.09
  -9   1   4  319.25    9.94
  -9  -1  -4  308.16   10.79
  -9   1  -4  349.17   11.06
   9   1   4  345.88   11.59
   9  -1   4  329.73    9.82
  -9  -1  -5  254.17   12.27
  -9   1  -5  235.95   10.09
   9   1  -5  239.20    7.24
   9  -1  -5  235.32    7.06
  -9  -1   5  247.09   11.89
  -9   1   5  243.00   10.48
  -9  -1  -5  236.40    9.46
  -9   1  -5  240.21    7.22
   9   1   5  246.52    8.31
   9  -1   5  244.88    8.33
  -9  -1  -6   84.29    5.64
  -9   1  -6   69.79    4.47
   9   1  -6   86.00    4.90
   9  -1  -6   77.02   14.68
  -9  -1   6   64.10   10.20
  -9   1   6   77.09    4.29
  -9  -1  -6   89.19   13.39
  -9   1  -6   66.38    9.42
   9   1   6   70.07    8.64
   9  -1   6   84.15    4.97
  -9  -1  -7   30.24    7.83
  -9   1  -7   28.51    2.76
   9   1  -7   33.50    4.47
   9  -1  -7   27.97    8.51
  -9  -1   7   37.33   12.38
  -9   1   7   32.08    8.23
  -9  -1  -7   34.77    4.59
  -9   1  -7   28.73   10.18
   9   1   7   28.15    7.70
   9  -1   7   31.59    7.22
  -9  -1  -8  137.51   13.68
  -9   1  -8  140.93   13.20
   9   1  -8  161.41   13.66
   9  -1  -8  150.35   11.80
  -9  -1   8  146.59    6.47
  -9   1   8  147.20    6.11
  -9  -1  -8  148.07    6.97
  -9   1  -8  132.50    6.09
   9   1   8  145.03    8.37
   9  -1   8  161.75   14.77
  -9  -1  -9   38.82    3.26
  -9   1  -9   43.76    3.92
   9   1  -9   35.64   11.70
  -9  -1   9   40.25   10.96
  -9   1   9   40.57   10.20
  -9  -1  -9   39.93   12.34
  -9   1  -9   49.08    8.71
   9   1   9   39.96   13.95
   9  -1   9   39.14    9.68
  -9   1  10   -0.16    2.43
  -9  -1 -10   -0.34    1.28
  -9   1 -10    0.75    0.87
   9   1 -10    0.38    2.46
  -9  -1  10   -0.46    2.18
  -9   1  10    0.99    1.32
  -9  -1 -10    3.34    2.96
  -9   1 -10    1.64    1.98
   9   1  10   -3.11    2.28
   9  -1  10    1.34    0.66
  -9   1  11  270.70    9.16
   9   1 -11  275.68    8.45
  -9  -1  11  301.49    8.66
  -9   1  11  271.83   12.53
  -9  -1 -11  271.73    9.30
  -9   1 -11  294.27   10.06
   9   1  11  295.83    9.62
   9  -1  11  277.84    9.49
  -9   1  12   82.83   11.47
   9   1 -12   83.35    5.35
  -9  -1  12   80.17   10.80
  -9   1  12   87.64    4.51
  -9  -1 -12   74.51   18.22
  -9   1 -12   80.47   12.24
   9   1  12   77.02    8.48
   9  -1  12   84.77   20.25
  -9   1  13   89.05   14.09
   9   1 -13   86.75    7.96
  -9  -1  13   70.02   11.97
  -9   1  13   81.80    4.59
  -9  -1 -13   74.53   21.28
  -9   1 -13   80.13   14.32
   9   1  13   68.08    6.68
   9  -1  13   89.06    7.22
  -9   1  14   16.16    4.31
   9   1 -14   17.48    5.58
  -9  -1  14   16.71    5.16
  -9  -1 -14   17.32    3.88
  -9   1 -14   18.83    5.59
   9   1  14   17.81    4.15
   9  -1  14   11.68    7.70
  -9   1  15    7.45    3.25
   9   1 -15   11.79    3.20
  -9  -1  15    9.51    2.50
  -9  -1 -15    8.40    4.10
  -9   1 -15    8.14    6.46
   9   1  15    9.32    2.87
   9  -1  15    7.07    2.55
   9   1 -16   19.69    6.72
  -9  -1  16   22.26    9.81
  -9  -1 -16   27.23    7.62
  -9   1 -16   28.16    7.83
   9   1  16   27.50    4.80
   9  -1  16   23.86    5.51
  -9  -1 -17   47.27   17.33
  -9   1 -17   48.77   15.83
   9   1  17   47.52   13.14
   9  -1  17   48.84    9.68
  -9  -1 -18    8.47    3.45
  -9   1 -18   10.38    3.44
   9   1  18    4.22    3.64
   9  -1  18    8.40    3.00
  -9   2   0   49.76    3.87
   9   2   0   53.73    8.27
  -9  -2   0   54.90    7.40
  -9   2   0   58.80    4.47
   9   2   0   56.46    2.16
   9  -2   0   53.86    2.58
  -9   2   1  463.17   15.45
  -9   2  -1  460.00   15.05
   9   2  -1  475.16   15.42
   9   2   1  455.50   14.76
  -9  -2   1  448.10   14.76
  -9  -2  -1  471.03   15.80
  -9   2   1  457.15   16.78
  -9   2  -1  480.03   15.54
   9   2   1  460.38   13.12
   9  -2   1  473.17   15.82
  -9   2   2  227.51   11.51
  -9   2  -2  182.14   16.85
   9   2  -2  224.48   11.25
   9   2   2  189.81   12.47
  -9  -2   2  204.62   11.43
  -9  -2  -2  234.05   13.29
  -9   2   2  227.04   11.26
  -9   2  -2  199.51   12.19
   9   2   2  205.16    9.36
   9  -2   2  225.31   10.71
  -9   2   3  442.59   15.12
  -9   2  -3  395.05   12.96
   9   2  -3  445.83   14.67
   9   2   3  424.43   13.64
  -9  -2   3  422.06   14.36
  -9   2   3  453.45   14.59
  -9  -2  -3  422.27   14.12
  -9   2  -3  413.58   13.65
   9   2   3  422.10   13.46
   9  -2   3  451.50   14.77
  -9   2   4  179.47    8.87
  -9   2  -4  172.30    5.71
   9   2  -4  169.96    6.37
   9   2   4  186.27    5.71
  -9  -2   4  190.89    6.94
  -9   2   4  182.14    5.18
  -9  -2  -4  195.11    9.79
  -9   2  -4  182.84    6.05
   9   2   4  194.24    6.87
   9  -2   4  177.23    5.77
  -9   2   5   45.18    3.67
  -9   2  -5   41.97    3.50
   9   2  -5   54.25    4.42
   9   2   5   47.27    7.96
  -9  -2   5   43.55   14.23
  -9   2   5   47.46    7.26
  -9  -2  -5   49.47    5.16
  -9   2  -5   36.39    4.39
   9   2   5   40.71    2.96
   9  -2   5   49.30    4.01
  -9  -2  -6    7.30    1.88
  -9   2   6    2.90    1.57
  -9   2  -6    7.41    3.28
   9   2  -6    9.33    3.55
  -9  -2   6    5.68    3.84
  -9   2   6    5.61    1.31
  -9  -2  -6    4.98    2.78
  -9   2  -6    5.06    3.23
   9   2   6    5.97    2.10
   9  -2   6    1.30    2.51
  -9   2   7   29.07    8.97
  -9  -2  -7   25.75    5.40
  -9   2  -7   23.61    4.68
   9   2  -7   27.20    3.97
  -9  -2   7   28.37    7.60
  -9   2   7   26.68    7.66
  -9  -2  -7   28.00    8.73
  -9   2  -7   26.32    9.64
   9   2   7   17.14    5.13
   9  -2   7   24.38    5.63
  -9   2   8    2.29    2.24
  -9  -2  -8    1.62    1.56
  -9   2  -8    0.80    1.19
   9   2  -8    1.82    1.30
  -9  -2   8    3.00    1.76
  -9   2   8    3.42    1.41
  -9  -2  -8    1.52    1.68
  -9   2  -8    2.37    1.07
   9   2   8    2.77    2.09
   9  -2   8    3.96    3.14
  -9   2   9   59.88    8.12
  -9  -2  -9   68.83    5.06
  -9   2  -9   65.71    4.60
   9   2  -9   65.75    4.45
  -9  -2   9   66.16    9.36
  -9   2   9   66.07    6.98
  -9  -2  -9   65.43    5.29
  -9   2  -9   68.42    7.47
   9   2   9   70.67    5.95
   9  -2   9   72.92    5.02
  -9   2  10   72.58   14.62
  -9  -2 -10   67.27    3.57
  -9   2 -10   85.59   11.00
   9   2 -10   77.76    8.09
  -9  -2  10   76.25    6.92
  -9   2  10   70.36    7.76
  -9  -2 -10   71.21    9.06
  -9   2 -10   75.20    6.29
   9   2  10   87.01    6.85
   9  -2  10   94.42    6.56
  -9   2  11   90.46    6.84
  -9   2 -11   56.56   10.41
   9   2 -11   82.38   11.06
  -9  -2  11   66.64    5.47
  -9   2  11   84.84    8.04
  -9  -2 -11   80.75    6.34
  -9   2 -11   65.57    6.56
   9   2  11   52.52   16.43
   9  -2  11   90.64   10.05
  -9   2  12   49.02   13.77
   9   2 -12   52.40   11.99
  -9  -2  12   48.82   15.81
  -9  -2 -12   56.23    5.10
  -9   2 -12   56.78    9.36
   9   2  12   49.79   12.38
   9  -2  12   52.86   15.93
  -9   2  13   31.14   11.58
   9   2 -13   33.57    4.39
  -9  -2  13   39.59   12.28
  -9  -2 -13   36.73    9.19
  -9   2 -13   34.77   11.06
   9   2  13   30.62   10.15
   9  -2  13   34.74    7.98
  -9   2  14   58.43   14.60
   9   2 -14   59.59    6.81
  -9  -2  14   61.22   17.88
  -9  -2 -14   64.66   19.93
  -9   2 -14   63.30    7.81
   9   2  14   59.09   16.21
   9  -2  14   60.29   13.06
  -9   2  15  206.76    8.96
   9   2 -15  203.43   13.56
  -9  -2  15  202.70    8.29
  -9  -2 -15  199.52   26.43
  -9   2 -15  210.40   11.77
   9   2  15  202.82   18.94
   9  -2  15  207.55   19.13
   9   2 -16   34.94    3.89
  -9  -2  16   29.15    7.98
  -9  -2 -16   28.39    8.16
  -9   2 -16   33.17    8.30
   9   2  16   30.34    8.10
   9  -2  16   31.16   17.34
  -9  -2  17   15.50    9.73
  -9  -2 -17   27.56    8.13
  -9   2 -17   31.73    7.19
   9   2  17   31.90    9.55
   9  -2  17   34.33    6.06
  -9   3   0   17.47    5.35
   9   3   0   19.89    4.59
  -9  -3   0   16.25    5.57
  -9   3   0   18.40    2.65
   9   3   0    6.82    2.36
   9  -3   0   17.62    5.18
  -9   3   1  218.77   21.07
  -9   3  -1  200.58   12.32
   9   3  -1  227.87   11.61
   9   3   1  222.44   11.41
  -9  -3   1  219.29   13.62
  -9  -3  -1  213.87   14.17
  -9   3   1  212.52   10.35
  -9   3  -1  215.70   10.95
   9  -3   1  223.57   10.68
  -9   3   2  342.58   14.11
  -9   3  -2  378.11   11.77
   9   3  -2  360.95   11.44
   9   3   2  393.69   11.61
  -9  -3   2  402.65   13.63
  -9  -3  -2  355.98   11.52
  -9   3   2  353.85   10.77
  -9   3  -2  403.10   11.94
   9  -3   2  369.59   10.83
  -9   3   3  303.91   14.48
  -9   3  -3  276.52    9.19
   9   3  -3  299.37   10.17
   9   3   3  296.96    9.57
  -9  -3   3  293.63   10.13
  -9  -3  -3  289.42   10.17
  -9   3   3  289.56    8.52
  -9   3  -3  285.48    9.18
   9  -3   3  276.78   12.23
  -9   3   4    1.61    1.36
  -9   3  -4    1.77    1.70
   9   3  -4   -1.93    2.48
   9   3   4   -0.92    1.93
  -9  -3   4    2.17    2.11
  -9   3   4    0.10    1.17
  -9  -3  -4   -4.17    2.54
  -9   3  -4   -0.65    2.38
   9  -3   4    1.05    1.32
  -9   3   5  109.91   10.69
  -9   3  -5  124.37    6.75
   9   3  -5  125.45    5.86
   9   3   5  126.64    4.82
  -9  -3   5  132.64   17.96
  -9   3   5  123.78    4.42
  -9  -3  -5  122.48   12.58
  -9   3  -5  125.62   10.79
   9  -3   5  118.81    5.11
  -9   3   6   78.49   10.42
  -9   3  -6   74.91   11.18
   9   3  -6   80.06    6.37
   9   3   6   77.55    9.23
  -9  -3   6   78.10    6.41
  -9   3   6   68.65    3.29
  -9  -3  -6   71.20    9.56
  -9   3  -6   74.39    4.72
   9  -3   6   69.93   12.87
  -9   3   7  165.48    7.01
  -9   3  -7  152.24    6.22
   9   3  -7  166.76    7.62
   9   3   7  154.68    6.01
  -9  -3   7  168.75   12.41
  -9   3   7  163.31    5.75
  -9  -3  -7  175.54    7.89
  -9   3  -7  157.75    6.91
   9  -3   7  177.82   12.19
  -9  -3  -8   15.86    3.10
  -9   3   8   20.97    4.29
  -9   3  -8   19.83    4.27
   9   3  -8   19.10    6.18
  -9  -3   8   25.95    7.60
  -9   3   8   14.25    4.41
  -9  -3  -8   23.33    6.50
  -9   3  -8   19.09    8.19
   9  -3   8   20.12    5.83
  -9  -3  -9   76.33    5.47
  -9   3   9   67.20    7.37
  -9   3  -9   84.97    5.63
   9   3  -9   73.20    5.12
  -9  -3   9   88.25    5.73
  -9   3   9   68.97    3.30
  -9  -3  -9   77.54   10.83
  -9   3  -9   82.76    5.12
   9  -3   9   65.38   15.41
  -9   3  10  196.41    8.55
  -9   3 -10  184.19   10.96
   9   3 -10  206.21   14.63
  -9  -3  10  197.07   11.70
  -9  -3 -10  213.18   22.57
  -9   3 -10  167.44   13.25
   9  -3  10  201.29   15.95
  -9   3  11   18.19    6.33
  -9   3 -11   20.74    6.09
   9   3 -11   25.93    7.41
  -9  -3  11   18.73    5.65
  -9  -3 -11   30.28    6.99
  -9   3 -11   20.98    8.77
   9  -3  11   30.22    8.71
  -9   3  12    2.09    1.49
   9   3 -12    3.80    3.36
  -9  -3  12   -0.60    2.26
  -9  -3 -12    0.94    1.81
  -9   3 -12   -0.13    2.70
   9  -3  12    0.82    1.30
  -9   3  13   36.14   10.67
   9   3 -13   36.97    6.08
  -9  -3  13   43.83   13.80
  -9  -3 -13   36.64   10.42
  -9   3 -13   40.40    9.69
   9   3  13   40.81    9.97
   9  -3  13   43.63   11.24
  -9   3  14  131.57    7.07
   9   3 -14  130.40   12.91
  -9  -3  14  150.06    7.71
  -9  -3 -14  144.71   19.48
  -9   3 -14  150.47   18.81
   9   3  14  146.57   18.23
   9  -3  14  150.93   21.65
  -9   3  15   25.93   10.80
   9   3 -15   25.48    7.23
  -9  -3  15   25.75    9.30
  -9  -3 -15   37.73    7.63
  -9   3 -15   29.02    9.63
   9   3  15   30.11    9.89
   9  -3  15   31.25    7.05
   9   3 -16    5.12    2.49
  -9  -3  16    8.79    3.68
  -9  -3 -16    8.74    2.80
  -9   3 -16    2.58    3.37
   9   3  16   10.73    3.81
   9  -3  16    9.58    2.73
  -9  -3  17    6.66    4.66
  -9  -3 -17    8.06    3.33
  -9   3 -17    5.62    2.79
   9   3  17    8.35    4.65
   9  -3  17   10.36    4.37
  -9   4   0   92.00    6.45
   9   4   0   93.48    7.07
  -9  -4   0  102.77   13.77
  -9   4   0   94.13    5.80
   9  -4   0   96.12    6.42
  -9   4   1   27.69    3.58
  -9   4  -1   21.01    6.08
   9   4  -1   30.53    6.42
   9   4   1   26.87    5.60
  -9  -4   1   25.16    5.97
  -9  -4  -1   24.98    6.83
  -9   4   1   25.72    3.13
  -9   4  -1   22.89    7.02
   9  -4   1   29.49    8.11
  -9   4   2   31.36    7.16
  -9   4  -2   21.13    4.46
   9   4  -2   29.87   10.32
   9   4   2   22.46    3.32
  -9  -4   2   20.33    5.97
  -9  -4  -2   30.01    8.32
  -9   4   2   29.38    4.00
  -9   4  -2   20.62    6.44
   9  -4   2   31.43    3.23
  -9   4   3  194.54    6.49
  -9   4  -3  201.77   10.55
   9   4  -3  205.28   11.30
   9   4   3  198.39    7.01
  -9  -4   3  197.82   15.70
  -9  -4  -3  189.70    7.09
  -9   4   3  204.00    6.75
  -9   4  -3  203.42    7.00
   9  -4   3  183.75    5.69
  -9   4   4   20.65    7.12
  -9   4  -4   38.83    4.11
   9   4  -4   32.78    9.62
   9   4   4   33.92    9.21
  -9  -4   4   37.22   12.32
  -9  -4  -4   29.96    8.34
  -9   4   4   25.89    3.75
  -9   4  -4   29.87    8.91
   9  -4   4   25.69    9.42
  -9   4   5  348.43   13.06
  -9   4  -5  325.09   12.74
   9   4  -5  371.98   14.91
   9   4   5  322.74   11.76
  -9  -4   5  352.48   14.00
  -9   4   5  340.47   11.02
  -9  -4  -5  355.74   13.96
  -9   4  -5  316.92   12.01
   9  -4   5  367.28   13.89
  -9   4   6  470.02   21.89
  -9   4  -6  474.62   16.26
   9   4  -6  505.14   17.96
   9   4   6  470.20   15.89
  -9  -4   6  461.15   17.22
  -9   4   6  477.16   15.22
  -9  -4  -6  482.49   19.18
  -9   4  -6  461.49   16.72
   9  -4   6  491.94   18.35
  -9   4   7  145.98    6.33
  -9   4  -7  146.21    8.29
   9   4  -7  161.42    7.52
   9   4   7  148.18   10.02
  -9  -4   7  165.38    7.82
  -9   4   7  148.48    4.67
  -9  -4  -7  158.61   11.40
  -9   4  -7  144.35    6.10
   9  -4   7  160.40    7.35
  -9   4   8   84.20   10.78
  -9   4  -8   64.40    6.63
   9   4  -8   77.69    8.44
   9   4   8   81.58    3.53
  -9  -4   8   67.44   10.67
  -9  -4  -8   76.15   14.99
  -9   4  -8   62.07   14.54
   9  -4   8   79.09    7.17
  -9  -4  -9  113.92    4.55
  -9   4  -9  106.92    7.51
   9   4  -9  124.85    7.93
  -9  -4   9  115.82    7.40
  -9  -4  -9  116.67   13.25
  -9   4  -9  120.34    5.95
   9  -4   9  115.13    7.99
  -9   4  10  182.71    8.57
  -9   4 -10  197.54    6.69
   9   4 -10  204.03    8.50
  -9  -4  10  208.41   16.77
  -9  -4 -10  197.67    7.87
  -9   4 -10  195.51    7.47
   9  -4  10  187.87   13.72
  -9   4  11   87.83    5.06
  -9   4 -11   95.19    6.68
   9   4 -11   92.95    7.23
  -9  -4  11   84.50   20.93
  -9  -4 -11   88.47   11.88
  -9   4 -11   88.29    5.52
   9  -4  11   93.47   11.82
  -9   4  12    7.35    3.21
   9   4 -12    7.71    3.78
  -9  -4  12    9.89    3.40
  -9  -4 -12    7.71    1.62
  -9   4 -12   12.18    3.21
   9  -4  12    4.48    2.04
  -9   4  13    9.79    2.44
   9   4 -13    9.22    2.92
  -9  -4  13    9.33    2.36
  -9  -4 -13    9.86    4.38
  -9   4 -13   12.50    2.53
   9  -4  13   16.65    3.20
  -9   4  14   10.18    3.03
   9   4 -14    6.40    3.50
  -9  -4  14    5.38    3.07
  -9  -4 -14   10.48    3.57
  -9   4 -14   10.69    3.05
   9  -4  14    8.70    3.65
   9   4 -15    2.63    1.53
  -9  -4  15    9.04    4.64
  -9  -4 -15    2.00    1.70
  -9   4 -15    7.27    3.50
   9  -4  15    5.22    3.45
   9   4 -16    2.11    2.34
  -9  -4  16    0.33    1.58
  -9  -4 -16    3.04    2.61
  -9   4 -16   -0.15    2.77
   9   4  16   -0.63    3.27
   9  -4  16    2.99    2.90
  -9  -4  17    9.15    3.21
  -9  -4 -17    8.25    3.81
  -9   4 -17   14.69    4.59
   9   4  17    7.68    3.04
   9  -4  17   11.95    5.23
  -9   5   0  186.46    7.03
   9   5   0  175.53    9.16
  -9  -5   0  186.76    7.21
  -9   5   0  188.27    5.10
   9  -5   0  179.50   10.37
  -9   5   1  177.67    6.62
  -9   5  -1  185.74   13.07
   9   5  -1  183.20    6.49
   9   5   1  181.10   12.64
  -9  -5   1  183.78   15.26
  -9  -5  -1  195.64    7.62
  -9   5   1  180.14    4.90
  -9   5  -1  179.63    6.75
   9  -5   1  188.69    6.07
  -9   5   2  252.94   15.31
  -9   5  -2  246.12   10.41
   9   5  -2  267.85   10.98
   9   5   2  253.18   11.27
  -9  -5   2  213.18   16.35
  -9  -5  -2  262.50   15.51
  -9   5   2  261.90    9.69
  -9   5  -2  233.98    9.02
   9  -5   2  285.08   12.14
  -9   5   3  261.47   17.97
  -9   5  -3  260.95   11.28
   9   5  -3  268.97   16.10
   9   5   3  246.36   15.17
  -9  -5   3  240.54   15.03
  -9  -5  -3  244.42   10.71
  -9   5   3  270.22    9.29
  -9   5  -3  257.45   16.19
   9  -5   3  289.58   11.92
  -9   5   4   67.43    7.37
  -9   5  -4   69.43    7.35
   9   5  -4   64.51    6.43
   9   5   4   71.23    5.57
  -9  -5   4   63.55    4.73
  -9  -5  -4   67.84   15.71
  -9   5   4   58.52    3.25
  -9   5  -4   54.96    8.25
   9  -5   4   61.80    4.33
  -9   5   5   16.52    4.58
  -9   5  -5   23.65    7.76
   9   5  -5   20.33    4.94
   9   5   5   23.72    3.04
  -9  -5   5   27.54    6.81
  -9  -5  -5   15.18    6.77
  -9   5   5    8.86    4.09
  -9   5  -5   23.95    6.78
   9  -5   5   18.01    4.41
  -9   5  -6   19.26   12.53
   9   5  -6   24.05    6.42
   9   5   6   28.66    3.85
  -9  -5   6   27.19    9.92
  -9  -5  -6   19.99    5.37
   9  -5   6   21.28    4.74
  -9   5   7    7.46    3.15
  -9   5  -7   17.94    5.97
   9   5  -7    5.03    3.30
   9   5   7   13.68    2.35
  -9  -5   7   14.16    4.09
  -9  -5  -7    6.16    3.31
   9  -5   7    7.91    2.52
  -9   5   8   53.80   12.55
  -9   5  -8   47.74    4.11
   9   5  -8   53.61   10.23
   9   5   8   52.08    3.38
  -9  -5   8   55.55   16.04
  -9  -5  -8   53.18    4.99
  -9   5  -8   51.28    4.74
   9  -5   8   48.80   12.80
  -9   5  -9  282.22    8.92
   9   5  -9  290.02    9.68
   9   5   9  282.09    7.70
  -9  -5   9  301.47   10.24
  -9  -5  -9  281.69    9.55
  -9   5  -9  288.00    9.37
   9  -5   9  265.48   19.24
  -9   5  10   74.80    8.90
   9   5 -10   57.53    8.15
  -9  -5  10   60.51   16.08
  -9  -5 -10   50.33   13.21
  -9   5 -10   58.27   11.96
   9  -5  10   50.96   13.15
  -9   5  11   21.57    5.53
  -9   5 -11   18.70    6.31
   9   5 -11   23.43    5.18
  -9  -5  11   18.88    4.40
  -9  -5 -11   24.67    7.68
  -9   5 -11   15.34    5.78
   9  -5  11   18.86    3.20
  -9   5  12   85.39   14.00
  -9   5 -12   83.72    6.39
   9   5 -12   87.06    5.94
  -9  -5  12   71.59   21.19
  -9  -5 -12   69.11   20.19
  -9   5 -12   76.40    5.71
   9  -5  12   89.89   17.53
  -9   5  13   61.51    8.32
   9   5 -13   61.50    5.60
  -9  -5  13   52.61   16.09
  -9  -5 -13   62.31    8.89
  -9   5 -13   59.58    6.68
   9  -5  13   62.86   18.65
  -9   5  14   24.66    6.80
   9   5 -14   26.15    4.60
  -9  -5  14   18.98    5.60
  -9  -5 -14   21.47    5.74
  -9   5 -14   17.92    8.54
   9  -5  14   26.56    6.10
   9   5 -15   39.38   11.96
  -9  -5  15   38.92   11.62
  -9  -5 -15   42.71    7.59
  -9   5 -15   38.90   14.72
   9  -5  15   44.28    9.95
   9   5 -16   24.88    5.60
  -9  -5  16   19.60    6.04
  -9  -5 -16   21.66    6.92
  -9   5 -16   25.87    9.35
   9  -5  16   30.83    7.45
   9   5 -17    8.59    2.48
  -9  -5  17    6.94    4.03
  -9  -5 -17   10.51    4.44
  -9   5 -17   11.74    3.49
   9  -5  17   13.00    5.43
  -9   6   0 1198.25   39.24
   9   6   0 1253.74   22.13
  -9  -6   0 1237.51   21.09
  -9   6   0 1103.87   34.69
  -9   6   1   40.07    8.79
  -9   6  -1   46.23    9.37
   9   6  -1   32.17    8.96
   9   6   1   46.73   13.33
  -9  -6   1   48.45   12.77
  -9  -6  -1   34.79    8.43
  -9   6  -1   37.23    6.84
  -9   6   2   93.91   13.42
  -9   6  -2   92.10   13.20
   9   6  -2   92.00    6.64
   9   6   2   92.29    5.26
  -9  -6   2   93.06    8.11
  -9  -6  -2   89.47   13.52
  -9   6   2   84.32    3.44
  -9   6  -2   86.95    6.16
   9  -6   2   95.52    7.56
  -9   6   3  303.62   11.93
  -9   6  -3  295.50   11.60
   9   6  -3  345.43   14.88
   9   6   3  314.74   12.52
  -9  -6   3  323.13   14.22
  -9  -6  -3  320.11   13.58
  -9   6   3  317.56   10.22
  -9   6  -3  300.21   11.14
   9  -6   3  292.13   11.51
  -9   6   4  343.08   11.78
  -9   6  -4  322.74   11.13
   9   6  -4  343.47   11.00
   9   6   4  309.00   10.49
  -9  -6   4  296.43   10.35
  -9  -6  -4  319.13   10.94
  -9   6  -4  323.99    9.12
   9  -6   4  355.85   10.71
  -9   6   5   34.53    7.02
  -9   6  -5   35.74    6.66
   9   6  -5   37.19   10.77
   9   6   5   33.77    8.80
  -9  -6   5   36.44   10.84
  -9  -6  -5   39.15    6.28
  -9   6  -5   40.73    7.08
   9  -6   5   31.83   12.43
  -9   6   6    8.84    3.55
  -9   6  -6    7.18    2.55
   9   6  -6    8.19    2.11
   9   6   6   12.18    2.22
  -9  -6   6   10.00    3.12
  -9  -6  -6    6.54    3.07
  -9   6  -6    4.15    1.32
   9  -6   6    5.03    3.53
  -9   6   7   47.40    5.92
  -9   6  -7   55.75    6.42
   9   6  -7   49.97   10.85
   9   6   7   42.29    7.39
  -9  -6   7   43.64   10.13
  -9  -6  -7   37.17   10.05
  -9   6  -7   39.37   10.05
   9  -6   7   37.94   14.27
  -9   6   8   90.83    9.13
  -9   6  -8   94.95   11.35
   9   6  -8   99.42   12.93
   9   6   8   91.86    7.48
  -9  -6   8  106.22    7.39
  -9  -6  -8   92.02    8.51
  -9   6  -8   92.78    9.43
   9  -6   8   88.26    8.86
  -9   6   9  104.45    8.79
  -9   6  -9  122.24    9.21
   9   6  -9  116.18    7.42
  -9  -6   9  116.10    8.93
  -9  -6  -9  102.12    6.18
  -9   6  -9  104.72    9.08
   9  -6   9  111.39    8.17
  -9   6  10   27.42   10.24
  -9   6 -10   16.92    9.81
   9   6 -10   26.76    6.06
  -9  -6  10   24.67    6.04
  -9  -6 -10   20.30    7.04
  -9   6 -10   22.90    8.01
   9  -6  10   26.41    9.64
  -9   6  11   51.80   16.52
  -9   6 -11   51.52    5.48
   9   6 -11   54.95    5.07
  -9  -6  11   43.76   11.57
  -9  -6 -11   62.27    7.20
  -9   6 -11   50.34   10.79
   9  -6  11   60.31   13.02
  -9   6  12  291.91    9.94
  -9   6 -12  269.87   18.49
   9   6 -12  285.36   17.97
  -9  -6  12  279.79   10.16
  -9  -6 -12  269.43   24.53
  -9   6 -12  281.49   10.36
   9  -6  12  282.03   11.30
  -9   6  13   37.93    7.29
   9   6 -13   39.58   12.29
  -9  -6  13   38.31   11.05
  -9  -6 -13   35.23   10.11
  -9   6 -13   34.43   12.27
   9  -6  13   37.92   10.73
  -9   6  14    2.31    2.41
   9   6 -14    3.52    2.60
  -9  -6  14    6.23    3.75
  -9  -6 -14    2.36    2.19
  -9   6 -14    2.99    2.21
   9  -6  14    4.14    2.05
   9   6 -15   36.85    8.68
  -9  -6  15   35.45   10.29
  -9  -6 -15   33.17    7.40
  -9   6 -15   41.07   11.18
   9  -6  15   36.91    8.09
   9   6 -16   51.81   15.53
  -9  -6  16   45.24   23.37
  -9  -6 -16   53.93   13.80
  -9   6 -16   50.96   18.09
   9  -6  16   63.44   15.99
  -9   7   0   95.47    6.13
   9   7   0  105.20    5.43
  -9  -7   0  100.96    6.44
  -9   7   0   96.95    5.82
  -9   7   1   37.44   11.01
  -9   7  -1   63.61    7.36
   9   7  -1   33.28    8.39
   9   7   1   32.38   10.77
  -9  -7   1   30.74    9.94
  -9  -7  -1   32.49    9.50
  -9   7  -1   52.41    4.19
  -9   7   2  241.74    8.82
  -9   7  -2  246.38    8.66
   9   7  -2  247.93    8.77
   9   7   2  245.94   14.19
  -9  -7   2  234.11   13.50
  -9  -7  -2  267.05   10.70
  -9   7   2  235.04    6.02
  -9   7  -2  241.50    7.46
   9  -7   2  243.63    9.14
  -9   7   3   21.97    5.48
  -9   7  -3   25.18    7.55
   9   7  -3    9.27    2.57
   9   7   3   24.84    7.61
  -9  -7   3   19.83    6.04
  -9  -7  -3   17.53    4.67
  -9   7  -3   24.52    8.78
   9  -7   3   19.60    7.82
  -9   7   4  188.47   11.16
  -9   7  -4  179.95   13.34
   9   7  -4  170.39    7.39
   9   7   4  192.87    7.29
  -9  -7   4  190.79    8.76
  -9  -7  -4  176.59    8.03
  -9   7  -4  168.74   12.22
   9  -7   4  187.47   14.40
  -9   7   5   24.16    6.50
  -9   7  -5   14.85    3.87
   9   7  -5   20.65    4.46
   9   7   5   19.44    6.12
  -9  -7   5    8.48    3.01
  -9  -7  -5   27.89    5.41
  -9   7  -5   16.13    4.85
   9  -7   5   21.82    5.50
  -9   7   6   50.37   15.12
  -9   7  -6   63.77    5.38
   9   7  -6   51.38   13.45
   9   7   6   61.29    8.82
  -9  -7   6   51.86   16.71
  -9  -7  -6   48.06   15.17
  -9   7  -6   56.66   11.19
   9  -7   6   48.59   15.94
  -9   7   7   35.02   11.28
  -9   7  -7   46.17   11.02
   9   7  -7   40.57    8.74
   9   7   7   40.50    5.95
  -9  -7   7   37.77   13.10
  -9  -7  -7   35.27    4.61
  -9   7  -7   40.53    6.40
   9  -7   7   36.96   11.50
  -9   7   8  128.83   14.91
  -9   7  -8  165.71    7.45
   9   7  -8  130.57   10.88
   9   7   8  134.90    5.65
  -9  -7   8  150.04    9.89
  -9  -7  -8  124.22   15.87
  -9   7  -8  140.66   13.14
   9  -7   8  138.55   21.07
  -9   7   9   89.01   14.48
  -9   7  -9   78.19    6.52
   9   7  -9   86.97   11.11
  -9  -7   9   74.93    9.37
  -9  -7  -9   80.50    6.75
  -9   7  -9   75.44   12.92
   9  -7   9   74.74   20.55
  -9   7  10   99.46    7.28
  -9   7 -10   96.06    5.95
   9   7 -10  102.23    9.59
  -9  -7  10  102.24   11.12
  -9  -7 -10   89.56   19.44
  -9   7 -10   81.49    8.72
   9  -7  10   98.65   14.21
  -9   7  11   26.52   10.27
  -9   7 -11   36.40    4.03
   9   7 -11   32.60    8.17
  -9  -7  11   22.01    6.11
  -9  -7 -11   27.82    4.47
  -9   7 -11   26.48    7.16
   9  -7  11   30.92    9.49
  -9   7  12   56.50   18.19
  -9   7 -12   63.38    5.60
   9   7 -12   63.49   12.86
  -9  -7  12   59.40   17.19
  -9  -7 -12   68.02    8.91
  -9   7 -12   71.25   11.26
   9  -7  12   70.94   14.25
  -9   7  13   32.22    9.77
   9   7 -13   32.78    6.40
  -9  -7  13   42.59    8.31
  -9  -7 -13   27.14    6.06
  -9   7 -13   34.79    8.65
   9  -7  13   32.39    8.82
   9   7 -14   23.58    3.88
  -9  -7  14   22.36    6.00
  -9  -7 -14   24.73    7.54
  -9   7 -14   21.88    5.85
   9  -7  14   27.78    5.39
   9   7 -15    1.01    2.32
  -9  -7  15    4.73    2.71
  -9  -7 -15    6.19    3.79
  -9   7 -15    5.95    2.25
   9  -7  15    5.19    3.39
   9   7 -16   17.48    3.44
  -9  -7  16   12.70    6.75
  -9  -7 -16   17.39    4.75
  -9   7 -16    5.78    3.81
   9  -7  16    9.92    3.56
  -9   8   0   10.61    2.27
   9   8   0    1.81    1.00
  -9  -8   0   -0.52    3.24
  -9   8   1    8.43    3.55
  -9   8  -1    8.70    3.44
   9   8  -1    5.39    3.28
   9   8   1    9.63    2.45
  -9  -8   1    5.87    2.60
  -9  -8  -1    7.36    4.74
  -9   8  -1   11.41    1.79
   9  -8   1    8.40    3.76
  -9   8   2   50.23   12.51
  -9   8  -2   34.87   10.76
   9   8  -2   47.50    4.93
   9   8   2   41.06   11.84
  -9  -8   2   41.17   10.95
  -9  -8  -2   49.41   13.77
  -9   8  -2   38.41    4.98
   9  -8   2   40.51    5.22
  -9   8   3   26.45    7.89
  -9   8  -3   20.22    6.28
   9   8  -3   32.69    4.55
   9   8   3   21.61    8.02
  -9  -8   3   22.60    6.40
  -9  -8  -3   25.52    7.35
  -9   8  -3   18.10    2.37
   9  -8   3   29.37    4.87
  -9   8   4   15.08    2.79
  -9   8  -4    6.24    3.99
   9   8  -4   10.30    3.83
   9   8   4    2.32    2.69
  -9  -8   4    5.83    3.79
  -9  -8  -4    4.82    1.78
  -9   8  -4    4.36    1.44
   9  -8   4    8.81    2.59
  -9   8   5   93.43   20.20
  -9   8  -5  101.11    7.96
   9   8  -5  104.04    7.58
   9   8   5  106.23    5.27
  -9  -8   5  108.73    7.38
  -9  -8  -5  104.33   14.82
  -9   8  -5  110.05    5.15
   9  -8   5  113.26   11.44
  -9   8   6  362.27   11.56
  -9   8  -6  333.58    9.21
   9   8  -6  380.20   10.75
   9   8   6  341.30   12.40
  -9  -8   6  370.64   12.04
  -9  -8  -6  370.68   11.31
  -9   8  -6  337.77   15.03
   9  -8   6  341.51   14.99
  -9   8   7   58.57   13.38
  -9   8  -7   72.98    7.64
   9   8  -7   54.81    5.31
   9   8   7   51.63   10.75
  -9  -8   7   50.30   14.35
  -9  -8  -7   40.21   16.39
  -9   8  -7   59.70   10.90
   9  -8   7   65.19   12.05
  -9   8   8  117.92   19.13
  -9   8  -8  123.64    8.20
   9   8  -8  123.77   11.99
   9   8   8  113.77    5.27
  -9  -8   8  116.37   17.22
  -9  -8  -8  130.90   16.73
  -9   8  -8  109.37    5.49
   9  -8   8  131.41    8.03
  -9   8   9   30.38    8.94
  -9   8  -9   24.08    7.00
   9   8  -9   27.58    5.67
  -9  -8   9   23.15    6.92
  -9  -8  -9   28.12    9.33
  -9   8  -9   27.24    7.60
   9  -8   9   26.34    7.97
  -9   8  10   79.03   13.20
  -9   8 -10   77.44    5.71
   9   8 -10   75.14    7.46
  -9  -8  10   76.94   25.86
  -9  -8 -10   73.23    8.17
  -9   8 -10   56.84   16.19
   9  -8  10   64.98   14.86
  -9   8  11   11.03    2.53
  -9   8 -11    5.13    2.02
   9   8 -11    4.58    2.32
  -9  -8  11    7.73    3.47
  -9  -8 -11    4.44    3.07
  -9   8 -11    7.78    2.88
   9  -8  11    6.83    2.93
  -9   8  12   11.19    2.98
  -9   8 -12    8.31    3.05
   9   8 -12   12.94    4.50
  -9  -8  12   10.51    4.24
  -9  -8 -12   10.68    3.29
  -9   8 -12    9.08    3.03
   9  -8  12   14.83    4.92
  -9   8  13    6.03    2.42
   9   8 -13    2.74    2.54
  -9  -8  13    5.21    3.04
  -9  -8 -13    3.49    2.19
  -9   8 -13    5.04    3.57
   9  -8  13    2.65    3.43
   9   8 -14    2.51    1.51
  -9  -8  14    4.68    2.41
  -9  -8 -14    3.69    2.70
  -9   8 -14    2.26    3.55
   9  -8  14    4.05    3.19
   9   8 -15    3.78    1.64
  -9  -8  15   11.79    5.31
  -9  -8 -15    3.37    2.47
  -9   8 -15    3.29    2.63
   9  -8  15    5.88    2.57
  -9   9   0   20.21    5.44
   9   9   0   21.87    3.69
  -9  -9   0   19.72    5.26
  -9   9   1   82.29    6.51
  -9   9  -1   95.01    7.07
   9   9  -1   87.89    6.27
   9   9   1   98.49   11.41
  -9  -9   1   92.94    6.77
  -9  -9  -1   81.95    9.94
  -9   9  -1   93.56    3.80
  -9   9   2  258.17   15.28
  -9   9  -2  259.42   13.66
   9   9  -2  283.10    9.75
  -9  -9   2  263.86   11.85
  -9  -9  -2  281.39   15.17
  -9   9  -2  262.12    6.77
   9  -9   2  271.93   15.11
  -9   9   3   38.84   10.97
  -9   9  -3   38.38    8.74
   9   9  -3   41.07   11.23
   9   9   3   36.23    8.15
  -9  -9   3   31.53    9.78
  -9  -9  -3   41.96    8.88
  -9   9  -3   33.81    4.59
   9  -9   3   47.14    5.35
  -9   9   4    3.45    1.45
  -9   9  -4   -2.23    2.17
   9   9  -4    4.55    2.67
   9   9   4    1.21    0.96
  -9  -9   4   -2.52    3.84
  -9  -9  -4    3.44    1.21
  -9   9  -4    3.46    2.19
   9  -9   4   -0.36    2.98
  -9   9   5   30.51    8.28
  -9   9  -5   30.00    8.28
   9   9  -5   31.67    5.95
   9   9   5   30.05    9.32
  -9  -9   5   31.76   10.72
  -9  -9  -5   25.05    7.27
  -9   9  -5   27.23   11.68
   9  -9   5   29.53    6.57
  -9   9   6   43.36   14.40
  -9   9  -6   47.12    9.04
   9   9  -6   51.25   15.32
   9   9   6   40.79   11.44
  -9  -9   6   37.49   12.01
  -9  -9  -6   52.71    6.64
  -9   9  -6   37.81   10.60
   9  -9   6   47.81    6.21
  -9   9   7   52.32   15.02
  -9   9  -7   57.37    5.31
   9   9  -7   51.99    6.67
   9   9   7   58.86    6.20
  -9  -9   7   62.51   16.06
  -9  -9  -7   59.47    8.20
  -9   9  -7   57.50   12.02
   9  -9   7   51.73    5.61
  -9   9   8    7.55    2.55
  -9   9  -8    4.04    2.51
   9   9  -8    9.15    3.64
   9   9   8    2.34    1.63
  -9  -9   8    1.44    1.72
  -9  -9  -8    5.05    2.89
  -9   9  -8    1.26    1.49
   9  -9   8    7.76    3.59
  -9   9   9   16.81    6.69
  -9   9  -9   15.96    4.94
   9   9  -9   19.14    5.94
  -9  -9   9   17.57    4.52
  -9  -9  -9   14.49    4.39
  -9   9  -9   18.60    7.50
   9  -9   9   14.31    3.85
  -9   9  10   43.76   11.51
  -9   9 -10   47.20   11.88
   9   9 -10   50.21   11.61
  -9  -9  10   49.56   14.69
  -9  -9 -10   41.09   12.18
  -9   9 -10   45.30   15.82
   9  -9  10   36.21    5.31
  -9   9  11   84.37    8.55
  -9   9 -11   66.70   12.85
   9   9 -11   84.66    7.73
  -9  -9  11   62.33   24.46
  -9  -9 -11   77.28   18.21
  -9   9 -11   57.05   19.77
   9  -9  11   77.32   10.86
  -9   9  12   -0.52    2.16
  -9   9 -12    1.27    1.24
   9   9 -12    4.46    1.66
  -9  -9  12    1.72    2.82
  -9  -9 -12    1.02    2.02
  -9   9 -12    1.10    1.67
   9  -9  12    5.12    3.74
  -9   9  13   31.87   12.44
   9   9 -13   38.46   12.61
  -9  -9  13   38.35   15.41
  -9  -9 -13   30.19    9.77
  -9   9 -13   33.53   10.94
   9  -9  13   31.76   10.81
   9   9 -14   53.14   12.43
  -9  -9  14   41.97   14.38
  -9  -9 -14   38.33   11.10
  -9   9 -14   54.37   14.16
   9  -9  14   44.59   18.01
  -9  10   0   91.73   22.05
   9  10   0  102.82   13.77
  -9 -10   0  105.77   18.45
  -9  10   1  159.24   13.13
  -9  10  -1  169.40   13.91
   9  10  -1  167.49   11.09
   9  10   1  184.86    8.52
  -9 -10   1  177.25   18.36
  -9 -10  -1  180.57   13.07
  -9  10   2  128.10    6.52
  -9  10  -2  143.61   13.01
   9  10  -2  156.45   13.44
   9  10   2  158.44   11.13
  -9 -10   2  139.24   16.97
  -9 -10  -2  126.90    9.82
   9 -10   2  131.64   11.44
  -9  10   3   28.04    7.74
  -9  10  -3   35.56   10.85
   9  10  -3   22.16    5.61
   9  10   3   26.73    8.21
  -9 -10   3   28.98    9.32
  -9 -10  -3   21.47    6.32
  -9  10  -3   37.40    3.27
   9 -10   3   31.59    7.45
  -9  10   4   92.60   12.06
  -9  10  -4   85.76   20.09
   9  10  -4  106.02   19.87
   9  10   4   96.42    5.85
  -9 -10   4   83.03   18.38
  -9 -10  -4  109.19   18.66
  -9  10  -4  111.95    7.32
   9 -10   4   78.00   17.29
  -9  10   5    5.37    2.91
  -9  10  -5    3.03    2.64
   9  10  -5    5.88    3.69
   9  10   5    4.68    2.56
  -9 -10   5    7.00    2.91
  -9 -10  -5    4.52    3.26
  -9  10  -5    3.92    1.58
   9 -10   5    0.99    3.32
  -9  10   6    7.64    3.08
  -9  10  -6    2.75    1.39
   9  10  -6   -0.27    2.99
   9  10   6    3.05    1.25
  -9 -10   6    4.66    3.35
  -9 -10  -6    2.46    2.01
   9 -10   6    5.66    2.14
  -9  10   7    1.95    1.58
  -9  10  -7   -0.87    2.28
   9  10  -7   -0.99    2.51
   9  10   7    0.73    0.79
  -9 -10   7    1.49    2.79
  -9 -10  -7    3.70    1.94
  -9  10  -7    0.22    1.21
   9 -10   7    4.79    3.30
  -9  10   8   16.27    4.11
   9  10  -8    4.87    3.09
  -9 -10   8    7.00    4.26
  -9 -10  -8    4.91    3.60
  -9  10  -8   11.97    3.58
   9 -10   8    5.80    3.56
  -9  10   9   32.21   10.79
  -9  10  -9   37.04    9.79
   9  10  -9   34.85   10.60
  -9 -10   9   36.91   14.22
  -9 -10  -9   34.16   12.43
  -9  10  -9   35.70   12.30
   9 -10   9   37.27    5.58
  -9  10  10   30.12   11.52
  -9  10 -10   30.22    6.98
   9  10 -10   29.01    4.70
  -9 -10  10   37.91   10.57
  -9 -10 -10   32.51    5.40
  -9  10 -10   33.03    6.16
   9 -10  10   33.65    6.52
  -9  10  11   71.61   14.06
  -9  10 -11   68.85   18.89
   9  10 -11   87.00    7.78
  -9 -10  11   75.25   17.61
  -9 -10 -11   84.18   12.83
  -9  10 -11   74.23    8.24
   9 -10  11   66.13   21.42
  -9  10  12   31.50    9.45
  -9  10 -12   40.88    9.94
   9  10 -12   51.98    5.15
  -9 -10  12   43.18   10.15
  -9 -10 -12   35.40   13.04
   9 -10  12   36.86    8.00
  -9  10 -13   11.49    3.95
   9  10 -13   13.26    4.21
  -9 -10  13   13.29    6.32
  -9 -10 -13    9.08    3.59
   9 -10  13   12.05    4.43
  -9  11   0   43.13   12.84
   9  11   0   63.20   12.86
  -9 -11   0   52.83   17.07
  -9  11   1   72.63    7.32
  -9  11  -1   75.53    6.25
   9  11  -1   78.69    9.31
   9  11   1   96.84    7.09
  -9 -11   1   84.67   21.14
  -9 -11  -1   85.00   11.26
  -9  11   2   36.38    8.50
  -9  11  -2   37.68    9.65
   9  11  -2   34.40   10.43
   9  11   2   33.59   10.75
  -9 -11   2   38.95    6.58
  -9 -11  -2   37.23   10.12
  -9  11  -3    4.26    2.18
   9  11  -3    2.46    1.32
   9  11   3    7.65    1.82
  -9 -11   3    4.98    2.66
   9 -11   3    5.90    3.52
  -9  11   4   34.67   11.49
  -9  11  -4   33.80    4.70
   9  11  -4   38.86    6.40
   9  11   4   31.78    9.74
  -9 -11   4   31.69   14.61
  -9 -11  -4   34.22   11.72
   9 -11   4   39.50    5.81
  -9  11   5   60.83   19.14
  -9  11  -5   68.00   11.91
   9  11  -5   68.53   15.50
   9  11   5   60.77   17.13
  -9 -11   5   65.68   20.84
  -9 -11  -5   60.55   14.65
   9 -11   5   70.52    6.80
  -9  11   6   13.31    2.92
  -9  11  -6   11.69    1.80
   9  11  -6    9.60    4.46
   9  11   6   21.36    4.88
  -9 -11   6   15.22    3.68
  -9 -11  -6   12.62    3.34
   9 -11   6    9.78    3.92
  -9  11   7   10.78    3.40
  -9  11  -7   17.35    3.58
   9  11  -7   11.47    3.21
   9  11   7   13.52    3.66
  -9 -11   7   11.83    5.68
  -9 -11  -7   13.49    3.99
   9 -11   7   11.69    5.16
  -9  11   8   46.45   13.55
  -9  11  -8   48.77   12.92
   9  11  -8   54.35   15.97
  -9 -11   8   52.94   14.73
  -9 -11  -8   48.69   10.39
   9 -11   8   37.50   12.46
  -9  11   9    9.21    2.93
  -9  11  -9    8.37    2.06
   9  11  -9    6.40    3.11
  -9 -11   9    9.45    5.30
  -9 -11  -9    6.93    5.58
   9 -11   9   13.23    4.62
  -9  11  10    4.77    3.20
  -9  11 -10    6.16    2.88
   9  11 -10    5.67    2.54
  -9 -11  10    9.41    3.10
  -9 -11 -10    4.00    1.79
   9 -11  10    5.23    2.90
  -9  11  11   22.07    8.36
  -9  11 -11   22.63    4.59
   9  11 -11   38.26    6.27
  -9 -11  11   21.30    8.08
  -9 -11 -11   22.65    4.64
   9 -11  11   29.45    6.98
  -9  11  12   13.74    4.57
  -9  11 -12    8.62    4.57
   9  11 -12   15.93    3.91
  -9 -11  12   13.48    3.54
  -9 -11 -12   14.05    5.71
   9 -11  12   17.92    5.46
  -9  12   0    4.98    3.61
   9  12   0    7.98    3.62
  -9 -12   0    5.30    3.83
  -9  12   1   16.39    3.91
  -9  12  -1   24.54    6.64
   9  12  -1   25.79    4.94
   9  12   1   23.15    4.94
  -9 -12   1   30.41    7.20
  -9 -12  -1   21.60    4.79
  -9  12   2    4.64    2.79
  -9  12  -2   10.93    3.04
   9  12  -2   10.80    2.67
   9  12   2   12.20    4.17
  -9 -12   2   11.91    4.01
  -9 -12  -2    6.78    2.48
  -9  12   3   71.14    6.42
  -9  12  -3   62.68   13.63
   9  12  -3   66.24   14.05
   9  12   3   64.22   12.15
  -9 -12   3   70.80   17.08
  -9 -12  -3   59.01   12.98
   9 -12   3   55.95   12.21
  -9  12   4   78.18   22.51
  -9  12  -4   67.19   16.69
   9  12  -4   98.40    8.65
   9  12   4   99.00    6.86
  -9 -12   4   87.60   21.40
  -9 -12  -4   92.37   21.26
   9 -12   4   73.28   16.48
  -9  12   5   66.18   19.66
  -9  12  -5   72.43   20.43
   9  12  -5   89.17    9.74
   9  12   5   85.36    8.53
  -9 -12   5   81.91   23.88
  -9 -12  -5   74.55   18.87
   9 -12   5   79.04    6.91
  -9  12   6   23.67    5.36
  -9  12  -6   18.17    5.90
   9  12  -6   28.58    5.58
   9  12   6   28.41    8.86
  -9 -12   6   29.53    6.88
  -9 -12  -6   27.41    7.04
   9 -12   6   20.56    5.55
  -9  12   7  113.69    9.70
  -9  12  -7  109.04   12.11
   9  12  -7  125.02   28.65
   9  12   7  108.73   14.35
  -9 -12   7   97.19   24.20
  -9 -12  -7   95.54   26.19
   9 -12   7  121.65   10.14
  -9  12   8   65.11    6.38
  -9  12  -8   56.60   15.96
   9  12  -8   53.40   15.21
  -9 -12   8   60.39   13.59
  -9 -12  -8   50.01    9.72
   9 -12   8   63.65    7.27
  -9  12   9   71.36   22.98
  -9  12  -9   80.86   11.35
   9  12  -9   75.61   15.42
  -9 -12   9   85.61   22.55
  -9 -12  -9   78.14   10.37
   9 -12   9   84.73   11.75
  -9  12  10   10.01    4.08
  -9  12 -10    9.40    2.09
   9  12 -10   12.41    4.04
  -9 -12  10    6.48    3.24
  -9 -12 -10   14.94    5.51
   9 -12  10    9.57    4.80
  -9  12  11   16.88    4.93
  -9  12 -11   16.39    4.09
   9  12 -11   15.64    2.94
  -9 -12  11   24.34    5.79
  -9 -12 -11   16.01    6.74
   9 -12  11   19.19    5.92
  -9  13   0   29.68    7.02
   9  13   0   29.59    7.63
  -9 -13   0   31.51   11.01
  -9  13   1   36.43   11.67
  -9  13  -1   40.06    9.81
   9  13  -1   44.68    9.69
   9  13   1   39.73   12.12
  -9 -13   1   41.30   10.59
  -9 -13  -1   46.29   15.31
  -9  13   2    3.55    3.35
  -9  13  -2    8.09    1.96
   9  13  -2    8.77    2.94
   9  13   2    3.72    1.78
  -9 -13   2    4.27    2.25
  -9 -13  -2    7.20    2.20
  -9  13   3    2.76    3.34
  -9  13  -3   -5.09    2.53
   9  13  -3    4.11    3.33
   9  13   3    0.92    1.28
  -9 -13   3    4.58    3.76
  -9 -13  -3    1.67    2.92
  -9  13   4    9.98    3.23
  -9  13  -4    7.97    4.37
   9  13  -4    8.72    3.95
   9  13   4    6.33    2.69
  -9 -13   4    9.11    5.20
  -9 -13  -4    3.86    3.63
   9 -13   4    8.41    3.70
  -9  13   5   50.63   15.55
  -9  13  -5   47.26    9.98
   9  13  -5   57.51   14.96
   9  13   5   60.12   19.16
  -9 -13   5   58.22   17.33
  -9 -13  -5   48.59   10.67
   9 -13   5   61.49    9.96
  -9  13   6    6.26    2.97
  -9  13  -6    6.17    2.76
   9  13  -6    5.05    2.28
   9  13   6    6.19    3.22
  -9 -13   6    8.68    5.10
  -9 -13  -6    7.62    2.73
   9 -13   6    8.71    4.21
  -9  13   7   14.59    4.57
  -9  13  -7    5.08    2.02
   9  13  -7   21.44    5.85
  -9 -13   7    8.87    4.09
  -9 -13  -7   10.15    3.08
   9 -13   7    7.87    3.13
  -9  13   8    1.15    2.67
  -9  13  -8    1.92    1.89
   9  13  -8    3.23    2.90
  -9 -13   8    0.80    2.03
  -9 -13  -8    4.49    2.14
   9 -13   8    4.49    3.90
  -9  13   9    3.83    2.03
  -9  13  -9    5.02    3.15
   9  13  -9    3.21    1.75
  -9 -13   9    8.42    4.25
  -9 -13  -9    4.33    1.92
   9 -13   9    6.50    4.15
  -9  13  10    1.11    1.59
  -9  13 -10    4.68    3.57
   9  13 -10    1.97    1.70
  -9 -13  10    3.67    2.87
  -9 -13 -10    2.92    2.26
  -9  14   0   19.09    5.55
   9  14   0   11.15    3.15
  -9 -14   0    8.42    3.24
  -9  14   1   57.16   16.46
  -9  14  -1   58.09    8.67
   9  14  -1   57.03   13.21
   9  14   1   62.73   15.91
  -9 -14   1   57.64    8.85
  -9 -14  -1   59.07   18.42
  -9  14   2   17.50    5.33
  -9  14  -2   15.47    5.10
   9  14  -2   22.34    5.98
   9  14   2   17.93    4.60
  -9 -14   2   20.05    8.49
  -9 -14  -2   19.24    4.66
  -9  14   3   32.77   10.65
  -9  14  -3   45.73   11.98
   9  14  -3   40.17    9.52
   9  14   3   40.43   12.92
  -9 -14   3   37.69   10.38
  -9 -14  -3   41.43    5.23
  -9  14   4    8.32    4.35
  -9  14  -4    7.14    1.76
   9  14  -4    2.16    3.08
   9  14   4   12.58    3.84
  -9 -14   4    8.24    3.40
  -9 -14  -4    5.23    2.69
  -9  14   5    2.08    4.10
  -9  14  -5   11.95    4.64
   9  14  -5    9.42    4.27
   9  14   5   10.97    2.90
  -9 -14   5    9.56    3.51
  -9 -14  -5    8.35    3.49
   9 -14   5   13.48    3.25
  -9  14   6    2.50    1.67
  -9  14  -6   -0.42    2.36
   9  14  -6    2.07    1.65
   9  14   6    1.80    1.52
  -9 -14   6   -2.73    4.14
  -9 -14  -6    1.39    1.46
   9 -14   6    2.48    3.72
  -9  14   7    3.40    2.67
  -9  14  -7    4.45    2.48
   9  14  -7    3.43    3.76
  -9 -14   7   -0.95    3.94
  -9 -14  -7    0.74    1.80
   9 -14   7    2.05    3.69
  -9 -14  -8    3.70    3.02
  -9  15   0   -0.13    3.03
   9  15   0    2.46    1.80
  -9 -15   0   -0.75    3.45
  -9  15   1   26.16    9.10
  -9  15  -1   23.61    6.98
   9  15  -1   22.01    8.75
   9  15   1   27.31    7.20
  -9 -15   1   27.13    6.24
  -9 -15  -1   30.25    7.67
  -9  15   2   36.26   10.44
  -9  15  -2   30.73    7.76
   9  15  -2   33.66    9.41
   9  15   2   35.19   10.59
  -9 -15   2   33.77    7.78
  -9 -15  -2   29.68    9.96
  -9  15   3    5.63    3.56
  -9  15  -3   10.53    5.01
   9  15  -3    6.76    3.71
   9  15   3    9.39    3.21
  -9 -15   3    8.38    4.33
  -9 -15  -3    9.34    1.75
  -9  15   4    5.05    3.00
  -9  15  -4    8.85    4.54
   9  15  -4    0.88    1.92
   9  15   4    0.25    2.22
  -9 -15   4    3.18    3.60
  -9 -15  -4    1.79    2.86
 -10   0   0   24.60    7.82
  10   0   0   23.80    2.02
 -10   0  -1  243.36    8.79
  10   0  -1  237.61    6.96
 -10   0   1  246.98    9.25
 -10   0  -1  228.36    7.06
  10   0   1  240.98    6.29
 -10   0  -2  370.56   12.01
  10   0  -2  372.33   12.08
 -10   0   2  388.12   15.66
 -10   0  -2  365.56   17.11
  10   0   2  388.80   10.38
 -10   0  -3   68.56    6.16
  10   0  -3   71.57    6.53
 -10   0   3   81.30    7.46
 -10   0  -3   72.46   13.83
  10   0   3   76.08    6.92
 -10   0  -4    1.60    1.22
  10   0  -4    1.29    1.72
 -10   0   4    0.23    1.37
 -10   0  -4    4.88    3.71
  10   0   4   -0.56    1.68
 -10   0  -5   24.78    7.39
  10   0  -5   28.66    8.44
 -10   0   5   24.11    7.41
 -10   0  -5   26.92    8.43
  10   0   5   24.34    6.20
 -10   0  -6   77.28    5.51
  10   0  -6   94.76    8.22
 -10   0   6   89.68    4.51
 -10   0  -6   86.61   15.19
  10   0   6   87.57   12.87
 -10   0  -7    2.17    1.63
  10   0  -7    2.69    1.78
 -10   0   7    2.68    2.37
 -10   0  -7    3.45    2.84
  10   0   7    3.41    2.28
 -10   0  -8   16.44    3.54
  10   0  -8   20.27    5.22
 -10   0   8   17.60    5.41
 -10   0  -8   23.44    6.80
  10   0   8   14.37    4.74
 -10   0  -9    9.09    2.39
  10   0  -9   11.90    3.18
 -10   0   9   11.57    2.86
 -10   0  -9   10.56    4.31
  10   0   9    9.91    1.63
 -10   0 -10  377.01    9.03
  10   0 -10  384.37   10.41
 -10   0  10  413.07   11.04
 -10   0 -10  389.62   11.35
  10   0  10  366.44   15.94
  10   0 -11   28.87    5.26
 -10   0 -11   32.72    7.27
  10   0  11   27.61    5.70
  10   0 -12   15.43    3.78
 -10   0  12   11.86    4.36
 -10   0 -12    5.92    2.71
  10   0  12   11.61    3.87
 -10   0  13   57.46   10.75
 -10   0 -13   62.31   17.38
  10   0  13   65.40    6.58
 -10   0  14    7.82    2.87
 -10   0 -14   10.53    3.82
  10   0  14   11.95    4.12
 -10   0  15    8.20    3.50
 -10   0 -15   10.35    4.07
  10   0  15   19.27    5.38
 -10   0 -16   -1.15    3.07
  10   0  16   -1.44    3.23
 -10   0 -17   37.11   10.75
  10   0  17   32.93    4.06
 -10   1   0  155.60   10.11
  10   1   0  140.42    5.40
 -10  -1   0  148.13    6.28
 -10   1   0  151.18    5.58
  10  -1   0  144.72    4.57
 -10   1   1   70.53   16.06
 -10   1  -1   55.52   11.75
  10   1  -1   75.67    4.97
  10   1   1   59.64   10.55
 -10  -1   1   59.55    5.16
 -10  -1  -1   63.27    6.51
 -10   1   1   77.64    4.28
 -10   1  -1   56.64    4.28
  10   1   1   59.20    2.56
  10  -1   1   73.74    3.06
 -10   1   2  191.03    7.97
 -10   1  -2  206.25   11.21
  10   1  -2  204.71    7.36
  10   1   2  200.81    7.04
 -10  -1   2  220.59    8.15
 -10   1   2  194.94    6.05
 -10  -1  -2  196.28    7.67
 -10   1  -2  211.02   12.44
  10   1   2  219.83    5.85
  10  -1   2  201.04    4.99
 -10   1   3  293.85   11.77
 -10   1  -3  280.41   11.40
  10   1  -3  286.23   11.33
 -10  -1   3  284.44   12.07
 -10   1   3  281.18   11.06
 -10  -1  -3  278.56   11.34
 -10   1  -3  276.73   11.19
  10   1   3  300.72   10.45
  10  -1   3  288.34   11.50
 -10   1   4   80.78    5.43
 -10  -1  -4   80.41    5.23
 -10   1  -4   60.60    6.25
  10   1  -4   76.65    4.76
 -10  -1   4   63.21    4.64
 -10   1   4   74.49    6.43
 -10  -1  -4   75.32    4.79
 -10   1  -4   62.98    7.09
  10   1   4   69.60    5.33
  10  -1   4   81.04    4.93
 -10   1   5   57.30    5.12
 -10  -1  -5   60.54    7.05
 -10   1  -5   74.71    5.49
  10   1  -5   62.67    5.39
 -10  -1   5   70.48    5.22
 -10   1   5   58.20    7.79
 -10  -1  -5   57.15    4.47
 -10   1  -5   75.63    7.87
  10   1   5   73.98    6.54
  10  -1   5   54.32   12.46
 -10   1   6   47.15    4.98
 -10  -1  -6   42.52    3.68
 -10   1  -6   39.21   10.99
  10   1  -6   40.80    3.62
 -10  -1   6   32.35    9.96
 -10   1   6   39.36    4.93
 -10  -1  -6   47.96   10.39
 -10   1  -6   37.98   10.38
  10   1   6   34.07    8.12
  10  -1   6   47.35   10.73
 -10   1   7  170.20   14.45
 -10  -1  -7  166.14    9.70
 -10   1  -7  156.27   10.87
  10   1  -7  167.73    6.85
 -10  -1   7  153.66    6.68
 -10   1   7  166.13    6.89
 -10  -1  -7  163.63    7.99
 -10   1  -7  130.58   10.51
  10   1   7  159.87   10.04
  10  -1   7  170.82    6.63
 -10   1   8   24.52    5.40
 -10  -1  -8   20.42    4.60
 -10   1  -8   19.06    4.99
  10   1  -8   21.59    3.24
 -10  -1   8   23.61    6.41
 -10   1   8   19.82    6.01
 -10  -1  -8   23.97    4.80
 -10   1  -8   28.13    8.90
  10   1   8   27.30    7.29
  10  -1   8   24.16    5.49
 -10   1   9  180.65   11.44
 -10  -1  -9  171.55   15.81
 -10   1  -9  164.82    6.63
  10   1  -9  164.67    6.85
 -10  -1   9  178.75   11.75
 -10   1   9  173.41    6.27
 -10  -1  -9  163.85   12.71
 -10   1  -9  163.31    7.30
  10   1   9  175.51    9.48
  10  -1   9  188.96   14.11
 -10   1  10   92.84   19.31
 -10  -1 -10   90.76    6.17
 -10   1 -10   81.66    4.47
  10   1 -10   85.55    5.77
 -10  -1  10   76.61    6.16
 -10   1  10   90.18    5.10
 -10  -1 -10   82.22    7.90
 -10   1 -10   86.20    7.12
  10   1  10   93.20    5.49
  10  -1  10  106.03    7.63
 -10   1  11   16.21    3.94
  10   1 -11   21.11    4.47
 -10  -1  11   17.27    5.31
 -10   1  11   16.96    5.17
 -10  -1 -11   17.17    6.32
 -10   1 -11   13.98    4.75
  10   1  11   15.38    3.06
  10  -1  11   14.19    4.97
 -10   1  12   18.96    4.34
  10   1 -12   19.58    5.33
 -10  -1  12   12.77    3.74
 -10   1  12   17.47    4.36
 -10  -1 -12   22.31    4.96
 -10   1 -12   20.15    5.65
  10   1  12   13.72    3.62
  10  -1  12   21.20    4.23
 -10   1  13   17.88    4.72
  10   1 -13   14.34    3.01
 -10  -1  13   14.04    5.06
 -10  -1 -13   16.28    4.41
 -10   1 -13   12.32    5.85
  10   1  13   18.04    5.11
  10  -1  13   19.72    5.81
 -10   1  14   33.39   10.58
  10   1 -14   35.06   10.98
 -10  -1  14   40.76   10.49
 -10  -1 -14   44.14   14.08
 -10   1 -14   42.54   10.04
  10   1  14   42.08   11.34
  10  -1  14   40.77   11.43
  10   1 -15   57.45   13.22
 -10  -1 -15   58.31   17.28
 -10   1 -15   56.09   19.46
  10   1  15   67.91   17.81
  10  -1  15   52.33   23.16
 -10  -1 -16   49.02   16.79
 -10   1 -16   33.89   12.45
  10   1  16   39.33   15.98
  10  -1  16   51.39   12.59
 -10  -1 -17   -1.30    3.16
 -10   1 -17    4.79    3.64
  10   1  17    2.00    1.82
  10  -1  17    2.15    3.14
 -10   2   0  132.08   12.76
  10   2   0  127.76    7.47
 -10  -2   0  145.85    6.71
 -10   2   0  126.16    5.07
  10  -2   0  127.91    9.39
 -10   2   1  136.19    6.86
 -10   2  -1  127.07    6.26
  10   2  -1  141.36    9.79
  10   2   1  151.10    8.80
 -10  -2   1  135.59    6.09
 -10  -2  -1  139.42    6.08
 -10   2   1  135.79    5.51
 -10   2  -1  139.32    7.87
  10   2   1  141.83    3.17
  10  -2   1  136.14    4.52
 -10   2   2   22.00    6.19
 -10   2  -2   18.16    5.98
  10   2  -2   19.96    5.85
  10   2   2   22.48    3.75
 -10  -2   2   18.16    4.71
 -10  -2  -2   20.11    6.42
 -10   2   2   18.62    5.96
 -10   2  -2   30.39    7.00
  10   2   2   21.37    3.36
  10  -2   2   17.50    5.52
 -10   2   3   90.46    6.09
 -10   2  -3   94.62    5.69
  10   2  -3   87.81    4.90
  10   2   3  104.27    5.32
 -10  -2   3  107.29    8.28
 -10   2   3   97.59    4.30
 -10  -2  -3   93.83    6.33
 -10   2  -3  100.79    7.65
  10   2   3  108.89    4.03
  10  -2   3   92.20    3.87
 -10   2   4  139.00   14.79
 -10   2  -4  114.84    6.75
  10   2  -4  132.89    6.81
  10   2   4  116.66    7.89
 -10  -2   4  114.13    5.99
 -10   2   4  128.07    8.72
 -10  -2  -4  145.84    6.62
 -10   2  -4  115.96    5.61
  10   2   4  116.02    5.24
  10  -2   4  141.56   10.07
 -10   2   5  130.17    6.28
 -10   2  -5  121.37   11.91
  10   2  -5  109.97   12.87
  10   2   5  112.58    5.21
 -10  -2   5  117.81   13.69
 -10   2   5  102.98    4.46
 -10  -2  -5  100.62    8.90
 -10   2  -5  113.60    5.65
  10   2   5  121.59    4.50
  10  -2   5  105.19    5.78
 -10  -2  -6    4.31    2.71
 -10   2   6    6.76    1.35
 -10   2  -6    4.04    2.58
  10   2  -6    4.67    2.40
 -10  -2   6    4.58    2.79
 -10   2   6    4.02    2.32
 -10  -2  -6    4.58    1.68
 -10   2  -6    4.21    2.47
  10   2   6    3.91    1.72
  10  -2   6    4.63    2.01
 -10   2   7   70.93    5.69
 -10  -2  -7   76.69    3.67
 -10   2  -7   77.97    8.71
  10   2  -7   70.38   15.60
 -10  -2   7   64.21    6.07
 -10   2   7   72.50    4.21
 -10  -2  -7   75.13    5.79
 -10   2  -7   63.93    4.54
  10   2   7   63.09    8.67
  10  -2   7   81.73    6.42
 -10   2   8   58.21    5.72
 -10  -2  -8   64.52    4.44
 -10   2  -8   67.58    4.79
  10   2  -8   66.80    4.98
 -10  -2   8   77.89    9.62
 -10   2   8   69.11    3.83
 -10  -2  -8   66.54   10.14
 -10   2  -8   67.37    4.69
  10   2   8   70.28    6.17
  10  -2   8   75.77    8.54
 -10   2   9   56.62    6.07
 -10  -2  -9   47.40   10.41
 -10   2  -9   55.48   10.61
  10   2  -9   60.75    5.27
 -10  -2   9   59.38   13.99
 -10   2   9   56.52    9.13
 -10  -2  -9   56.18    7.05
 -10   2  -9   54.56   10.20
  10   2   9   63.73    4.92
  10  -2   9   62.11   12.31
 -10   2  10   17.28    3.32
 -10   2 -10   11.69    2.90
  10   2 -10   16.98    3.57
 -10  -2  10    6.06    2.25
 -10   2  10   13.43    4.53
 -10  -2 -10   24.33    4.88
  10   2  10   15.17    3.82
  10  -2  10   16.84    4.38
 -10   2  11  112.53   10.46
 -10   2 -11  114.09    5.84
  10   2 -11  132.01   18.03
 -10  -2  11  118.44    6.22
 -10  -2 -11  111.96   15.80
 -10   2 -11  119.70   17.24
  10   2  11  126.39    7.87
  10  -2  11  123.07   10.80
 -10   2  12   84.29    7.93
  10   2 -12   87.93    5.57
 -10  -2  12   86.55   10.12
 -10  -2 -12   95.58   14.88
 -10   2 -12   69.26   10.48
  10   2  12   77.64   20.51
  10  -2  12   85.82   17.00
 -10   2  13   70.88    6.67
  10   2 -13   72.72    5.30
 -10  -2  13   75.34    9.59
 -10  -2 -13   61.06   14.66
 -10   2 -13   71.54   20.78
  10   2  13   69.21   18.78
  10  -2  13   81.30   20.02
 -10   2  14    1.80    1.57
  10   2 -14    5.59    3.66
 -10  -2  14   15.53    4.20
 -10  -2 -14    1.96    2.46
 -10   2 -14    6.62    2.20
  10   2  14    2.44    2.67
  10  -2  14   11.27    3.77
 -10   2  15   24.44    8.22
  10   2 -15   26.16    3.71
 -10  -2  15   24.23   10.38
 -10  -2 -15   29.69    5.87
 -10   2 -15   20.36    5.82
  10   2  15   21.77    4.01
  10  -2  15   28.74    7.30
  10   2 -16   45.23   12.59
 -10  -2  16   49.51    9.04
 -10  -2 -16   45.53   15.62
 -10   2 -16   51.52   15.81
  10   2  16   52.30   13.61
  10  -2  16   41.15   14.75
 -10  -2 -17   11.95    3.28
 -10   2 -17   14.42    4.93
  10   2  17   15.46    5.34
  10  -2  17   13.07    4.21
 -10   3   0   19.62    4.89
  10   3   0   19.21    4.27
 -10  -3   0   18.91    6.96
 -10   3   0   19.47    6.90
  10  -3   0   16.60    5.12
 -10   3   1  116.84    8.46
 -10   3  -1  124.59   11.34
  10   3  -1  125.00    5.47
  10   3   1  118.12    9.24
 -10  -3   1  112.76    7.67
 -10  -3  -1  116.15    5.84
 -10   3   1  129.42    5.26
 -10   3  -1  125.59    5.26
  10   3   1  119.90    2.83
  10  -3   1  131.29    5.93
 -10   3   2   20.04    4.63
 -10   3  -2   17.15    3.60
  10   3  -2   23.16    6.97
  10   3   2   17.18    6.54
 -10  -3   2   17.04    5.38
 -10  -3  -2   23.63    6.39
 -10   3   2   18.39    6.27
 -10   3  -2   14.86    5.42
  10   3   2   15.19    4.43
  10  -3   2   20.76    4.74
 -10   3   3  332.49   13.56
 -10   3  -3  312.53   12.04
  10   3  -3  321.82   13.28
  10   3   3  315.02   12.36
 -10  -3   3  324.37   17.90
 -10  -3  -3  331.16   12.82
 -10   3   3  338.48   11.83
 -10   3  -3  317.46   11.99
  10   3   3  351.02   12.93
  10  -3   3  324.64   11.42
 -10   3   4  243.74   11.13
 -10   3  -4  256.27   10.46
  10   3  -4  255.70   11.23
  10   3   4  267.69   10.40
 -10  -3   4  259.60   15.14
 -10   3   4  257.01    9.55
 -10  -3  -4  257.55   10.99
 -10   3  -4  250.64   10.15
  10   3   4  273.79   12.03
  10  -3   4  256.33   10.35
 -10   3   5   12.70    3.23
 -10   3  -5   14.66    4.35
  10   3  -5   15.44    4.64
  10   3   5   13.16    2.60
 -10  -3   5   14.13    6.33
 -10   3   5   10.65    3.48
 -10  -3  -5   15.75    5.58
 -10   3  -5   15.52    6.65
  10   3   5   13.18    3.52
  10  -3   5   11.06    2.96
 -10   3   6   95.20    5.43
 -10   3  -6   88.30    6.87
  10   3  -6  100.29    8.02
  10   3   6   90.35    4.12
 -10  -3   6   98.58    8.41
 -10   3   6  102.24    4.27
 -10  -3  -6   84.55   13.72
 -10   3  -6   86.75    7.86
  10  -3   6   93.30    5.25
 -10   3   7   44.86   12.86
 -10   3  -7   52.60   12.18
  10   3  -7   54.29    5.93
 -10  -3   7   50.31   14.68
 -10   3   7   54.71    3.16
 -10  -3  -7   56.15   12.15
 -10   3  -7   50.62   14.94
  10  -3   7   50.94   12.70
 -10  -3  -8  243.36    7.40
 -10   3   8  226.56    8.47
 -10   3  -8  210.01    6.98
  10   3  -8  257.62   19.68
 -10  -3   8  242.54   10.06
 -10   3   8  240.49    6.07
 -10  -3  -8  243.67    9.11
 -10   3  -8  219.97    7.85
  10   3   8  203.50    8.95
  10  -3   8  265.70   16.22
 -10  -3  -9   44.38    3.44
 -10   3   9   41.70   13.91
 -10   3  -9   42.80   10.73
  10   3  -9   50.46    5.99
 -10  -3   9   40.32   10.86
 -10  -3  -9   42.72   11.45
 -10   3  -9   35.82   11.32
  10   3   9   41.56   11.76
  10  -3   9   50.21    5.25
 -10   3  10  116.57    9.65
 -10   3 -10  129.75   11.76
  10   3 -10  122.13    6.85
 -10  -3  10  121.35   10.37
 -10  -3 -10  117.93   17.44
 -10   3 -10  120.93    6.36
  10   3  10  121.94    8.48
  10  -3  10  125.33   20.27
 -10   3  11   59.53    9.51
 -10   3 -11   68.66    6.11
  10   3 -11   55.20   13.57
 -10  -3  11   62.84   14.70
 -10  -3 -11   63.87    7.33
 -10   3 -11   59.78   16.33
  10   3  11   67.09   11.51
  10  -3  11   64.29   11.04
 -10   3  12   14.98    3.65
  10   3 -12   15.62    3.43
 -10  -3  12   17.47    3.01
 -10  -3 -12   16.48    4.20
 -10   3 -12   14.83    5.68
  10   3  12   21.73    6.62
  10  -3  12   15.17    3.57
 -10   3  13   67.38    7.69
  10   3 -13   67.04   18.59
 -10  -3  13   61.63   18.60
 -10  -3 -13   72.53    8.43
 -10   3 -13   71.32   11.62
  10   3  13   76.57    8.79
  10  -3  13   66.72   17.83
 -10   3  14    3.83    2.16
  10   3 -14    4.02    2.04
 -10  -3  14    1.25    2.82
 -10  -3 -14    3.81    1.32
 -10   3 -14    3.58    1.87
  10   3  14    4.98    2.83
  10  -3  14    6.76    3.22
 -10   3  15   33.11   11.98
  10   3 -15   39.05   12.15
 -10  -3  15   36.77   16.68
 -10  -3 -15   41.67   14.19
 -10   3 -15   36.79   11.94
  10   3  15   48.47    9.77
  10  -3  15   47.38   13.14
  10   3 -16   16.17    4.26
 -10  -3  16   15.32    5.70
 -10  -3 -16   12.95    3.47
 -10   3 -16   17.19    4.70
  10   3  16   18.30    4.63
  10  -3  16   16.18    5.12
 -10   4   0    2.10    2.53
  10   4   0   -1.45    2.45
 -10  -4   0    2.71    2.35
 -10   4   0    1.48    1.51
  10  -4   0    0.78    1.53
 -10   4   1  202.34    8.41
 -10   4  -1  191.17   10.36
  10   4  -1  191.29    7.01
  10   4   1  190.08    7.01
 -10  -4   1  198.86    7.65
 -10  -4  -1  198.37    7.47
 -10   4   1  191.58    5.95
 -10   4  -1  191.27    5.77
  10  -4   1  197.93    6.36
 -10   4   2  296.86   12.01
 -10   4  -2  277.07   11.07
  10   4  -2  297.85   11.96
  10   4   2  291.24   12.04
 -10  -4   2  285.43   12.06
 -10  -4  -2  288.66   17.85
 -10   4   2  297.46   11.02
 -10   4  -2  275.71   10.40
  10  -4   2  283.67   10.52
 -10   4   3   15.05    4.21
 -10   4  -3   17.96    5.29
  10   4  -3   17.74    3.92
  10   4   3   21.26    4.14
 -10  -4   3   20.39    6.07
 -10  -4  -3   12.14    5.05
 -10   4   3   13.58    4.40
 -10   4  -3   15.97    4.76
  10  -4   3   16.54    4.13
 -10   4   4   53.09   13.01
 -10   4  -4   54.49   12.35
  10   4  -4   60.42    6.07
  10   4   4   61.96   13.02
 -10  -4   4   63.11   19.36
 -10  -4  -4   58.53   16.73
 -10   4   4   53.49    2.91
 -10   4  -4   58.89    5.37
  10  -4   4   52.42   12.75
 -10   4   5  129.48    6.14
 -10   4  -5  120.58   12.42
  10   4  -5  120.00    9.75
  10   4   5  111.46    6.28
 -10  -4   5  115.51    9.63
 -10   4   5  118.44    4.45
 -10  -4  -5  115.72    6.41
 -10   4  -5  109.12   12.99
  10  -4   5  119.83    5.46
 -10   4   6   67.75    6.31
 -10   4  -6   74.97   12.88
  10   4  -6   76.92   15.07
  10   4   6   90.72    4.43
 -10  -4   6   83.87    9.59
 -10   4   6   71.80    5.43
 -10  -4  -6   69.68   19.47
 -10   4  -6   80.50    4.69
  10  -4   6   62.75    5.84
 -10   4   7  140.59    6.38
 -10   4  -7  149.25    6.23
  10   4  -7  157.60   13.67
  10   4   7  154.98    6.17
 -10  -4   7  156.71   13.41
 -10  -4  -7  159.86    7.38
 -10   4  -7  161.87    9.90
  10  -4   7  134.94   10.82
 -10   4   8   73.59   11.42
 -10   4  -8   63.29    4.66
  10   4  -8   73.89    7.59
  10   4   8   59.79    5.69
 -10  -4   8   73.66    7.05
 -10  -4  -8   61.75   17.56
 -10   4  -8   58.04   18.77
  10  -4   8   75.11   10.02
 -10  -4  -9   27.00    7.09
 -10   4   9   32.94    8.76
 -10   4  -9   28.97    4.97
  10   4  -9   38.56    7.15
 -10  -4   9   46.51   12.65
 -10  -4  -9   32.43    6.15
 -10   4  -9   41.20   10.71
  10  -4   9   37.22    8.83
 -10   4  10  122.90   10.49
 -10   4 -10  109.98   19.88
  10   4 -10  130.36   10.96
 -10  -4  10  121.33   18.23
 -10  -4 -10  115.26    7.05
 -10   4 -10  111.31   14.00
  10  -4  10  121.38   12.64
 -10   4  11   61.29   13.94
 -10   4 -11   60.88    4.64
  10   4 -11   62.94   17.23
 -10  -4  11   61.82    6.17
 -10  -4 -11   57.00   14.33
 -10   4 -11   66.13    7.00
  10  -4  11   66.32   17.85
 -10   4  12    3.50    1.83
  10   4 -12    7.81    3.51
 -10  -4  12    5.93    1.86
 -10  -4 -12    5.17    1.72
 -10   4 -12    4.54    2.51
  10  -4  12    9.13    2.98
 -10   4  13   58.71   15.53
  10   4 -13   54.54   14.41
 -10  -4  13   58.24   17.63
 -10  -4 -13   54.04   15.19
 -10   4 -13   62.99    8.68
  10  -4  13   63.98   18.30
  10   4 -14  112.95    7.52
 -10  -4  14  101.84   13.11
 -10  -4 -14  103.09    9.62
 -10   4 -14   92.95   15.31
  10   4  14  110.00   11.83
  10  -4  14  124.09   12.90
  10   4 -15    1.04    1.46
 -10  -4  15    0.23    1.72
 -10  -4 -15    2.49    2.38
 -10   4 -15    0.55    2.73
  10   4  15    4.17    3.37
  10  -4  15    1.37    3.33
  10   4 -16    4.01    1.82
 -10  -4  16    3.22    1.88
 -10  -4 -16    3.99    2.41
 -10   4 -16    1.36    3.41
  10   4  16    2.87    2.79
  10  -4  16    1.57    2.23
 -10   5   0  504.55   14.26
  10   5   0  519.40   13.51
 -10  -5   0  495.59   19.95
 -10   5   0  526.38   12.66
 -10   5   1  159.56    8.52
 -10   5  -1  155.63    7.39
  10   5  -1  173.63    7.58
  10   5   1  163.03    8.11
 -10  -5   1  147.61   13.11
 -10  -5  -1  158.65    7.81
 -10   5   1  160.50    6.01
 -10   5  -1  147.02    5.28
  10  -5   1  165.96   11.35
 -10   5   2  326.74   21.20
 -10   5  -2  330.63   10.05
  10   5  -2  338.19   10.45
  10   5   2  375.16   11.16
 -10  -5   2  345.86   11.24
 -10  -5  -2  323.77   17.15
 -10   5   2  327.90    9.26
 -10   5  -2  339.23    9.63
  10  -5   2  322.25    9.26
 -10   5   3   18.33    4.72
 -10   5  -3   14.52    3.63
  10   5  -3   16.24    5.63
  10   5   3   16.82    4.20
 -10  -5   3   21.19    8.89
 -10  -5  -3   14.09    5.44
 -10   5   3   12.58    4.06
 -10   5  -3   13.53    4.59
  10  -5   3   14.71    4.41
 -10   5   4  256.17    9.07
 -10   5  -4  243.26   15.05
  10   5  -4  283.43   10.37
  10   5   4  250.56    8.63
 -10  -5   4  253.07    9.93
 -10  -5  -4  280.95   14.78
 -10   5   4  279.54    7.20
 -10   5  -4  246.67   13.30
  10  -5   4  258.61    9.34
 -10   5   5  158.43    7.06
 -10   5  -5  142.69   10.54
  10   5  -5  194.52   19.94
  10   5   5  148.50    5.90
 -10  -5   5  141.07   13.55
 -10  -5  -5  144.17    7.44
 -10   5  -5  150.61   11.82
  10  -5   5  164.44   14.85
 -10   5   6   62.62    6.32
 -10   5  -6   55.64   12.09
  10   5  -6   64.21    6.65
  10   5   6   56.72    8.26
 -10  -5   6   57.29   17.43
 -10  -5  -6   70.14    6.91
 -10   5  -6   56.54    5.66
  10  -5   6   67.23    7.74
 -10   5   7  137.04    6.59
 -10   5  -7  148.47   11.20
  10   5  -7  142.53   13.22
  10   5   7  129.77   10.60
 -10  -5   7  138.71   10.15
 -10  -5  -7  133.04    8.63
  10  -5   7  141.77   19.41
 -10   5   8  131.23    6.62
 -10   5  -8  141.91    9.04
  10   5  -8  149.78   12.02
  10   5   8  150.23    5.64
 -10  -5   8  147.31    7.85
 -10  -5  -8  128.78   10.39
 -10   5  -8  143.72   14.46
  10  -5   8  149.39    7.32
 -10   5   9   31.70    9.19
 -10   5  -9   44.64   10.54
  10   5  -9   45.88    8.62
  10   5   9   37.63    5.29
 -10  -5   9   36.80   12.33
 -10  -5  -9   37.81    7.45
 -10   5  -9   36.73   11.70
  10  -5   9   36.87    8.29
 -10   5  10  119.59   12.58
 -10   5 -10  115.60    6.39
  10   5 -10  125.59   10.06
 -10  -5  10  117.27   19.63
 -10  -5 -10  110.63    8.30
 -10   5 -10  111.73    6.77
  10  -5  10  129.34   12.52
 -10   5  11   74.45    6.54
 -10   5 -11   59.21   12.09
  10   5 -11   63.93   16.32
 -10  -5  11   55.14   15.06
 -10  -5 -11   66.79   11.02
 -10   5 -11   53.51   13.09
  10  -5  11   70.21   15.73
 -10   5  12   82.82   15.40
  10   5 -12   90.59    6.73
 -10  -5  12   89.68   14.06
 -10  -5 -12   74.37   15.61
 -10   5 -12   84.91    6.37
  10  -5  12   96.11   22.10
 -10   5  13    6.93    2.72
  10   5 -13    2.93    2.90
 -10  -5  13    6.24    3.22
 -10  -5 -13    7.93    3.48
 -10   5 -13    5.67    3.21
  10  -5  13    7.63    3.28
 -10   5  14   66.76   11.38
  10   5 -14   64.09    9.06
 -10  -5  14   65.09   21.65
 -10  -5 -14   61.20   16.30
 -10   5 -14   57.66   20.22
  10  -5  14   68.44   16.03
  10   5 -15   -0.30    2.66
 -10  -5  15    0.99    1.41
 -10  -5 -15    5.05    2.93
 -10   5 -15    2.36    2.78
  10  -5  15    4.59    2.54
  10   5 -16   12.59    3.37
 -10  -5  16   10.44    3.68
 -10  -5 -16   11.78    4.02
 -10   5 -16    7.70    4.15
  10   5  16   11.82    5.32
  10  -5  16   20.54    5.40
 -10   6   0   -0.12    2.80
  10   6   0   -1.46    2.35
 -10  -6   0    3.02    3.02
 -10   6   0    2.67    1.70
 -10   6   1  252.62   19.58
 -10   6  -1  248.05   14.83
  10   6  -1  248.49    8.80
  10   6   1  258.30    9.48
 -10  -6   1  251.68   14.34
 -10  -6  -1  273.74   10.71
 -10   6   1  248.11    7.92
 -10   6  -1  244.44    7.98
  10  -6   1  258.65    8.47
 -10   6   2   34.94    8.40
 -10   6  -2   31.94   11.00
  10   6  -2   37.63    6.98
  10   6   2   36.60    9.84
 -10  -6   2   33.33    9.78
 -10  -6  -2   28.66    8.33
 -10   6   2   26.29    5.85
 -10   6  -2   32.80    3.86
  10  -6   2   32.48    4.88
 -10   6   3   31.33   11.27
  10   6  -3   45.27    5.95
  10   6   3   33.12    4.49
 -10  -6   3   29.83   11.47
 -10  -6  -3   33.17   12.32
 -10   6   3   32.81    4.14
 -10   6  -3   29.24    8.98
  10  -6   3   32.06    8.53
 -10   6   4   68.84    6.53
 -10   6  -4   79.34    7.63
  10   6  -4   80.02    9.60
  10   6   4   83.16    4.81
 -10  -6   4   86.03   10.43
 -10  -6  -4   75.49   10.37
 -10   6  -4   87.80    4.39
  10  -6   4   81.09    5.71
 -10   6   5    4.53    1.95
 -10   6  -5    2.66    2.59
  10   6  -5    4.31    2.58
  10   6   5    1.63    1.15
 -10  -6   5    0.11    1.66
 -10  -6  -5    6.66    2.87
 -10   6  -5    3.54    1.92
  10  -6   5    1.16    2.51
 -10   6   6    9.91    2.69
 -10   6  -6    6.62    1.95
  10   6  -6   12.68    3.81
  10   6   6    4.52    2.87
 -10  -6   6    4.38    2.87
 -10  -6  -6    7.52    2.76
 -10   6  -6    7.52    2.91
  10  -6   6    7.30    2.23
 -10   6   7    1.40    1.87
 -10   6  -7    1.85    1.44
  10   6  -7   -0.21    2.27
  10   6   7    4.12    2.55
 -10  -6   7    2.27    2.26
 -10  -6  -7    3.19    2.43
 -10   6  -7    2.51    2.02
  10  -6   7    4.23    2.88
 -10   6   8  117.01   11.90
 -10   6  -8  144.60   12.78
  10   6  -8  137.48   14.93
  10   6   8  136.30    5.76
 -10  -6   8  163.44    8.76
 -10  -6  -8  118.02   16.84
 -10   6  -8  145.18    6.42
  10  -6   8  126.84    9.95
 -10   6   9    5.50    2.02
 -10   6  -9    4.22    3.42
  10   6  -9    6.43    2.38
 -10  -6   9    8.11    4.29
 -10  -6  -9    8.18    3.76
 -10   6  -9    2.17    2.37
  10  -6   9   10.07    4.31
 -10   6  10   24.51    6.13
 -10   6 -10   25.41   12.78
  10   6 -10   25.62    7.75
 -10  -6  10   32.13    8.23
 -10  -6 -10   28.92    6.12
 -10   6 -10   28.20    5.51
  10  -6  10   25.99    4.74
 -10   6  11  104.47   17.05
 -10   6 -11  101.13   18.05
  10   6 -11  111.90   11.15
 -10  -6  11  117.73   10.87
 -10  -6 -11  119.53    8.74
 -10   6 -11  110.96   20.49
  10  -6  11  108.92    8.12
 -10   6  12   16.87    4.26
 -10   6 -12   15.27    3.51
  10   6 -12   20.41    4.48
 -10  -6  12   20.67    6.02
 -10  -6 -12   18.86    5.73
 -10   6 -12   15.72    6.98
  10  -6  12   25.90    7.17
 -10   6  13   72.69    8.11
  10   6 -13   77.58   11.43
 -10  -6  13   61.04   18.57
 -10  -6 -13   68.35   13.41
 -10   6 -13   58.91   17.11
  10  -6  13   79.82   23.36
 -10   6  14    4.57    1.99
  10   6 -14    3.59    2.41
 -10  -6  14    1.85    2.89
 -10  -6 -14    0.91    1.78
 -10   6 -14    7.56    2.26
  10  -6  14    1.27    1.99
  10   6 -15   13.75    4.32
 -10  -6  15    5.57    3.95
 -10  -6 -15   11.46    4.83
 -10   6 -15   11.72    5.35
  10  -6  15   15.03    4.32
 -10   7   0   60.36   16.54
  10   7   0   63.42   15.38
 -10  -7   0   62.91   19.67
 -10   7   0   62.69    7.52
 -10   7   1  105.82    8.09
 -10   7  -1  101.16   14.47
  10   7  -1  108.14    8.60
  10   7   1  103.19   12.14
 -10  -7   1  100.17    7.37
 -10  -7  -1  117.52   16.09
 -10   7   1  100.40    4.91
 -10   7  -1  104.56    4.39
  10  -7   1  112.14    6.48
 -10   7   2   70.23    6.54
 -10   7  -2   63.94   12.61
  10   7  -2   82.04   17.32
  10   7   2   67.24    6.19
 -10  -7   2   66.43   17.03
 -10  -7  -2   88.43   10.32
 -10   7  -2   66.63    3.59
  10  -7   2   81.85    9.10
 -10   7   3    6.57    3.20
 -10   7  -3    5.82    2.69
  10   7  -3    2.89    2.50
  10   7   3    3.82    2.47
 -10  -7   3    3.17    3.34
 -10  -7  -3    4.84    2.46
 -10   7  -3    4.66    1.63
  10  -7   3    6.30    3.41
 -10   7   4   64.62    8.27
 -10   7  -4   63.80   15.80
  10   7  -4   61.15    8.63
  10   7   4   60.20    6.52
 -10  -7   4   54.68   16.45
 -10  -7  -4   61.42   17.37
 -10   7  -4   61.67    3.94
  10  -7   4   54.83   13.00
 -10   7   5   68.63    7.17
 -10   7  -5   59.37   14.29
  10   7  -5   77.42    6.34
  10   7   5   64.42    8.91
 -10  -7   5   55.23   11.62
 -10  -7  -5   63.99    7.71
 -10   7  -5   55.85   13.83
  10  -7   5   73.68    6.47
 -10   7   6   60.46   19.03
 -10   7  -6   60.24    7.40
  10   7  -6   64.53    8.25
  10   7   6   57.90    8.29
 -10  -7   6   50.06   17.74
 -10  -7  -6   52.26    5.97
 -10   7  -6   58.55    9.56
  10  -7   6   67.72    6.37
 -10   7   7  130.45   18.79
 -10   7  -7  136.53    7.59
  10   7  -7  131.76   12.95
 -10  -7   7  130.79   24.18
 -10  -7  -7  120.96    8.61
 -10   7  -7  111.01   12.06
  10  -7   7  124.49    9.53
 -10   7   8  135.74   13.68
 -10   7  -8  137.07   11.52
  10   7  -8  150.54   13.75
  10   7   8  127.93    6.17
 -10  -7   8  130.17   14.57
 -10  -7  -8  129.84   27.50
 -10   7  -8  136.69    6.21
  10  -7   8  142.55   12.30
 -10   7   9   28.83   12.47
 -10   7  -9   24.99    9.48
  10   7  -9   29.95    8.73
 -10  -7   9   27.34    6.45
 -10  -7  -9   24.53    8.31
 -10   7  -9   24.55    6.41
  10  -7   9   26.71    6.54
 -10   7  10   18.87    6.83
 -10   7 -10   16.85    3.36
  10   7 -10   21.66    3.77
 -10  -7  10   21.62    4.55
 -10  -7 -10   13.90    3.58
 -10   7 -10   12.96    3.64
  10  -7  10   10.03    4.32
 -10   7  11   68.24    7.08
 -10   7 -11   61.72    5.66
  10   7 -11   57.75   14.84
 -10  -7  11   63.29   16.04
 -10  -7 -11   58.99   15.88
 -10   7 -11   61.47   12.35
  10  -7  11   68.61   15.53
 -10   7  12   25.55    7.74
 -10   7 -12   17.72    5.38
  10   7 -12   23.69    7.87
 -10  -7  12   22.34    6.06
 -10  -7 -12   18.99    5.03
 -10   7 -12   20.43    7.06
  10  -7  12   19.72    3.76
 -10   7  13    6.32    2.89
  10   7 -13    5.55    3.71
 -10  -7  13    5.14    3.66
 -10  -7 -13    7.72    2.21
 -10   7 -13    6.34    2.01
  10  -7  13    6.33    3.15
 -10   7  14   26.05    5.46
  10   7 -14   31.68    4.90
 -10  -7  14   17.71    6.29
 -10  -7 -14   22.63   10.53
 -10   7 -14   29.26    8.64
  10  -7  14   29.58    8.58
  10   7 -15   -1.45    3.03
 -10  -7  15    0.38    2.42
 -10  -7 -15   -3.11    2.98
 -10   7 -15   -1.58    3.12
  10  -7  15    3.58    3.84
 -10   8   0    6.62    2.71
  10   8   0    8.81    3.33
 -10  -8   0    9.53    3.93
 -10   8   1   37.89   12.22
 -10   8  -1   42.90   13.11
  10   8  -1   33.45    7.46
  10   8   1   49.23    6.39
 -10  -8   1   41.63   14.03
 -10  -8  -1   35.12   11.47
 -10   8  -1   40.88    5.26
  10  -8   1   41.14    4.04
 -10   8   2  163.00   21.61
 -10   8  -2  164.35   12.96
  10   8  -2  175.44   15.78
  10   8   2  184.42    7.99
 -10  -8   2  182.43    8.90
 -10  -8  -2  211.09    9.82
 -10   8  -2  164.37    8.38
  10  -8   2  170.90   14.62
 -10   8   3   73.12    7.20
 -10   8  -3   77.55    5.85
  10   8  -3   88.02   11.30
  10   8   3   77.34   16.88
 -10  -8   3   82.92   24.00
 -10  -8  -3   72.43    9.93
 -10   8  -3   74.17    9.72
  10  -8   3   78.05    8.17
 -10   8   4   23.63    6.51
 -10   8  -4   22.22    5.50
  10   8  -4   29.24    4.98
  10   8   4   20.60    5.06
 -10  -8   4   23.48    7.76
 -10  -8  -4   29.47    6.89
 -10   8  -4   21.54    5.36
  10  -8   4   20.46    6.58
 -10   8   5   33.01   10.27
 -10   8  -5   25.37    6.32
  10   8  -5   34.64    6.99
  10   8   5   21.43    6.95
 -10  -8   5   25.28    7.18
 -10  -8  -5   35.92    8.97
 -10   8  -5   20.60    5.83
  10  -8   5   31.84    6.08
 -10   8   6   78.90    8.00
 -10   8  -6  108.60   11.96
  10   8  -6   85.07    9.02
  10   8   6   95.06    6.66
 -10  -8   6  108.47   12.18
 -10  -8  -6   66.35   15.16
 -10   8  -6   99.56   10.70
  10  -8   6   88.92    9.23
 -10   8   7   30.46   10.00
 -10   8  -7   34.97    9.73
  10   8  -7   37.60   11.08
  10   8   7   33.02    9.30
 -10  -8   7   37.53    9.73
 -10  -8  -7   31.81   12.81
 -10   8  -7   32.42   10.72
  10  -8   7   39.23    6.63
 -10   8   8   -0.25    2.32
 -10   8  -8    2.82    1.49
  10   8  -8    3.89    2.46
  10   8   8    0.84    1.63
 -10  -8   8    4.51    3.39
 -10  -8  -8    1.03    1.71
 -10   8  -8    1.98    1.88
  10  -8   8    1.78    1.87
 -10   8   9   56.61   11.93
 -10   8  -9   71.90    5.78
  10   8  -9   52.39   14.72
 -10  -8   9   65.62   18.08
 -10  -8  -9   51.67   13.00
 -10   8  -9   62.82    9.32
  10  -8   9   54.21   13.66
 -10   8  10   69.43    7.51
 -10   8 -10   54.84   14.84
  10   8 -10   67.36    5.78
 -10  -8  10   71.15   16.37
 -10  -8 -10   75.13    8.90
 -10   8 -10   57.96   13.06
  10  -8  10   60.56   20.51
 -10   8  11   14.78    3.59
 -10   8 -11   14.44    3.63
  10   8 -11   15.79    4.28
 -10  -8  11   12.09    6.17
 -10  -8 -11   14.39    3.21
 -10   8 -11   12.31    4.12
  10  -8  11   12.88    6.75
 -10   8  12    2.37    0.94
 -10   8 -12    2.46    1.17
  10   8 -12    0.00    2.77
 -10  -8  12    3.69    2.53
 -10  -8 -12    0.97    2.86
 -10   8 -12    2.24    2.04
  10  -8  12    1.82    2.73
 -10   8  13    5.49    2.94
  10   8 -13    2.68    1.79
 -10  -8  13   -0.44    3.63
 -10  -8 -13    7.54    3.73
 -10   8 -13    1.82    3.11
  10  -8  13    5.78    3.00
  10   8 -14   47.62    8.05
 -10  -8  14   40.58   16.52
 -10  -8 -14   36.27    7.80
 -10   8 -14   36.57   13.79
  10  -8  14   49.32   10.47
 -10   9   0    6.88    3.70
  10   9   0   -1.81    2.86
 -10  -9   0    1.38    3.26
 -10   9   1   88.88   10.49
 -10   9  -1  107.98   13.15
  10   9  -1   95.42   12.07
  10   9   1  102.87    9.97
 -10  -9   1  101.26   13.47
 -10  -9  -1   98.91    6.82
 -10   9   2   80.96    6.53
 -10   9  -2   82.03   10.45
  10   9  -2   91.69   16.59
  10   9   2   95.96   11.48
 -10  -9   2   92.74   13.55
 -10  -9  -2   96.68    7.68
  10  -9   2   94.08   11.18
 -10   9   3  150.51   14.92
 -10   9  -3  156.37   13.14
  10   9  -3  159.38   11.74
  10   9   3  167.70    6.92
 -10  -9   3  158.31   11.70
 -10  -9  -3  162.83   11.34
 -10   9  -3  157.69    5.89
  10  -9   3  172.98   16.83
 -10   9   4   64.27   15.13
 -10   9  -4   71.38   12.89
  10   9  -4   70.79   15.03
  10   9   4   71.05   12.88
 -10  -9   4   59.17   18.12
 -10  -9  -4   87.11    9.79
 -10   9  -4   68.11    4.24
  10  -9   4   76.11    8.08
 -10   9   5    6.00    3.10
 -10   9  -5    6.00    3.21
  10   9  -5    4.51    3.34
  10   9   5    6.33    2.86
 -10  -9   5   14.36    5.33
 -10  -9  -5    3.65    2.30
 -10   9  -5    3.83    1.84
  10  -9   5    5.78    2.99
 -10   9   6   64.21    7.68
 -10   9  -6   65.67    7.20
  10   9  -6   61.41   17.99
  10   9   6   63.42    8.95
 -10  -9   6   64.68   18.58
 -10  -9  -6   62.04   13.86
 -10   9  -6   62.30    4.30
  10  -9   6   61.11   17.51
 -10   9   7    8.07    2.70
 -10   9  -7    4.68    2.29
  10   9  -7    2.81    1.88
  10   9   7    1.69    1.25
 -10  -9   7    6.50    3.01
 -10  -9  -7    4.96    3.02
 -10   9  -7    2.71    2.42
  10  -9   7    3.27    2.80
 -10   9   8   53.19   12.24
 -10   9  -8   52.89   13.75
  10   9  -8   66.17   17.24
 -10  -9   8   65.36   17.24
 -10  -9  -8   45.52   17.67
 -10   9  -8   48.24    6.17
  10  -9   8   56.10    6.09
 -10   9   9   15.19    3.69
 -10   9  -9   23.19    3.55
  10   9  -9   16.13    4.13
 -10  -9   9   18.21    6.37
 -10  -9  -9   15.57    4.43
 -10   9  -9   13.03    5.08
  10  -9   9   28.87    7.18
 -10   9  10   26.33    8.50
 -10   9 -10   23.79    5.20
  10   9 -10   27.73    4.38
 -10  -9  10   24.72    5.82
 -10  -9 -10   22.53    5.91
 -10   9 -10   21.61    7.93
  10  -9  10   21.65    6.48
 -10   9  11   56.45   18.56
 -10   9 -11   67.56    6.60
  10   9 -11   59.11   15.57
 -10  -9  11   63.66   19.46
 -10  -9 -11   58.91   10.45
 -10   9 -11   54.00   14.74
  10  -9  11   70.43   14.15
 -10   9  12    6.76    2.61
 -10   9 -12    7.17    3.34
  10   9 -12    0.57    2.34
 -10  -9  12    5.44    3.73
 -10  -9 -12    1.03    1.86
 -10   9 -12    6.22    2.41
  10  -9  12    6.80    5.17
 -10   9  13   38.66    7.42
  10   9 -13   30.75    4.40
 -10  -9  13   31.43    9.09
 -10  -9 -13   33.77   10.82
 -10   9 -13   34.96    9.91
  10  -9  13   36.50   11.04
 -10  10   0  196.23   14.22
  10  10   0  213.10    9.20
 -10 -10   0  198.03    9.12
 -10  10   1   47.06   15.41
 -10  10  -1   41.39    9.91
  10  10  -1   56.97    5.59
  10  10   1   51.57    6.57
 -10 -10   1   47.85   10.25
 -10 -10  -1   46.93   14.97
 -10  10   2    5.19    2.28
 -10  10  -2    4.14    2.58
  10  10  -2    5.71    2.62
  10  10   2    8.17    2.50
 -10 -10   2    7.03    3.72
 -10 -10  -2   14.91    7.40
  10 -10   2    7.71    2.14
 -10  10   3   48.02   12.76
 -10  10  -3   44.95   12.62
  10  10  -3   50.16    9.67
  10  10   3   37.80   11.55
 -10 -10   3   45.69   12.02
 -10 -10  -3   48.41    6.59
  10 -10   3   52.76   15.66
 -10  10   4   55.40   13.58
 -10  10  -4   47.13   11.44
  10  10  -4   41.92    9.32
  10  10   4   37.22    5.70
 -10 -10   4   51.01    9.87
 -10 -10  -4   52.76   17.53
 -10  10  -4   39.89    7.90
  10 -10   4   42.22   13.34
 -10  10   5   50.12   19.04
 -10  10  -5   42.95    9.88
  10  10  -5   53.86   14.00
  10  10   5   44.74   10.40
 -10 -10   5   42.12   19.68
 -10 -10  -5   44.98   11.52
 -10  10  -5   44.22    6.31
  10 -10   5   46.77    5.18
 -10  10   6    6.21    3.15
 -10  10  -6    7.69    2.30
  10  10  -6    9.30    3.72
  10  10   6    6.35    2.09
 -10 -10   6    6.79    4.23
 -10 -10  -6    7.08    3.74
 -10  10  -6    7.39    3.70
  10 -10   6    8.56    4.59
 -10  10   7   39.89   10.22
 -10  10  -7   52.09   11.54
  10  10  -7   53.10    6.45
  10  10   7   39.57   11.17
 -10 -10   7   50.88   10.11
 -10 -10  -7   44.25   12.78
 -10  10  -7   41.76   14.80
  10 -10   7   46.62   10.45
 -10  10   8   30.70    7.56
 -10  10  -8   21.91    9.02
  10  10  -8   34.45    6.17
 -10 -10   8   18.83    6.43
 -10 -10  -8   23.15    7.56
 -10  10  -8   24.69    8.16
  10 -10   8   27.85    6.59
 -10  10   9   17.81    4.37
 -10  10  -9   13.34    3.30
  10  10  -9   14.23    3.69
 -10 -10   9   13.80    4.43
 -10 -10  -9    7.19    3.82
 -10  10  -9   12.76    6.59
  10 -10   9   18.89    5.43
 -10  10  10    5.60    3.99
 -10  10 -10    4.82    2.38
  10  10 -10    6.10    3.24
 -10 -10  10    5.88    3.23
 -10 -10 -10    9.45    4.86
 -10  10 -10    6.64    3.47
  10 -10  10    9.82    5.95
 -10  10  11   21.31    8.25
 -10  10 -11   22.75    6.03
  10  10 -11   29.69    8.96
 -10 -10  11   35.31    9.22
 -10 -10 -11   24.73    8.86
 -10  10 -11   25.80    9.69
  10 -10  11   30.04    6.83
 -10  10  12   36.56   12.62
 -10  10 -12   39.97   10.77
  10  10 -12   41.41   10.30
 -10 -10  12   43.64   13.39
 -10 -10 -12   30.56    8.74
 -10  10 -12   46.56   14.34
  10 -10  12   34.98   10.10
 -10  11   0   78.90   18.42
  10  11   0   80.46   19.41
 -10 -11   0   80.43   22.92
 -10  11   1    1.93    1.49
 -10  11  -1    1.10    1.83
  10  11  -1   -0.93    2.86
  10  11   1   -1.35    2.21
 -10 -11   1    5.32    2.49
 -10 -11  -1    2.26    2.66
 -10  11   2   33.11    9.73
 -10  11  -2   34.37    6.72
  10  11  -2   42.10   12.03
  10  11   2   38.81    4.57
 -10 -11   2   38.11   13.65
 -10 -11  -2   35.44   10.57
 -10  11   3  131.67   15.19
 -10  11  -3  144.48   13.10
  10  11  -3  164.89   13.22
  10  11   3  162.96    7.61
 -10 -11   3  176.43    9.55
 -10 -11  -3  171.27    9.93
  10 -11   3  150.27   14.86
 -10  11   4   37.53    9.06
 -10  11  -4   37.77    6.98
  10  11  -4   25.31    5.53
  10  11   4   26.16    8.51
 -10 -11   4   26.23    7.89
 -10 -11  -4   33.12    5.34
  10 -11   4   30.99   10.71
 -10  11   5  108.46   19.84
 -10  11  -5  110.61    6.63
  10  11  -5  120.75   12.82
  10  11   5  118.43    6.39
 -10 -11   5  120.61   15.34
 -10 -11  -5  114.63   15.15
  10 -11   5  112.31   10.10
 -10  11   6   11.71    3.61
 -10  11  -6   12.33    3.06
  10  11  -6    7.64    3.70
  10  11   6    8.08    2.82
 -10 -11   6    6.29    4.98
 -10 -11  -6    7.16    2.98
  10 -11   6   17.87    5.35
 -10  11   7   68.93    8.17
 -10  11  -7   68.30   13.42
  10  11  -7   83.19   10.25
  10  11   7   68.34   18.64
 -10 -11   7   69.30   19.09
 -10 -11  -7   83.41    9.78
  10 -11   7   57.22   24.53
 -10  11   8   15.21    4.59
 -10  11  -8   22.20    5.48
  10  11  -8   13.58    2.92
 -10 -11   8    4.78    4.39
 -10 -11  -8    9.65    5.35
  10 -11   8   10.00    4.15
 -10  11   9  117.83    7.40
 -10  11  -9  116.34   21.42
  10  11  -9  140.26   15.63
 -10 -11   9  144.24   16.64
 -10 -11  -9  130.65   17.65
  10 -11   9  118.28    8.31
 -10  11  10   25.72    9.78
 -10  11 -10   28.71    8.34
  10  11 -10   30.20    8.62
 -10 -11  10   21.76   16.48
 -10 -11 -10   26.99    5.15
  10 -11  10   21.74    6.35
 -10  11  11    4.31    2.03
 -10  11 -11    1.58    1.90
  10  11 -11    0.17    1.11
 -10 -11  11    5.35    3.81
 -10 -11 -11    1.96    2.07
  10 -11  11   -1.48    3.91
 -10  12   0    7.71    4.02
  10  12   0   14.00    3.47
 -10 -12   0    8.42    2.72
 -10  12   1   30.93    9.18
 -10  12  -1   28.55    7.79
  10  12  -1   24.67    9.33
  10  12   1   28.77    7.22
 -10 -12   1   35.36    7.49
 -10 -12  -1   26.24    6.56
 -10  12   2   39.34   12.43
 -10  12  -2   48.46   14.55
  10  12  -2   48.68   11.69
  10  12   2   48.34   16.20
 -10 -12   2   59.44   10.30
 -10 -12  -2   44.27   12.73
 -10  12   3    0.48    2.65
 -10  12  -3   -0.28    2.60
  10  12  -3    2.56    1.69
  10  12   3    5.13    3.12
 -10 -12   3    7.17    3.10
 -10 -12  -3   -0.56    2.80
 -10  12   4    5.28    3.00
 -10  12  -4    5.74    2.70
  10  12  -4    7.68    3.23
  10  12   4    5.53    2.84
 -10 -12   4   13.61    3.45
 -10 -12  -4    7.17    2.92
  10 -12   4    9.85    3.61
 -10  12   5    8.89    5.01
 -10  12  -5    5.33    2.79
  10  12  -5   10.94    3.93
  10  12   5   10.19    3.49
 -10 -12   5    9.56    3.07
 -10 -12  -5    7.96    4.32
  10 -12   5    8.99    5.40
 -10  12   6   20.82    8.56
 -10  12  -6   26.63    6.13
  10  12  -6   27.68    4.98
  10  12   6   21.02    7.66
 -10 -12   6   11.15    5.82
 -10 -12  -6   30.65    9.43
  10 -12   6   25.96    5.75
 -10  12   7    1.89    1.87
 -10  12  -7    1.48    1.09
  10  12  -7   -0.13    3.61
 -10 -12   7    3.64    3.27
 -10 -12  -7   -0.98    3.46
  10 -12   7   -0.01    3.83
 -10  12   8    2.95    2.47
 -10  12  -8    4.10    2.49
  10  12  -8    3.77    1.75
 -10 -12   8    2.44    3.82
 -10 -12  -8    1.56    1.70
  10 -12   8   -0.78    3.91
 -10  12   9    2.99    3.03
 -10  12  -9    1.78    1.19
  10  12  -9    3.86    3.05
 -10 -12   9    1.27    1.66
 -10 -12  -9    2.52    2.72
  10 -12   9    1.42    2.07
 -10  12  10   29.33   10.72
 -10  12 -10   32.36    8.26
  10  12 -10   50.31    7.86
 -10 -12  10   34.44   11.43
 -10 -12 -10   32.06    8.84
  10 -12  10   37.56    9.36
 -10  13   0   67.04    7.01
  10  13   0   59.86   14.64
 -10 -13   0   65.60   16.79
 -10  13   1   21.03    6.34
 -10  13  -1   26.62    7.95
  10  13  -1   29.91    8.63
  10  13   1   29.37    7.97
 -10 -13   1   26.82    6.27
 -10 -13  -1   27.50    9.65
 -10  13   2   21.62    6.42
 -10  13  -2   22.37    5.67
  10  13  -2   17.36    5.34
  10  13   2   23.84    6.34
 -10 -13   2   25.16    6.65
 -10 -13  -2   21.33    5.93
 -10  13   3   27.05    7.59
 -10  13  -3   38.25    4.98
  10  13  -3   30.60    6.66
  10  13   3   32.83    7.39
 -10 -13   3   38.75    5.36
 -10 -13  -3   33.96    7.95
 -10  13   4   21.67    4.67
 -10  13  -4   17.47    4.72
  10  13  -4   16.13    5.89
  10  13   4   18.56    5.95
 -10 -13   4   18.67    5.12
 -10 -13  -4   16.41    4.41
 -10  13   5   -2.71    2.66
 -10  13  -5    4.54    3.93
  10  13  -5    2.27    1.98
  10  13   5    2.86    1.01
 -10 -13   5    1.47    3.12
 -10 -13  -5   -0.78    3.51
  10 -13   5   -0.39    2.68
 -10  13   6   14.76    3.81
 -10  13  -6   12.28    3.73
  10  13  -6    7.33    2.75
  10  13   6   11.69    3.43
 -10 -13   6   17.25    5.26
 -10 -13  -6    7.78    4.32
  10 -13   6    4.87    3.90
 -10  13   7   11.83    6.36
 -10  13  -7    4.85    2.30
  10  13  -7    8.43    4.35
 -10 -13   7    8.77    5.17
 -10 -13  -7   12.01    4.86
  10 -13   7    7.71    3.99
 -10  13   8    8.21    2.87
 -10  13  -8    7.80    3.81
  10  13  -8    4.71    3.48
 -10 -13   8   11.59    3.87
 -10 -13  -8    8.32    4.05
  10 -13   8    5.82    3.92
 -10  14   0   41.91   12.41
  10  14   0   41.69   11.47
 -10 -14   0   39.15   10.96
 -10  14   1   10.11    3.82
 -10  14  -1   10.64    2.62
  10  14  -1    5.79    2.98
  10  14   1   10.04    3.79
 -10 -14   1   12.29    5.35
 -10 -14  -1    8.63    4.96
 -10  14   2    4.78    1.96
 -10  14  -2    2.05    4.14
  10  14  -2   12.32    6.46
  10  14   2   10.33    3.60
 -10 -14   2    8.20    3.44
 -10 -14  -2    7.26    4.96
 -10  14   3   16.44    4.21
 -10  14  -3   12.84    4.39
  10  14  -3   21.41    4.50
  10  14   3   12.12    6.67
 -10 -14   3    8.98    4.73
 -10 -14  -3   11.98    3.86
 -10  14   4   27.75    8.82
 -10  14  -4   34.05    9.24
  10  14  -4   35.39    6.99
  10  14   4   28.20    9.76
 -10 -14   4   33.42   16.53
 -10 -14  -4   33.13    5.95
 -10  14   5   20.93    4.82
 -10  14  -5   27.95    9.05
  10  14  -5   36.17    8.00
  10  14   5   28.22    7.92
 -10 -14   5   33.29    7.64
 -10 -14  -5   23.79    7.40
  10 -14   5   30.64   12.91
 -10 -14  -6    4.54    2.07
  10 -14   6    3.12    3.24
 -11   0   0    2.52    1.50
 -11   0   0    1.00    1.58
 -11   0  -1   42.52    6.12
 -11   0   1   41.60    4.89
 -11   0  -1   45.27    4.92
 -11   0  -2  512.26   13.36
  11   0  -2  550.41   14.07
 -11   0   2  542.24   14.47
 -11   0  -2  526.48   15.91
  11   0   2  540.71   11.43
 -11   0  -3    1.13    1.54
  11   0  -3    0.89    1.93
 -11   0   3    7.16    3.14
 -11   0  -3    2.71    2.54
  11   0   3    0.34    0.98
 -11   0  -4   17.04    5.42
  11   0  -4   19.16    4.95
 -11   0   4   19.64    6.85
 -11   0  -4   19.16    6.47
  11   0   4   14.36    3.76
 -11   0  -5   -0.26    1.83
  11   0  -5    2.97    1.85
 -11   0   5    1.72    1.39
 -11   0  -5    3.58    2.51
  11   0   5    2.77    1.66
 -11   0  -6    2.15    1.35
  11   0  -6    2.95    1.73
 -11   0   6    2.03    1.94
 -11   0  -6    2.18    2.57
  11   0   6    0.97    1.45
 -11   0  -7    4.84    3.13
  11   0  -7    4.73    2.26
 -11   0   7    6.96    1.79
 -11   0  -7    5.01    3.29
  11   0   7    5.70    2.32
 -11   0  -8   -0.16    1.63
  11   0  -8   -0.06    2.39
 -11   0   8   -1.00    2.28
 -11   0  -8    1.60    1.48
  11   0   8    0.58    1.08
 -11   0  -9    3.58    1.33
  11   0  -9    2.39    2.47
 -11   0  -9    5.79    4.19
  11   0   9    1.34    1.06
 -11   0 -10   38.01    9.46
  11   0 -10   36.78   12.88
 -11   0  10   36.34   11.84
 -11   0 -10   36.76   11.63
  11   0  10   40.48    6.55
  11   0 -11   59.12   11.02
 -11   0  11   60.73    6.90
 -11   0 -11   54.88   16.28
  11   0  11   62.40   11.96
 -11   0  12    4.60    2.35
 -11   0 -12    7.78    2.87
  11   0  12    5.14    3.19
 -11   0  13    1.20    1.55
 -11   0 -13   -0.55    3.47
  11   0  13    0.49    1.84
 -11   0  14  215.16    8.80
 -11   0 -14  225.23   10.74
  11   0  14  195.84   15.87
 -11   0  15   17.56    5.11
 -11   0 -15   19.37    5.02
  11   0  15   22.33    5.41
 -11   0  16   14.26    4.73
 -11   0 -16    9.78    3.64
  11   0  16   11.11    4.26
 -11   1   0   26.05    6.90
  11   1   0   32.98    3.65
 -11  -1   0   30.12    7.43
 -11   1   0   24.15    8.38
 -11   1   1  242.56   19.26
 -11   1  -1  233.21   12.15
  11   1  -1  228.39    8.17
  11   1   1  241.13    8.35
 -11  -1   1  236.61    8.69
 -11  -1  -1  225.01    8.63
 -11   1   1  213.69    7.13
 -11   1  -1  248.79    8.55
  11  -1   1  237.24    6.12
 -11   1   2  332.00   10.37
 -11   1  -2  324.47   10.22
  11   1  -2  339.81   10.17
  11   1   2  336.89   10.16
 -11  -1   2  330.06   14.54
 -11   1   2  328.82    9.87
 -11  -1  -2  314.74   10.13
 -11   1  -2  336.66   10.34
  11  -1   2  331.83   12.09
 -11  -1  -3   30.43    7.72
 -11   1   3   34.18    6.59
 -11   1  -3   25.90    6.21
  11   1  -3   27.70    3.83
 -11  -1   3   28.93    8.06
 -11   1   3   24.86    8.17
 -11  -1  -3   26.80    3.90
 -11   1  -3   24.26    8.06
  11   1   3   19.64    5.31
  11  -1   3   23.15    7.22
 -11   1   4    3.00    2.14
 -11  -1  -4    1.19    1.84
 -11   1  -4   -0.07    2.21
  11   1  -4    1.81    1.73
 -11  -1   4    0.49    1.42
 -11   1   4    3.09    1.55
 -11  -1  -4    5.11    3.18
 -11   1  -4    1.07    2.86
  11   1   4   -0.21    1.49
  11  -1   4    2.02    1.78
 -11   1   5   37.18   11.66
 -11  -1  -5   41.73    4.25
 -11   1  -5   26.42    6.84
  11   1  -5   35.18    3.92
 -11  -1   5   28.87    3.45
 -11   1   5   40.41    3.67
 -11  -1  -5   37.25   12.05
 -11   1  -5   29.51   10.74
  11   1   5   21.25    5.24
  11  -1   5   27.48    8.16
 -11   1   6  103.36   15.19
 -11  -1  -6   98.53    6.12
 -11   1  -6   92.84    6.01
  11   1  -6   98.62    5.46
 -11  -1   6   92.19    9.17
 -11   1   6   95.88    4.81
 -11  -1  -6  103.45    8.83
 -11   1  -6   97.26   13.27
  11   1   6   81.81   12.67
  11  -1   6   97.40    5.42
 -11   1   7   40.86   10.32
 -11  -1  -7   45.11    3.98
 -11   1  -7   42.83    8.57
  11   1  -7   38.95    4.00
 -11  -1   7   42.00   10.62
 -11   1   7   35.14   10.79
 -11  -1  -7   39.94   10.58
 -11   1  -7   37.34    4.06
  11   1   7   36.24   10.81
  11  -1   7   36.50    7.57
 -11   1   8   19.28    9.41
 -11  -1  -8   19.84    5.40
 -11   1  -8   26.78    6.26
  11   1  -8   18.20    2.96
 -11  -1   8   28.87    9.97
 -11   1   8   17.61    6.89
 -11  -1  -8   24.66    5.78
 -11   1  -8   31.60    4.21
  11   1   8   28.03    6.78
  11  -1   8   24.31    6.41
 -11   1   9    8.82    4.99
 -11  -1  -9    3.93    1.13
 -11   1  -9    7.10    2.74
  11   1  -9    8.49    3.86
 -11  -1   9    8.03    2.12
 -11   1   9    6.74    3.46
 -11  -1  -9    5.38    4.24
 -11   1  -9    7.06    2.39
  11   1   9    6.23    1.55
  11  -1   9    7.30    3.47
 -11   1  10  143.61   17.91
 -11   1 -10  134.70    6.80
  11   1 -10  151.21    7.53
 -11  -1  10  130.42    6.66
 -11   1  10  136.22   10.75
 -11  -1 -10  149.84   10.67
 -11   1 -10  136.14    6.96
  11   1  10  123.81   23.28
  11  -1  10  146.57   11.93
 -11   1  11   49.16   15.87
  11   1 -11   46.02   13.27
 -11  -1  11   49.69   12.98
 -11  -1 -11   40.40   16.59
 -11   1 -11   51.81   13.77
  11   1  11   45.56   12.59
  11  -1  11   42.26    8.31
 -11   1  12   18.93    5.11
  11   1 -12   11.68    5.03
 -11  -1  12   20.34    5.93
 -11  -1 -12   14.31    7.27
 -11   1 -12   20.51    6.99
  11   1  12   19.54    4.97
  11  -1  12   15.68    3.41
 -11   1  13   46.09   16.26
  11   1 -13   43.05   14.70
 -11  -1  13   48.25    8.80
 -11  -1 -13   57.73   19.96
 -11   1 -13   44.35   12.69
  11   1  13   53.84   11.33
  11  -1  13   46.19   13.13
 -11   1  14    5.14    2.55
  11   1 -14    6.86    3.20
 -11  -1 -14    4.39    2.70
 -11   1 -14    7.97    2.66
  11   1  14    5.41    1.61
  11  -1  14    6.26    3.65
 -11   1  15   22.03    7.47
 -11  -1 -15   32.34    8.89
 -11   1 -15   26.38    8.35
  11   1  15   27.63    7.96
  11  -1  15   21.26    6.56
 -11  -1  16   19.61    5.82
 -11  -1 -16   29.86    8.52
 -11   1 -16   24.29    5.59
  11   1  16   23.26    4.69
  11  -1  16   28.26    6.13
 -11   2   0    0.96    1.54
  11   2   0    1.34    2.57
 -11  -2   0    0.57    2.14
 -11   2   0    2.33    2.04
 -11   2   1    2.49    1.57
 -11   2  -1    0.25    1.26
  11   2  -1   -0.95    2.44
  11   2   1    1.32    1.68
 -11  -2   1   -0.59    3.48
 -11  -2  -1    4.29    2.68
 -11   2   1    2.04    1.14
 -11   2  -1    0.55    0.87
  11  -2   1    2.32    1.21
 -11   2   2    5.41    2.28
 -11   2  -2    2.58    1.62
  11   2  -2    3.02    2.80
  11   2   2    2.06    3.30
 -11  -2   2    7.71    3.65
 -11  -2  -2    1.80    2.80
 -11   2   2    4.08    1.93
 -11   2  -2    3.58    2.33
  11  -2   2    3.17    1.67
 -11   2   3  139.85   14.58
 -11   2  -3  133.69   11.00
  11   2  -3  133.81    6.20
  11   2   3  144.87    6.39
 -11  -2   3  134.88    9.76
 -11   2   3  135.10    5.63
 -11  -2  -3  120.57    6.13
 -11   2  -3  133.20    9.98
  11   2   3  146.75    4.25
  11  -2   3  139.07    4.61
 -11   2   4  407.64   12.68
 -11   2  -4  374.80   16.10
  11   2  -4  431.40   13.14
  11   2   4  385.45   13.82
 -11  -2   4  394.97   13.45
 -11   2   4  415.32   10.84
 -11  -2  -4  424.25   12.75
 -11   2  -4  367.15   14.68
  11   2   4  402.57   11.36
  11  -2   4  412.48   10.94
 -11  -2  -5    4.25    2.04
 -11   2   5    1.27    2.12
 -11   2  -5    6.04    1.29
  11   2  -5   -0.58    2.63
 -11  -2   5    5.42    2.22
 -11   2   5    0.59    2.19
 -11  -2  -5    1.80    1.88
 -11   2  -5    7.77    2.10
  11   2   5    8.02    2.39
  11  -2   5    0.47    1.27
 -11  -2  -6   18.47    5.47
 -11   2   6   18.58    3.53
 -11   2  -6   19.46    6.15
  11   2  -6   22.21    6.58
 -11  -2   6   15.83    3.44
 -11   2   6   15.82    5.44
 -11  -2  -6   18.61    5.31
 -11   2  -6   18.80    5.45
  11   2   6   15.18    3.80
  11  -2   6   15.60    3.36
 -11   2   7   10.39    2.46
 -11  -2  -7    9.55    2.17
 -11   2  -7   10.68    2.60
  11   2  -7    9.28    2.70
 -11  -2   7    7.89    2.70
 -11   2   7   10.54    4.14
 -11  -2  -7   15.58    4.86
 -11   2  -7    7.89    2.71
  11   2   7    6.29    1.60
  11  -2   7    9.32    2.22
 -11   2   8  416.71   12.79
 -11  -2  -8  414.20   17.20
 -11   2  -8  414.11   11.10
  11   2  -8  428.81   11.16
 -11  -2   8  422.69   11.95
 -11   2   8  419.73   11.52
 -11  -2  -8  418.64   11.70
 -11   2  -8  390.00   21.04
  11   2   8  435.73   13.01
  11  -2   8  437.04   17.05
 -11   2   9  128.41   13.43
 -11  -2  -9  112.46    9.40
 -11   2  -9  134.26   10.52
  11   2  -9  121.54   11.12
 -11  -2   9  134.21    9.88
 -11  -2  -9  130.56   12.78
 -11   2  -9  125.87    8.67
  11   2   9  127.05   11.62
  11  -2   9  122.87   12.54
 -11   2  10    3.39    1.80
 -11   2 -10    8.19    2.25
  11   2 -10    6.29    3.19
 -11  -2  10    4.76    4.12
 -11  -2 -10    5.83    3.58
 -11   2 -10    6.71    3.96
  11   2  10    4.95    2.78
  11  -2  10    2.40    1.20
 -11   2  11   26.43    5.45
  11   2 -11   29.95    4.20
 -11  -2  11   32.26    8.08
 -11  -2 -11   24.92    8.39
 -11   2 -11   32.79   10.40
  11   2  11   28.05    6.60
  11  -2  11   33.17    6.72
 -11   2  12   19.66    6.92
  11   2 -12   19.39    4.13
 -11  -2  12   21.22    5.78
 -11  -2 -12   17.99    6.76
 -11   2 -12   20.28    5.81
  11   2  12   21.87    5.63
  11  -2  12   25.98    4.49
 -11   2  13    2.27    1.49
  11   2 -13   -2.35    2.53
 -11  -2 -13   -1.16    3.14
 -11   2 -13   -1.84    2.64
  11   2  13    2.01    2.30
  11  -2  13    1.86    1.83
 -11   2  14    1.13    1.87
  11   2 -14   -0.40    1.81
 -11  -2  14    4.00    2.24
 -11  -2 -14    1.85    2.19
 -11   2 -14    2.32    1.82
  11   2  14   -0.60    2.59
  11  -2  14    0.33    1.94
 -11   2  15   -0.85    2.17
  11   2 -15   -2.82    2.68
 -11  -2  15    1.05    1.65
 -11  -2 -15    1.66    2.09
 -11   2 -15   -0.26    2.90
  11   2  15    3.92    2.49
  11  -2  15   -0.07    3.02
  11   2 -16   19.80    6.89
 -11  -2 -16   23.78    5.83
 -11   2 -16   25.27    8.53
  11   2  16   27.51   10.94
  11  -2  16   23.79    6.86
 -11   3   0  277.09   16.84
  11   3   0  286.62    9.39
 -11  -3   0  292.42   10.34
 -11   3   0  287.30    9.82
 -11   3   1   23.23    5.94
 -11   3  -1   23.53    5.77
  11   3  -1   29.19    7.09
  11   3   1   28.25    8.42
 -11  -3   1   28.02    9.31
 -11  -3  -1   32.25   11.22
 -11   3   1   21.77    6.24
 -11   3  -1   24.79    8.70
  11  -3   1   20.53    6.09
 -11   3   2   26.17    8.25
 -11   3  -2   31.85    6.69
  11   3  -2   28.98    8.06
  11   3   2   36.17   11.39
 -11  -3   2   35.20   10.03
 -11  -3  -2   37.52   10.14
 -11   3   2   29.65    8.25
 -11   3  -2   25.81    9.10
  11  -3   2   27.25    6.67
 -11   3   3  112.73   18.44
 -11   3  -3  121.09    6.40
  11   3  -3  107.12   10.34
  11   3   3  117.08    5.78
 -11  -3   3  120.18    7.72
 -11  -3  -3  104.54    9.18
 -11   3   3  109.63    5.21
 -11   3  -3  112.76   10.63
  11   3   3  120.95    4.23
  11  -3   3  117.27    5.53
 -11   3   4  213.64   10.78
 -11   3  -4  217.82   18.64
  11   3  -4  222.35    9.80
  11   3   4  198.80    7.51
 -11  -3   4  226.95    9.23
 -11   3   4  205.39    6.90
 -11  -3  -4  215.69    8.64
 -11   3  -4  214.62    7.93
  11   3   4  218.23    8.22
  11  -3   4  220.80   13.90
 -11   3   5   60.22   16.36
 -11   3  -5   61.86    4.39
  11   3  -5   60.75   13.68
  11   3   5   58.33   12.38
 -11  -3   5   58.37   13.25
 -11   3   5   57.05    3.43
 -11  -3  -5   61.02    7.95
 -11   3  -5   56.69    9.79
  11   3   5   54.99    4.70
  11  -3   5   57.90    6.17
 -11   3   6   23.79    6.45
 -11   3  -6   28.62    7.31
  11   3  -6   25.39    7.97
  11   3   6   21.34    7.16
 -11   3   6   19.98    8.08
 -11  -3  -6   23.82    6.29
 -11   3  -6   24.25    8.85
  11   3   6   19.26    5.81
  11  -3   6   23.95    4.29
 -11  -3  -7   42.38    9.66
 -11   3   7   38.25   10.95
 -11   3  -7   48.72   10.07
  11   3  -7   39.58    8.14
 -11  -3   7   47.81   12.05
 -11   3   7   34.48    4.28
 -11  -3  -7   41.21   13.10
 -11   3  -7   50.51    9.77
  11   3   7   41.09   11.06
  11  -3   7   33.73    7.27
 -11  -3  -8  131.64   12.32
 -11   3   8  141.01   19.88
 -11   3  -8  143.87   10.73
  11   3  -8  130.93    8.71
 -11  -3   8  131.06    6.50
 -11  -3  -8  142.40    7.57
 -11   3  -8  139.18    6.95
  11   3   8  137.06   11.64
  11  -3   8  137.67   19.54
 -11  -3  -9   80.27    8.67
 -11   3   9   91.93    6.48
 -11   3  -9   79.60    6.56
  11   3  -9   97.93   17.07
 -11  -3   9   85.53    9.17
 -11  -3  -9   89.18    7.83
 -11   3  -9   78.81    8.95
  11   3   9   80.47    4.90
  11  -3   9   92.00   17.47
 -11   3  10    8.32    2.43
 -11   3 -10    5.72    2.14
  11   3 -10    3.86    1.64
 -11  -3  10    7.83    3.28
 -11  -3 -10    9.68    3.20
 -11   3 -10    4.07    3.15
  11   3  10    2.88    2.15
  11  -3  10    8.12    3.12
 -11   3  11   28.64    8.95
 -11   3 -11   26.49    6.63
  11   3 -11   28.87    6.05
 -11  -3  11   34.51   12.57
 -11  -3 -11   30.27    8.80
 -11   3 -11   30.55    9.92
  11   3  11   29.96    8.01
  11  -3  11   31.82    5.42
 -11   3  12  161.08    8.06
  11   3 -12  159.22   15.63
 -11  -3  12  156.51   14.30
 -11  -3 -12  156.38   11.30
 -11   3 -12  159.44    8.57
  11   3  12  137.36    8.62
  11  -3  12  166.29   20.86
 -11   3  13    6.58    3.18
  11   3 -13    6.74    2.62
 -11  -3  13    6.15    3.59
 -11  -3 -13    5.77    2.75
 -11   3 -13   12.30    4.45
  11   3  13   11.27    3.04
  11  -3  13    6.80    4.45
 -11   3  14    3.93    2.03
  11   3 -14    8.23    2.92
 -11  -3  14    4.50    2.02
 -11  -3 -14    8.00    3.20
 -11   3 -14    5.91    3.83
  11   3  14    6.72    2.95
  11  -3  14    9.53    5.07
 -11   3  15    4.70    2.23
  11   3 -15   11.33    3.31
 -11  -3  15    5.80    2.63
 -11  -3 -15    6.59    3.41
 -11   3 -15   15.92    4.96
  11   3  15    3.25    2.09
  11  -3  15    6.16    4.68
  11   3 -16   11.62    4.00
 -11  -3  16    9.75    3.62
 -11  -3 -16   17.19    5.01
 -11   3 -16    9.26    4.45
 -11   4   0   38.98    9.87
  11   4   0   42.96    4.41
 -11  -4   0   39.20   12.39
 -11   4   0   41.85    3.17
 -11   4   1  312.97   16.25
 -11   4  -1  317.81   10.11
  11   4  -1  312.39   10.55
  11   4   1  312.88   10.51
 -11  -4   1  297.47   10.66
 -11  -4  -1  297.92   17.81
 -11   4   1  307.45    8.79
 -11   4  -1  319.50    9.14
  11  -4   1  312.01    9.26
 -11   4   2  167.45   13.40
 -11   4  -2  171.41   12.43
  11   4  -2  162.81   11.66
  11   4   2  187.82    8.33
 -11  -4   2  179.09    8.36
 -11  -4  -2  164.06   10.67
 -11   4   2  161.93    6.04
 -11   4  -2  171.31    6.38
  11  -4   2  174.47    6.66
 -11   4   3  306.59   12.33
 -11   4  -3  298.54   21.78
  11   4  -3  312.84   15.82
  11   4   3  293.68    9.26
 -11  -4   3  315.42   14.56
 -11  -4  -3  296.73   19.48
 -11   4   3  311.41    9.27
 -11   4  -3  313.75    9.97
  11  -4   3  330.36   15.69
 -11   4   4    5.23    2.54
 -11   4  -4    8.52    1.76
  11   4  -4    7.98    4.68
  11   4   4    1.88    1.72
 -11  -4   4    7.38    1.95
 -11  -4  -4    5.52    2.80
 -11   4   4    6.97    2.62
 -11   4  -4    3.30    3.37
  11  -4   4    6.19    2.88
 -11   4   5  150.31   15.71
 -11   4  -5  143.18   11.85
  11   4  -5  148.96    7.36
  11   4   5  137.07    5.72
 -11  -4   5  142.14    8.68
 -11   4   5  150.52    4.75
 -11  -4  -5  140.99   12.51
 -11   4  -5  133.06    9.62
  11  -4   5  143.78    7.73
 -11   4   6   25.01    6.73
 -11   4  -6   32.56    7.98
  11   4  -6   28.25    7.21
  11   4   6   32.36    9.42
 -11  -4   6   36.11   11.40
 -11  -4  -6   29.05    9.10
 -11   4  -6   28.79   10.80
  11  -4   6   28.01    8.40
 -11   4   7    6.65    2.11
 -11   4  -7    9.68    3.62
  11   4  -7   13.57    3.77
  11   4   7   11.26    2.15
 -11  -4   7   11.34    4.04
 -11  -4  -7    4.46    2.94
 -11   4  -7    8.51    3.88
  11  -4   7    7.55    2.63
 -11  -4  -8   34.39    5.91
 -11   4   8   41.69   10.75
 -11   4  -8   33.47    7.32
  11   4  -8   35.40    9.76
 -11  -4   8   34.54    8.27
 -11  -4  -8   36.46    9.24
 -11   4  -8   29.10    8.37
  11  -4   8   31.48    7.10
 -11  -4  -9  110.71    7.19
 -11   4   9  117.11   19.92
 -11   4  -9  126.11   12.01
  11   4  -9  108.89    8.47
 -11  -4   9  122.38    7.02
 -11  -4  -9  111.63   17.03
 -11   4  -9  114.96    6.75
  11  -4   9  103.45   17.72
 -11   4  10  109.62    8.73
 -11   4 -10   97.24    9.17
  11   4 -10  115.77   11.01
 -11  -4  10  118.34   18.80
 -11  -4 -10  101.52   10.96
 -11   4 -10  106.50    6.61
  11   4  10  113.46    9.16
  11  -4  10   99.37   22.72
 -11   4  11   65.93   18.54
 -11   4 -11   72.73   13.15
  11   4 -11   67.08   19.50
 -11  -4  11   80.66   10.84
 -11  -4 -11   71.43   20.67
 -11   4 -11   77.18   12.81
  11   4  11   71.10   17.37
  11  -4  11   78.97   16.73
 -11   4  12   25.01    7.96
  11   4 -12   28.23    6.51
 -11  -4  12   32.27   10.98
 -11  -4 -12   33.01    9.65
 -11   4 -12   32.25   11.27
  11   4  12   32.29    8.98
  11  -4  12   35.12    7.32
 -11   4  13   95.74   17.60
  11   4 -13  110.78   12.41
 -11  -4  13  105.59   20.73
 -11  -4 -13   87.07    7.86
 -11   4 -13  119.29    7.75
  11   4  13  115.51   10.57
  11  -4  13  107.98   12.71
 -11   4  14   27.14    9.47
  11   4 -14   37.41    7.10
 -11  -4  14   34.15   11.06
 -11  -4 -14   33.20    6.44
 -11   4 -14   35.61   14.11
  11   4  14   32.02    6.98
  11  -4  14   37.36    9.56
 -11   4  15   55.60   20.35
  11   4 -15   68.48   15.52
 -11  -4  15   64.47   21.93
 -11  -4 -15   62.20   16.76
 -11   4 -15   57.52   21.02
  11   4  15   52.66   11.94
  11  -4  15   68.22   17.29
 -11   5   0   48.16    4.73
  11   5   0   54.58   13.09
 -11  -5   0   46.54    5.49
 -11   5   0   53.81    3.41
 -11   5   1   86.23   16.48
 -11   5  -1   98.53    7.73
  11   5  -1   87.56    8.57
  11   5   1   98.75    5.45
 -11  -5   1  108.57   16.02
 -11  -5  -1   93.19    6.55
 -11   5   1   84.05    3.81
 -11   5  -1   97.29    6.90
  11  -5   1   88.24    6.71
 -11   5   2   34.65    8.90
 -11   5  -2   35.84   10.85
  11   5  -2   30.75   11.02
  11   5   2   35.77   10.91
 -11  -5   2   39.89   13.42
 -11  -5  -2   38.21   10.63
 -11   5   2   32.13    6.73
 -11   5  -2   35.56    8.12
  11  -5   2   36.36    4.66
 -11   5   3   64.76   17.31
 -11   5  -3   81.02    7.13
  11   5  -3   76.82    8.42
  11   5   3   85.93    5.86
 -11  -5   3   82.64    7.16
 -11  -5  -3   68.06    8.10
 -11   5   3   76.68    4.07
 -11   5  -3   75.35    4.29
  11  -5   3   64.98   14.41
 -11   5   4   16.76    3.91
 -11   5  -4   15.17    3.95
  11   5  -4   14.79    2.89
  11   5   4   13.15    4.66
 -11  -5   4   10.44    3.63
 -11  -5  -4   11.98    4.42
 -11   5  -4    8.35    3.16
  11  -5   4   15.94    3.36
 -11   5   5   -1.69    2.48
 -11   5  -5    0.35    1.64
  11   5  -5    1.11    1.91
  11   5   5    0.80    1.43
 -11  -5   5   -2.51    3.35
 -11  -5  -5    0.63    2.16
 -11   5  -5    1.20    1.15
  11  -5   5    1.98    2.15
 -11   5   6   96.94   17.36
 -11   5  -6  107.71   14.03
  11   5  -6  107.88   13.39
  11   5   6  101.31    5.29
 -11  -5   6  100.03   10.99
 -11  -5  -6  107.50   16.78
 -11   5  -6   92.12    9.67
  11  -5   6  107.27   14.01
 -11   5   7   26.46    6.58
 -11   5  -7   22.06    4.25
  11   5  -7   27.04    6.42
 -11  -5   7   16.81    6.82
 -11  -5  -7   22.96    5.38
 -11   5  -7   19.22    3.93
  11  -5   7   25.82    6.50
 -11   5   8    2.37    2.01
 -11   5  -8    2.70    1.79
  11   5  -8    3.60    3.06
  11   5   8    3.96    3.73
 -11  -5   8    1.62    1.99
 -11  -5  -8    0.87    1.58
 -11   5  -8    3.12    2.04
  11  -5   8    3.33    2.60
 -11   5   9   81.80   14.18
 -11   5  -9   69.88   11.67
  11   5  -9   79.44    6.05
 -11  -5   9   77.46   20.40
 -11  -5  -9   80.00   13.67
 -11   5  -9   72.86    8.52
  11  -5   9   81.69    6.91
 -11   5  10   92.62   22.58
 -11   5 -10  101.24   19.65
  11   5 -10   94.81   18.69
 -11  -5  10   95.61   26.09
 -11  -5 -10   88.42   23.02
 -11   5 -10   90.19    8.89
  11  -5  10   92.37   17.79
 -11   5  11   29.83    7.89
 -11   5 -11   28.17    7.40
  11   5 -11   26.72    7.68
 -11  -5  11   30.08    8.60
 -11  -5 -11   29.83    6.11
 -11   5 -11   32.69    8.04
  11  -5  11   31.22    7.34
 -11   5  12   49.25   13.52
  11   5 -12   45.84   12.55
 -11  -5  12   35.38    7.02
 -11  -5 -12   48.35    7.44
 -11   5 -12   39.63    5.08
  11  -5  12   41.83    7.06
 -11   5  13   25.80    8.44
  11   5 -13   31.35    5.30
 -11  -5  13   31.97    8.32
 -11  -5 -13   34.79   11.80
 -11   5 -13   27.35   11.21
  11  -5  13   32.10    5.60
 -11   5  14    1.88    1.37
  11   5 -14    4.02    2.24
 -11  -5  14    2.95    2.89
 -11  -5 -14    2.96    2.54
 -11   5 -14    0.77    2.83
  11   5  14    4.06    2.97
  11  -5  14    2.72    3.65
  11   5 -15   13.76    7.01
 -11  -5  15   15.09    4.44
 -11  -5 -15   18.68    4.51
 -11   5 -15   20.61    8.01
  11   5  15   17.62    5.50
  11  -5  15   19.13    4.86
 -11   6   0    0.32    3.01
  11   6   0    3.42    3.23
 -11  -6   0    2.40    2.22
 -11   6   0    0.53    0.92
 -11   6   1   18.11    4.07
 -11   6  -1    9.79    2.90
  11   6  -1   15.56    5.50
  11   6   1   12.18    3.03
 -11  -6   1   14.30   14.32
 -11  -6  -1   16.30    3.15
 -11   6   1   12.28    4.39
 -11   6  -1   10.32    3.94
  11  -6   1   14.32    3.30
 -11   6   2   14.33    3.72
 -11   6  -2   18.76    3.54
  11   6  -2   12.20    3.22
  11   6   2   15.76    5.21
 -11  -6   2   21.42    4.61
 -11  -6  -2   16.17    4.78
 -11   6  -2   14.63    5.67
  11  -6   2   15.73    2.80
 -11   6   3   46.36   12.32
 -11   6  -3   36.45    7.59
  11   6  -3   49.38   17.71
  11   6   3   36.62   10.69
 -11  -6   3   37.76    9.96
 -11  -6  -3   50.45   10.89
 -11   6  -3   40.11    8.13
  11  -6   3   52.09    4.65
 -11   6   4    8.21    2.92
 -11   6  -4    6.21    3.33
  11   6  -4    6.96    4.35
  11   6   4    6.91    2.36
 -11  -6   4   -0.52    2.80
 -11  -6  -4    7.88    4.55
 -11   6  -4    6.59    1.76
  11  -6   4    3.11    2.39
 -11   6   5  161.97   14.15
 -11   6  -5  181.40   19.93
  11   6  -5  173.64   13.23
  11   6   5  192.66    8.62
 -11  -6   5  185.20    8.50
 -11  -6  -5  165.07   10.79
 -11   6  -5  182.72    7.36
  11  -6   5  167.70   15.66
 -11   6   6   15.65    6.13
 -11   6  -6   21.19    5.64
  11   6  -6   18.59    5.87
  11   6   6   19.39    6.65
 -11  -6   6   19.81    4.38
 -11  -6  -6   19.90    5.10
 -11   6  -6   18.02    6.62
  11  -6   6   17.46    4.33
 -11   6   7  364.79   11.86
 -11   6  -7  367.27   25.02
  11   6  -7  425.65   13.73
  11   6   7  394.95   10.59
 -11  -6   7  365.19   23.07
 -11  -6  -7  396.39   11.76
 -11   6  -7  379.20   11.33
  11  -6   7  378.11   10.95
 -11   6   8    2.77    2.48
 -11   6  -8   -0.42    2.02
  11   6  -8    3.53    2.76
  11   6   8    1.21    1.71
 -11  -6   8    6.39    2.51
 -11  -6  -8   -1.60    2.72
 -11   6  -8    1.69    2.91
  11  -6   8    1.36    1.50
 -11   6   9   67.95    8.09
 -11   6  -9   60.45   10.62
  11   6  -9   73.72    8.22
 -11  -6   9   56.28   17.64
 -11  -6  -9   59.17   16.97
 -11   6  -9   58.94   17.18
  11  -6   9   75.28    8.16
 -11   6  10   25.00    6.28
 -11   6 -10   22.41    5.73
  11   6 -10   28.07    6.45
 -11  -6  10   20.17    6.38
 -11  -6 -10   22.12    7.45
 -11   6 -10   22.88    6.54
  11  -6  10   24.64    7.14
 -11   6  11   14.93    4.61
 -11   6 -11   19.21    6.02
  11   6 -11   17.70    3.64
 -11  -6  11   16.62    3.16
 -11  -6 -11   22.13    5.50
 -11   6 -11   16.03    4.48
  11  -6  11   24.25    4.38
 -11   6  12    2.41    2.34
  11   6 -12    2.29    2.96
 -11  -6  12    2.97    1.65
 -11  -6 -12    1.51    1.83
 -11   6 -12    0.97    1.70
  11  -6  12    4.61    2.92
 -11   6  13    0.19    1.07
  11   6 -13    1.07    2.35
 -11  -6  13    2.58    2.70
 -11  -6 -13   -0.63    2.84
 -11   6 -13    3.05    1.57
  11  -6  13   -0.80    2.53
 -11   6  14    1.18    1.48
  11   6 -14   -0.03    2.50
 -11  -6  14    1.17    2.66
 -11  -6 -14    0.51    2.22
 -11   6 -14   -0.98    3.21
  11  -6  14    3.10    2.84
 -11   7   0   56.87   13.15
  11   7   0   55.35    5.15
 -11  -7   0   59.00    7.26
 -11   7   0   53.83    3.56
 -11   7   1  132.21    8.24
 -11   7  -1  123.55   20.00
  11   7  -1  143.83   12.25
  11   7   1  133.05   12.33
 -11  -7   1  129.00   21.89
 -11  -7  -1  130.87   18.97
 -11   7  -1  123.06    4.98
  11  -7   1  141.18    7.13
 -11   7  -2   27.58   14.83
  11   7  -2   22.54    5.39
  11   7   2   26.76    5.54
 -11  -7   2   26.53    8.08
 -11  -7  -2   17.09    4.77
 -11   7   3  128.95    7.28
 -11   7  -3  144.94   17.18
  11   7  -3  143.29   17.88
  11   7   3  149.83    7.44
 -11  -7   3  121.35   11.12
 -11  -7  -3  134.43    7.62
  11  -7   3  130.99    8.56
 -11   7   4   11.82    3.90
 -11   7  -4    2.63    2.69
  11   7  -4   17.44    5.36
  11   7   4    8.66    2.58
 -11  -7   4    6.01    2.81
 -11  -7  -4    7.72    4.00
 -11   7  -4    4.17    2.74
  11  -7   4   11.13    2.88
 -11   7   5    5.45    3.40
 -11   7  -5    4.79    1.95
  11   7  -5    6.77    3.33
  11   7   5    4.79    2.32
 -11  -7   5    8.13    2.99
 -11  -7  -5    6.19    2.83
 -11   7  -5    4.77    1.24
  11  -7   5    6.63    4.48
 -11   7   6  116.31   16.01
 -11   7  -6  105.12    7.80
  11   7  -6   99.37    7.61
  11   7   6  104.77    6.38
 -11  -7   6  112.04    7.67
 -11  -7  -6   94.24    8.44
 -11   7  -6  108.07    5.82
  11  -7   6  106.08    9.88
 -11   7   7   27.08    4.42
 -11   7  -7   25.87    8.19
  11   7  -7   27.79    6.72
  11   7   7   26.00    9.05
 -11  -7   7   25.62    7.10
 -11  -7  -7   23.44    5.57
 -11   7  -7   19.10    8.51
  11  -7   7   23.10    6.57
 -11   7   8   13.57    5.27
 -11   7  -8   11.18    2.74
  11   7  -8   13.24    3.90
  11   7   8   10.04    3.28
 -11  -7   8   10.48    5.38
 -11  -7  -8   15.14    6.14
 -11   7  -8    3.41    2.18
  11  -7   8   14.61    3.62
 -11   7   9   40.67   12.66
 -11   7  -9   38.10   11.79
  11   7  -9   43.01    8.39
 -11  -7   9   43.92   11.33
 -11  -7  -9   42.35   11.85
 -11   7  -9   37.56   11.41
  11  -7   9   43.33   10.15
 -11   7  10   38.81    9.70
 -11   7 -10   37.10   11.47
  11   7 -10   40.37   11.56
 -11  -7  10   35.95    6.24
 -11  -7 -10   36.97   11.08
 -11   7 -10   34.96    8.88
  11  -7  10   28.84    9.36
 -11   7  11   16.96    4.94
 -11   7 -11   16.98    5.23
  11   7 -11   20.20    5.62
 -11  -7  11   20.60    4.55
 -11  -7 -11   12.66    4.07
 -11   7 -11   15.15    4.03
  11  -7  11   17.22    4.63
 -11   7  12    6.28    1.95
  11   7 -12    9.12    3.99
 -11  -7  12    5.78    2.96
 -11  -7 -12   15.44    3.62
 -11   7 -12    7.66    3.07
  11  -7  12    5.22    4.85
 -11   7  13   35.10   10.71
  11   7 -13   36.32    5.03
 -11  -7  13   30.21    7.37
 -11  -7 -13   37.63    5.92
 -11   7 -13   30.60   12.01
  11  -7  13   31.46   10.23
 -11   7  14    9.69    3.76
  11   7 -14   10.21    4.40
 -11  -7  14    7.20    4.15
 -11  -7 -14    7.30    2.36
 -11   7 -14    3.26    2.23
  11  -7  14    5.40    4.31
 -11   8   0   82.57    9.56
  11   8   0   75.81   13.00
 -11  -8   0   73.80   19.35
 -11   8   1  138.88   20.08
 -11   8  -1  119.42    7.93
  11   8  -1  154.90   17.63
  11   8   1  133.55    7.49
 -11  -8   1  124.69   13.57
 -11  -8  -1  160.36    9.36
 -11   8   2   40.40   14.64
 -11   8  -2   49.94   13.86
  11   8  -2   47.74   12.44
  11   8   2   46.62   14.08
 -11  -8   2   58.17   15.18
 -11  -8  -2   41.18    5.63
 -11   8  -2   52.90    5.26
  11  -8   2   41.10    4.29
 -11   8   3  119.64    8.60
 -11   8  -3  118.87   12.58
  11   8  -3  151.47   16.19
  11   8   3  136.13    6.73
 -11  -8   3  119.36   15.63
 -11  -8  -3  146.71    8.21
 -11   8  -3  121.61    7.61
  11  -8   3  136.23   14.15
 -11   8   4    9.14    2.34
 -11   8  -4   17.88    4.33
  11   8  -4   11.61    2.64
  11   8   4   16.45    4.57
 -11  -8   4   16.10    4.51
 -11  -8  -4   17.15    3.67
 -11   8  -4   15.21    5.03
  11  -8   4    8.11    5.27
 -11   8   5   12.10    2.90
 -11   8  -5    2.30    2.13
  11   8  -5    7.05    3.38
  11   8   5    6.44    2.76
 -11  -8   5    3.48    2.95
 -11  -8  -5    3.15    2.41
 -11   8  -5    3.55    2.18
  11  -8   5    6.57    2.85
 -11   8   6    5.79    2.81
 -11   8  -6   10.39    2.87
  11   8  -6    6.13    2.87
  11   8   6    5.39    2.43
 -11  -8   6    2.69    3.38
 -11  -8  -6    3.84    2.56
 -11   8  -6    3.79    1.98
  11  -8   6    5.72    3.06
 -11   8   7    2.90    2.37
 -11   8  -7    1.05    1.39
  11   8  -7    0.84    2.02
  11   8   7    0.34    1.04
 -11  -8   7    3.98    3.33
 -11  -8  -7    0.01    3.15
 -11   8  -7    3.71    2.41
  11  -8   7    7.01    4.41
 -11   8   8    4.80    2.38
 -11   8  -8    6.21    3.25
  11   8  -8    3.63    1.99
 -11  -8   8    3.20    2.54
 -11  -8  -8    2.34    2.51
 -11   8  -8    3.76    2.52
  11  -8   8    3.97    4.78
 -11   8   9   46.02   12.29
 -11   8  -9   45.59    9.13
  11   8  -9   43.72    5.55
 -11  -8   9   42.65   15.53
 -11  -8  -9   44.11   13.44
 -11   8  -9   37.16   11.83
  11  -8   9   43.07    6.51
 -11   8  10   12.73    3.80
 -11   8 -10   16.01    5.12
  11   8 -10   10.88    3.29
 -11  -8  10   10.62    3.70
 -11  -8 -10   12.68    3.66
 -11   8 -10    7.38    3.05
  11  -8  10    7.12    3.01
 -11   8  11   68.27   15.03
 -11   8 -11   46.87    9.72
  11   8 -11   70.84    6.94
 -11  -8  11   66.60   23.60
 -11  -8 -11   46.28   18.98
 -11   8 -11   46.65   19.68
  11  -8  11   49.86   14.78
 -11   8  12   37.43    9.03
  11   8 -12   47.96    9.74
 -11  -8  12   30.85    7.54
 -11  -8 -12   32.65    6.27
 -11   8 -12   29.09    9.78
  11  -8  12   32.13    9.65
 -11   8  13   28.10   10.84
  11   8 -13   42.43   11.77
 -11  -8  13   36.43   10.46
 -11  -8 -13   37.53    8.69
 -11   8 -13   31.54   13.96
  11  -8  13   39.95    7.61
 -11   9   0  101.93   11.94
  11   9   0  134.59   12.04
 -11  -9   0  117.91   12.96
 -11   9   1   10.87    4.73
 -11   9  -1    9.49    3.06
  11   9  -1    2.15    2.82
  11   9   1    6.00    3.17
 -11  -9   1    8.23    5.41
 -11  -9  -1    3.55    2.74
 -11   9   2   20.92    5.04
 -11   9  -2   12.50    5.95
  11   9  -2   16.64    4.50
  11   9   2   17.79    4.43
 -11  -9   2   16.46    4.53
 -11  -9  -2   14.97    3.95
  11  -9   2   12.83    3.77
 -11   9   3   73.89   18.51
 -11   9  -3   79.06   16.86
  11   9  -3   93.13    8.34
  11   9   3   90.76   16.42
 -11  -9   3  101.93   10.38
 -11  -9  -3   86.31   12.84
  11  -9   3   90.86   10.92
 -11   9   4   43.24   10.23
 -11   9  -4   46.08    9.09
  11   9  -4   43.15   12.36
  11   9   4   39.66    9.38
 -11  -9   4   48.10   15.59
 -11  -9  -4   43.41   13.11
 -11   9  -4   34.98    6.62
  11  -9   4   36.21    9.94
 -11   9   5   64.30   15.95
 -11   9  -5   70.37    6.10
  11   9  -5   69.80   13.77
  11   9   5   57.03   15.06
 -11  -9   5   59.56   17.05
 -11  -9  -5   64.80    8.35
 -11   9  -5   59.67    6.93
  11  -9   5   49.31   13.23
 -11   9   6    9.66    3.84
 -11   9  -6   11.21    2.45
  11   9  -6    1.85    3.88
  11   9   6   15.87    3.45
 -11  -9   6    5.19    2.51
 -11  -9  -6    8.41    4.94
 -11   9  -6    8.57    2.44
  11  -9   6   10.49    3.71
 -11   9   7   38.86    9.92
 -11   9  -7   33.26    8.74
  11   9  -7   42.96   11.16
  11   9   7   34.78   12.18
 -11  -9   7   38.29   12.61
 -11  -9  -7   40.00   12.13
 -11   9  -7   43.49    6.67
  11  -9   7   45.24    5.71
 -11   9   8    1.31    1.87
 -11   9  -8    2.41    1.94
  11   9  -8   -1.25    2.77
 -11  -9   8    1.59    2.29
 -11  -9  -8    3.15    2.16
 -11   9  -8    0.87    2.24
  11  -9   8    5.24    2.54
 -11   9   9   46.33   15.84
 -11   9  -9   46.35    6.44
  11   9  -9   49.43    8.97
 -11  -9   9   52.85   15.85
 -11  -9  -9   44.51   11.74
 -11   9  -9   41.83   13.67
  11  -9   9   39.52    5.24
 -11   9  10    2.11    2.81
 -11   9 -10    2.10    1.32
  11   9 -10   -1.90    3.06
 -11  -9  10    2.79    2.53
 -11  -9 -10    2.72    1.97
 -11   9 -10    1.66    2.79
  11  -9  10   -0.57    3.39
 -11   9  11    3.38    1.60
 -11   9 -11    8.46    4.01
  11   9 -11    4.80    3.10
 -11  -9  11    8.80    4.43
 -11  -9 -11    4.52    2.62
 -11   9 -11    4.09    2.82
  11  -9  11   11.02    4.74
 -11   9  12   29.82    8.84
 -11   9 -12   29.40    9.62
  11   9 -12   31.48    9.26
 -11  -9  12   34.48    7.13
 -11  -9 -12   25.64    8.29
 -11   9 -12   27.71   12.47
  11  -9  12   28.88    5.23
 -11  10   0    5.92    3.35
  11  10   0    1.49    1.54
 -11 -10   0    5.43    2.21
 -11  10   1   14.85    8.06
 -11  10  -1   18.20    5.04
  11  10  -1   24.69    7.38
  11  10   1   24.43    4.92
 -11 -10   1   23.34    5.90
 -11 -10  -1   22.58    9.23
 -11  10   2   17.95    4.92
 -11  10  -2   13.95    3.81
  11  10  -2   17.65    5.53
  11  10   2   17.23    4.76
 -11 -10   2   18.07    5.30
 -11 -10  -2   13.44    3.30
 -11  10   3   29.98    7.97
 -11  10  -3   31.52    6.94
  11  10  -3   27.02    5.81
  11  10   3   18.14    5.03
 -11 -10   3   24.79    7.04
 -11 -10  -3   21.67    6.88
  11 -10   3   22.85    8.93
 -11  10   4  215.16   15.81
 -11  10  -4  226.29    9.92
  11  10  -4  259.95   11.86
  11  10   4  246.28   10.23
 -11 -10   4  237.70   20.39
 -11 -10  -4  219.24   20.50
  11 -10   4  227.47    9.18
 -11  10   5   38.12    7.96
 -11  10  -5   33.47   10.32
  11  10  -5   41.39    5.76
  11  10   5   28.00    7.37
 -11 -10   5   29.57    7.09
 -11 -10  -5   34.56    8.78
 -11  10  -5   23.65    8.17
  11 -10   5   47.16    6.22
 -11  10   6   43.61   12.22
 -11  10  -6   33.27    9.57
  11  10  -6   34.77    7.68
  11  10   6   37.78   11.52
 -11 -10   6   41.11   13.55
 -11 -10  -6   38.56   11.13
 -11  10  -6   28.21   11.14
  11 -10   6   38.95   10.12
 -11  10   7   43.77    9.05
 -11  10  -7   31.17    8.23
  11  10  -7   41.02    9.57
  11  10   7   29.89    9.74
 -11 -10   7   33.15    5.65
 -11 -10  -7   27.86    4.67
  11 -10   7   25.34    9.31
 -11  10   8  162.87    7.74
 -11  10  -8  138.50   26.57
  11  10  -8  195.74   32.11
 -11 -10   8  182.03   10.77
 -11 -10  -8  154.89   13.16
 -11  10  -8  139.87   15.22
  11 -10   8  150.14   19.86
 -11  10   9   46.18   15.64
 -11  10  -9   39.84   16.88
  11  10  -9   49.64   14.37
 -11 -10   9   49.22   18.20
 -11 -10  -9   40.12   13.61
 -11  10  -9   37.13   13.31
  11 -10   9   40.90   13.70
 -11  10  10   14.78    3.98
 -11  10 -10   13.91    2.73
  11  10 -10   11.35    4.69
 -11 -10  10   12.33    5.59
 -11 -10 -10    9.27    6.03
 -11  10 -10   13.42    4.65
  11 -10  10   22.10    5.22
 -11  10  11    7.59    3.10
 -11  10 -11    7.24    3.89
  11  10 -11   14.77    4.75
 -11 -10  11    6.16    5.58
 -11 -10 -11    5.19    2.53
 -11  10 -11    8.61    3.18
  11 -10  11    5.14    4.18
 -11  11   0   49.40   13.20
  11  11   0   42.27   10.76
 -11 -11   0   48.42   12.51
 -11  11   1   37.35    9.65
 -11  11  -1   43.63    9.94
  11  11  -1   36.49    6.56
  11  11   1   37.49   12.51
 -11 -11   1   50.20    6.22
 -11 -11  -1   38.73   10.63
 -11  11   2   44.49   10.13
 -11  11  -2   37.03    9.58
  11  11  -2   56.20   13.32
  11  11   2   40.23    4.85
 -11 -11   2   52.18    8.39
 -11 -11  -2   48.60    9.54
 -11  11   3   -0.16    2.90
 -11  11  -3    2.30    1.33
  11  11  -3    1.81    1.95
  11  11   3    4.83    1.93
 -11 -11   3    6.44    4.15
 -11 -11  -3    3.93    3.74
  11 -11   3    1.81    0.87
 -11  11   4    3.40    3.00
 -11  11  -4    1.24    1.56
  11  11  -4    2.78    2.70
  11  11   4    2.02    2.11
 -11 -11   4    0.07    3.80
 -11 -11  -4    2.82    3.51
  11 -11   4    2.49    3.57
 -11  11   5    8.52    2.90
 -11  11  -5   14.54    3.35
  11  11  -5   17.20    4.17
  11  11   5   15.69    4.82
 -11 -11   5   25.03    5.66
 -11 -11  -5   12.39    4.55
  11 -11   5    6.35    3.25
 -11  11   6   14.23    5.61
 -11  11  -6   16.79    5.31
  11  11  -6   14.74    3.45
  11  11   6   17.48    4.16
 -11 -11   6   19.11    4.76
 -11 -11  -6   17.73    4.82
  11 -11   6   15.97    4.66
 -11  11   7    4.14    2.35
 -11  11  -7    3.86    2.18
  11  11  -7    5.35    3.44
 -11 -11   7    6.83    2.59
 -11 -11  -7    2.41    1.82
  11 -11   7    3.38    1.78
 -11  11   8    4.06    1.69
 -11  11  -8    2.29    2.27
  11  11  -8    1.74    3.09
 -11 -11   8    1.72    2.96
 -11 -11  -8   -0.46    3.26
 -11  11  -8    2.24    2.28
  11 -11   8    5.23    3.52
 -11  11   9    9.90    5.71
 -11  11  -9    8.38    2.60
  11  11  -9    7.09    2.65
 -11 -11   9    6.89    4.13
 -11 -11  -9   16.22    4.29
 -11  11  -9   12.08    3.93
  11 -11   9    7.54    4.77
 -11  11 -10   27.34    5.90
  11  11 -10   28.05    4.73
 -11 -11  10   25.62    7.85
 -11 -11 -10   26.36    5.12
  11 -11  10   34.42    6.78
 -11  12   0   22.36    8.60
  11  12   0   29.10    4.64
 -11 -12   0   29.78    6.01
 -11  12   1   13.62    3.36
 -11  12  -1   10.17    4.85
  11  12  -1    5.84    3.17
  11  12   1    6.74    2.83
 -11 -12   1    5.62    3.37
 -11 -12  -1    7.98    5.24
 -11  12   2  144.49    9.66
 -11  12  -2  133.00   15.15
  11  12  -2  147.73   23.43
  11  12   2  142.51   12.26
 -11 -12   2  146.62   18.03
 -11 -12  -2  154.13   13.07
 -11  12   3    8.36    3.88
 -11  12  -3    5.58    2.76
  11  12  -3    5.70    3.47
  11  12   3    2.91    2.65
 -11 -12   3    5.28    2.57
 -11 -12  -3    2.38    2.00
 -11  12   4    1.97    1.70
 -11  12  -4   -1.27    2.82
  11  12  -4    0.98    3.34
  11  12   4    1.46    1.54
 -11 -12   4    4.23    3.53
 -11 -12  -4   -2.86    3.05
  11 -12   4    3.81    1.57
 -11  12   5   18.09    4.35
 -11  12  -5   13.14    4.93
  11  12  -5   11.05    3.64
  11  12   5   13.19    4.50
 -11 -12   5   14.30    4.07
 -11 -12  -5   21.12    5.67
  11 -12   5    8.51    4.15
 -11  12   6    3.97    1.92
 -11  12  -6    6.35    2.43
  11  12  -6    2.40    3.11
  11  12   6    3.28    1.80
 -11 -12   6    2.16    4.09
 -11 -12  -6    3.84    2.97
  11 -12   6    4.34    3.34
 -11  12   7    0.80    1.55
 -11  12  -7    0.00    2.02
  11  12  -7   -0.72    3.26
 -11 -12   7    1.05    2.32
 -11 -12  -7    3.24    1.45
  11 -12   7   -3.41    3.07
 -11  12   8    0.75    3.78
 -11  12  -8    2.69    1.90
  11  12  -8    1.58    2.40
 -11 -12   8   -1.86    4.02
 -11 -12  -8    5.51    3.63
  11 -12   8    2.72    3.43
 -11  13   0   17.97    4.89
  11  13   0   15.86    3.66
 -11 -13   0   12.56    4.93
 -11  13   1   22.68    6.57
 -11  13  -1   27.33    7.13
  11  13  -1   32.22    5.18
  11  13   1   29.31    7.65
 -11 -13   1   24.19    4.54
 -11 -13  -1   25.94    6.18
 -11  13   2    9.96    3.63
 -11  13  -2    9.34    4.83
  11  13  -2   10.04    4.17
  11  13   2   10.51    4.71
 -11 -13   2   15.63    3.86
 -11 -13  -2   17.39    4.70
 -11  13   3   22.85    6.35
 -11  13  -3   15.45    5.29
  11  13  -3   23.65    5.30
  11  13   3   23.52    5.47
 -11 -13   3   26.27    7.16
 -11 -13  -3   21.62    6.10
 -11  13   4   16.09    4.97
 -11  13  -4   18.15    4.50
  11  13  -4   23.43    5.36
  11  13   4    9.27    2.52
 -11 -13   4    9.51    4.45
 -11 -13  -4   17.28    5.18
 -11  13   5    9.37    4.97
 -11  13  -5   10.00    3.71
  11  13  -5   10.34    3.87
  11  13   5    9.22    3.13
 -11 -13   5   11.39    8.59
 -11 -13  -5    8.37    3.69
  11 -13   5   10.86    3.85
 -11  13   6   24.49    7.83
 -11  13  -6   27.74    4.76
  11  13  -6   27.00    6.28
  11  13   6   26.94    8.66
 -11 -13   6   28.11   11.38
 -11 -13  -6   28.20    6.21
  11 -13   6   20.80    7.08
 -11  14   0    0.06    1.32
  11  14   0    2.36    3.04
 -11 -14   0    5.09    3.47
 -11  14   1    1.31    1.81
 -11  14  -1    0.64    2.33
  11  14  -1   -0.61    1.58
  11  14   1   12.37    8.79
 -11 -14   1    6.75    2.60
 -11 -14  -1   -0.57    3.50
 -11  14   2    4.90    3.46
 -11  14  -2   -1.63    3.11
  11  14  -2    5.05    2.65
  11  14   2    2.38    3.11
 -11 -14   2    2.85    3.05
 -11 -14  -2    4.18    3.02
 -12   0   0  332.00   10.79
 -12   0   0  331.53   10.51
 -12   0   1   26.83    6.60
 -12   0  -1   23.19    4.27
 -12   0   1   21.40    7.09
 -12   0  -1   30.02    6.84
 -12   0   2  123.06   15.81
 -12   0  -2  114.01   11.20
 -12   0   2  109.59    5.92
 -12   0  -2  107.32    6.08
 -12   0  -3   37.83    9.15
 -12   0   3   36.59   10.98
 -12   0  -3   36.79   11.13
 -12   0  -4   97.64   11.86
 -12   0   4   83.65   11.64
 -12   0  -4   87.26    7.54
 -12   0  -5   93.97    7.22
  12   0  -5  111.24   14.43
 -12   0   5  103.81    5.54
 -12   0  -5  100.03    7.49
  12   0   5   97.45   11.69
 -12   0  -6   88.93    6.73
  12   0  -6   86.77   18.68
 -12   0   6   84.08    5.06
 -12   0  -6   89.60    7.15
  12   0   6   88.70    6.46
 -12   0  -7   98.33    7.41
  12   0  -7   87.87    6.64
 -12   0   7   91.55    5.39
 -12   0  -7   89.16   11.66
  12   0   7   96.34    6.99
 -12   0  -8   59.45   11.00
  12   0  -8   59.61    6.88
 -12   0   8   65.62    9.48
 -12   0  -8   58.70   15.14
  12   0   8   65.11    6.02
 -12   0  -9   48.58    9.76
 -12   0   9   49.93   13.89
 -12   0  -9   38.89   15.03
  12   0   9   39.54   15.32
 -12   0  10   86.14    5.12
 -12   0 -10   83.73    6.73
  12   0  10   81.36   15.02
 -12   0  11   43.06   10.75
 -12   0 -11   41.32   13.40
  12   0  11   42.94   11.47
 -12   0  12   15.18    5.20
 -12   0 -12   24.21    5.01
  12   0  12   24.08    5.69
 -12   0  13    5.70    3.95
 -12   0 -13    7.53    3.23
  12   0  13    8.09    2.67
 -12   0  14    1.95    1.84
 -12   0 -14   -2.16    2.93
  12   0  14   -0.48    3.05
 -12   0  15    3.29    2.02
 -12   0 -15    6.58    3.54
  12   0  15    3.92    2.86
 -12   1   0    3.13    1.68
  12   1   0   -0.31    1.80
 -12  -1   0    1.73    2.10
 -12   1   0    1.60    1.85
 -12   1   1   27.29    7.59
 -12   1  -1   36.91    6.24
  12   1  -1   40.18   11.83
 -12  -1   1   38.50   13.29
 -12  -1  -1   30.67    9.21
 -12   1   1   31.30   10.26
 -12   1  -1   34.50   11.31
 -12  -1  -2   16.86    4.27
 -12   1   2   11.27    3.45
 -12   1  -2   17.06    4.74
  12   1  -2   10.66    3.39
 -12  -1   2   16.54    4.01
 -12   1   2   13.57    2.67
 -12  -1  -2   14.46    5.13
 -12   1  -2   16.80    6.29
 -12  -1  -3  255.07   13.29
 -12   1   3  255.65   18.95
 -12   1  -3  261.88    8.86
  12   1  -3  262.20    8.72
 -12  -1   3  273.20    9.51
 -12   1   3  254.05    7.50
 -12  -1  -3  269.48   10.36
 -12   1   4    8.21    4.10
 -12  -1  -4    7.80    2.14
 -12   1  -4   11.97    2.86
  12   1  -4   15.54    4.63
 -12  -1   4   11.79    3.26
 -12   1   4   10.37    3.92
 -12  -1  -4    9.73    3.09
 -12   1  -4   11.80    4.91
  12  -1   4   12.93    3.07
 -12   1   5   24.47    8.18
 -12  -1  -5   24.06    8.86
 -12   1  -5   27.74    6.28
  12   1  -5   27.14    5.95
 -12  -1   5   19.58    5.97
 -12   1   5   23.72    8.60
 -12  -1  -5   22.76    7.14
 -12   1  -5   24.95    7.20
  12   1   5   18.79    4.57
  12  -1   5   22.56    4.69
 -12   1   6    2.23    2.27
 -12  -1  -6    1.10    0.91
 -12   1  -6    2.19    1.88
  12   1  -6    1.05    1.35
 -12  -1   6    2.24    1.66
 -12   1   6    1.21    1.12
 -12  -1  -6    2.61    2.47
 -12   1  -6    3.35    1.97
  12   1   6    4.76    2.20
  12  -1   6    1.54    1.58
 -12   1   7   42.12   11.05
 -12  -1  -7   45.05    9.31
 -12   1  -7   63.95    6.13
  12   1  -7   47.02    5.38
 -12  -1   7   58.10   16.36
 -12   1   7   38.38    6.48
 -12  -1  -7   45.09   16.07
 -12   1  -7   64.50    5.54
  12   1   7   65.73    4.60
  12  -1   7   42.39    9.93
 -12   1   8    6.45    3.24
 -12  -1  -8    9.35    1.93
 -12   1  -8    8.85    2.23
  12   1  -8   14.69    3.09
 -12  -1   8   10.12    3.67
 -12   1   8    7.78    3.29
 -12   1  -8    7.00    3.71
  12   1   8    9.82    3.36
  12  -1   8   10.62    2.53
 -12   1   9  186.96    9.08
 -12  -1  -9  193.25   11.36
 -12   1  -9  195.87    7.24
  12   1  -9  182.82   11.70
 -12  -1   9  185.42    7.40
 -12   1   9  181.92    7.86
 -12  -1  -9  185.91    8.39
 -12   1  -9  204.23    9.19
  12   1   9  212.77   16.20
  12  -1   9  197.54   21.79
 -12   1  10    3.20    1.67
 -12   1 -10    3.78    1.78
  12   1 -10    3.62    2.73
 -12  -1  10    4.01    1.59
 -12  -1 -10    1.60    1.71
 -12   1 -10    1.50    1.77
  12   1  10    3.09    1.73
  12  -1  10    2.91    1.64
 -12   1  11   10.81    3.22
  12   1 -11    2.49    1.86
 -12  -1  11   10.27    2.86
 -12  -1 -11    5.46    2.34
 -12   1 -11    8.94    2.85
  12   1  11    7.31    1.99
  12  -1  11    4.83    2.19
 -12   1  12    5.99    2.70
  12   1 -12    4.95    4.09
 -12  -1  12    1.14    1.48
 -12  -1 -12    3.36    2.44
 -12   1 -12    4.90    3.08
  12   1  12    2.76    1.96
  12  -1  12    1.17    1.44
 -12   1  13   34.35   13.24
  12   1 -13   30.69    7.48
 -12  -1 -13   34.21   11.46
 -12   1 -13   32.74   11.54
  12   1  13   36.72    9.90
  12  -1  13   39.73    8.83
 -12   1  14    4.33    2.36
 -12  -1 -14    7.41    3.30
 -12   1 -14   10.90    5.78
  12   1  14   11.36    2.51
  12  -1  14    6.51    4.37
 -12  -1  15   39.16   13.27
 -12   1  15   36.83   11.81
 -12  -1 -15   44.60   16.02
 -12   1 -15   41.21   14.70
  12   1  15   41.53   10.09
  12  -1  15   43.71   10.95
 -12   2   0  246.90   17.12
  12   2   0  245.21    8.24
 -12  -2   0  240.17    8.84
 -12   2   0  242.84    9.98
 -12   2   1  196.53    7.23
 -12   2  -1  222.61   18.22
  12   2  -1  217.17    8.68
  12   2   1  215.99    7.52
 -12  -2   1  221.16   11.06
 -12  -2  -1  186.85   11.86
 -12   2   1  195.07    7.09
 -12   2  -1  218.23    8.10
 -12   2   2   49.39    9.98
 -12   2  -2   58.73    4.80
  12   2  -2   53.64    4.81
  12   2   2   55.10    4.47
 -12  -2   2   59.68   11.87
 -12  -2  -2   55.53    7.38
 -12   2   2   49.68    3.64
 -12   2  -2   54.49    5.33
 -12   2   3   10.61    4.51
 -12   2  -3   19.69    5.44
  12   2  -3   15.03    4.38
 -12   2   3   16.55    8.88
 -12  -2  -3   19.16    5.68
 -12   2  -3   17.17    6.00
  12  -2   3   16.47    5.89
 -12  -2  -4   90.45    8.48
 -12   2   4   92.60   10.86
 -12   2  -4   96.47    9.04
  12   2  -4  100.53    6.12
 -12  -2   4   99.66    5.91
 -12   2   4   91.50    4.76
 -12  -2  -4   98.42   15.35
  12  -2   4   90.19    5.39
 -12  -2  -5  137.38   11.29
 -12   2   5  124.60   12.74
 -12   2  -5  135.27    6.15
  12   2  -5  125.18    6.88
 -12  -2   5  140.28    6.61
 -12   2   5  123.63    5.81
 -12  -2  -5  128.19   11.45
 -12   2  -5  131.92   11.13
  12  -2   5  129.28    7.16
 -12  -2  -6   51.39   11.58
 -12   2   6   43.76   13.52
 -12   2  -6   56.09    4.78
  12   2  -6   58.59    4.67
 -12  -2   6   43.96   14.25
 -12   2   6   56.68    5.34
 -12  -2  -6   53.24   19.58
 -12   2  -6   52.93    5.76
  12   2   6   47.20    3.87
  12  -2   6   48.96    9.65
 -12   2   7   50.97   13.50
 -12  -2  -7   47.55   12.36
 -12   2  -7   46.67    8.71
  12   2  -7   55.71    5.38
 -12  -2   7   40.39   11.86
 -12   2   7   57.08    7.25
 -12  -2  -7   50.86   14.37
 -12   2  -7   47.44   13.80
  12   2   7   43.90    3.36
  12  -2   7   48.09   11.84
 -12   2   8   18.85    4.71
 -12  -2  -8   16.07    3.43
 -12   2  -8   17.22    4.80
  12   2  -8   18.22    4.27
 -12  -2   8   14.55    4.03
 -12  -2  -8   10.99    4.28
 -12   2  -8   16.60    4.50
  12   2   8   15.82    3.89
  12  -2   8   16.25    3.58
 -12   2   9    1.25    1.89
 -12  -2  -9    2.65    2.07
 -12   2  -9    2.27    1.18
  12   2  -9   -0.16    2.60
 -12  -2   9    5.35    3.46
 -12  -2  -9    1.51    2.74
 -12   2  -9    1.75    2.09
  12   2   9    3.85    2.15
  12  -2   9    3.29    1.80
 -12   2  10   23.51    7.70
 -12   2 -10   25.57    6.74
  12   2 -10   31.86    4.29
 -12  -2  10   29.10    8.51
 -12  -2 -10   25.52    5.62
 -12   2 -10   25.76    8.42
  12   2  10   25.64    4.51
  12  -2  10   30.14    7.49
 -12   2  11   59.55    6.63
  12   2 -11   69.24    9.77
 -12  -2  11   60.27   18.37
 -12  -2 -11   63.63   18.34
 -12   2 -11   62.71   17.97
  12   2  11   52.60   10.30
  12  -2  11   68.17   11.69
 -12   2  12   33.64   12.61
  12   2 -12   48.87    5.91
 -12  -2 -12   43.23   14.57
 -12   2 -12   31.50    7.98
  12   2  12   27.10    4.73
  12  -2  12   33.62   10.04
 -12   2  13   31.84    8.46
  12   2 -13   39.81    7.43
 -12  -2  13   38.24   10.86
 -12  -2 -13   34.16    6.70
 -12   2 -13   36.73   13.22
  12   2  13   38.69    9.19
  12  -2  13   41.79    7.99
 -12   2  14    4.86    2.37
  12   2 -14   13.40    3.69
 -12  -2 -14    6.60    4.53
 -12   2 -14    8.19    3.06
  12   2  14    8.03    4.27
  12  -2  14    2.79    3.53
 -12   2  15    0.81    1.33
  12   2 -15    4.81    2.18
 -12  -2 -15    2.29    2.39
 -12   2 -15    2.81    1.86
  12   2  15    3.49    3.27
  12  -2  15    1.97    2.71
 -12   3   0  134.34   10.34
  12   3   0  148.01    8.81
 -12  -3   0  138.35    6.82
 -12   3   0  141.94    5.74
 -12   3   1   54.60   11.70
 -12   3  -1   67.61    5.19
  12   3  -1   63.27   12.21
  12   3   1   64.91    4.89
 -12  -3   1   69.93    5.70
 -12  -3  -1   63.42    7.72
 -12   3   1   56.00    8.47
 -12   3  -1   61.05    6.20
 -12   3   2   69.77   16.60
 -12   3  -2   71.83    6.05
  12   3  -2   77.75   11.95
  12   3   2   74.81    5.45
 -12  -3   2   74.46    5.77
 -12  -3  -2   76.39   16.08
 -12   3   2   72.91   11.29
 -12   3  -2   75.73   11.90
 -12   3   3  321.85   11.18
 -12   3  -3  306.59    9.24
  12   3  -3  336.02   10.64
 -12  -3   3  315.15   10.21
 -12  -3  -3  321.08    9.92
 -12   3   3  318.03    8.70
 -12   3  -3  304.34   12.44
  12  -3   3  309.98    9.65
 -12   3   4   29.15    7.00
 -12   3  -4   23.32    5.75
  12   3  -4   31.98    8.44
  12   3   4   20.59    3.68
 -12  -3   4   17.60    6.73
 -12   3   4   28.09    6.65
 -12  -3  -4   24.01    7.00
 -12   3  -4   21.88    3.44
  12  -3   4   25.38    3.14
 -12   3   5   18.53    6.45
 -12   3  -5   10.15    4.13
  12   3  -5   16.45    4.79
  12   3   5   12.27    3.86
 -12  -3   5   13.14    3.24
 -12   3   5   16.54    5.93
 -12  -3  -5   19.67    5.61
 -12   3  -5   15.22    4.63
  12  -3   5   12.70    3.94
 -12  -3  -6   91.30   18.34
 -12   3   6   91.84    7.17
 -12   3  -6   94.76   17.61
  12   3  -6  109.64   14.13
 -12  -3   6   98.40   13.01
 -12  -3  -6  104.03    8.52
 -12   3  -6   94.12    8.40
  12   3   6   93.68    9.18
  12  -3   6  106.80    5.87
 -12  -3  -7    4.84    1.50
 -12   3   7    5.19    2.74
 -12   3  -7    7.06    2.84
  12   3  -7    3.12    2.45
 -12  -3   7    5.89    2.71
 -12  -3  -7    8.93    3.74
 -12   3  -7    5.33    2.50
  12   3   7    3.44    1.49
  12  -3   7    5.81    2.06
 -12  -3  -8   81.77    7.16
 -12   3   8   70.38   19.48
 -12   3  -8   77.74    5.51
  12   3  -8   77.08   16.64
 -12  -3   8   70.10    6.92
 -12  -3  -8   81.70   20.47
 -12   3  -8   76.91   15.05
  12   3   8   58.08   11.42
  12  -3   8   78.14   15.12
 -12   3   9  165.49    7.81
 -12   3  -9  176.20   11.90
  12   3  -9  180.10   23.28
 -12  -3   9  187.64    8.71
 -12  -3  -9  165.59    9.08
 -12   3  -9  168.57   15.03
  12   3   9  188.23    8.23
  12  -3   9  149.77   26.42
 -12   3  10   18.06    4.99
 -12   3 -10   15.30    2.94
  12   3 -10   19.39    4.26
 -12  -3  10   15.92    4.08
 -12  -3 -10   18.83    9.16
 -12   3 -10   18.37    4.04
  12   3  10   12.15    3.11
  12  -3  10   18.48    3.87
 -12   3  11    3.41    2.79
  12   3 -11    5.00    2.09
 -12  -3  11    7.40    4.19
 -12  -3 -11    7.04    3.91
 -12   3 -11   12.81    5.28
  12   3  11    5.89    3.58
  12  -3  11    5.88    3.20
 -12   3  12   30.65   10.65
  12   3 -12   35.12    5.99
 -12  -3  12   44.42   14.97
 -12  -3 -12   32.48   11.23
 -12   3 -12   33.59    6.94
  12   3  12   39.45   10.34
  12  -3  12   33.84    6.96
 -12   3  13   31.12   12.51
  12   3 -13   48.28    6.28
 -12  -3  13   38.46   11.58
 -12  -3 -13   34.34   13.26
 -12   3 -13   31.07   12.48
  12   3  13   38.82   11.02
  12  -3  13   39.19    7.87
 -12   3  14   22.42    8.08
  12   3 -14   34.55    5.41
 -12  -3  14   30.48   11.43
 -12  -3 -14   33.44    6.13
 -12   3 -14   29.56   13.67
  12   3  14   27.59    7.72
  12  -3  14   30.52    8.86
 -12   4   0   22.92    9.52
  12   4   0   27.52    3.92
 -12  -4   0   29.10    7.35
 -12   4   0   24.25    3.20
 -12   4   1   39.93    9.58
 -12   4  -1   39.36   10.74
  12   4  -1   43.17   11.83
  12   4   1   40.46   12.98
 -12  -4   1   41.94   12.28
 -12  -4  -1   44.14   12.70
 -12   4   1   47.59    6.58
 -12   4  -1   39.88    5.57
 -12   4   2   27.12    8.94
 -12   4  -2   34.19    9.76
  12   4  -2   30.98    5.56
  12   4   2   36.48   10.81
 -12  -4   2   36.28   11.12
 -12  -4  -2   21.14    7.24
 -12   4   2   30.16    9.63
 -12   4  -2   30.43    3.31
  12  -4   2   33.38    3.35
 -12   4   3    4.11    1.91
 -12   4  -3    5.30    2.63
  12   4  -3    6.89    3.75
  12   4   3    6.82    3.46
 -12  -4   3    3.05    3.52
 -12  -4  -3    6.62    5.16
 -12   4   3    2.70    1.14
 -12   4  -3    4.53    1.58
  12  -4   3    5.43    1.50
 -12   4   4   70.36   17.51
 -12   4  -4   71.68   16.46
  12   4  -4   77.59    8.57
  12   4   4   89.52    5.35
 -12  -4   4   88.29   10.12
 -12  -4  -4   80.00   10.95
 -12   4   4   72.33    4.41
 -12   4  -4   74.86    4.68
  12  -4   4   75.45    4.66
 -12   4   5   46.24   10.53
 -12   4  -5   52.89   13.15
  12   4  -5   47.44    9.75
  12   4   5   46.78   15.08
 -12  -4   5   50.00   14.73
 -12  -4  -5   67.96   14.49
 -12   4  -5   49.65    6.19
  12  -4   5   45.68    3.82
 -12   4   6   64.61   16.27
 -12   4  -6   77.11    4.94
  12   4  -6   63.55   13.91
  12   4   6   64.06    4.29
 -12  -4   6   65.03   17.75
 -12  -4  -6   60.85   10.91
 -12   4  -6   59.92   11.71
  12  -4   6   62.56    6.82
 -12   4   7   26.11    8.24
 -12   4  -7   24.47    5.36
  12   4  -7   22.71    5.91
 -12  -4   7   22.43    6.02
 -12  -4  -7   31.07    5.76
 -12   4  -7   24.10    5.34
  12   4   7   19.14    5.22
  12  -4   7   23.82    4.96
 -12  -4  -8   51.37    3.86
 -12   4   8   54.04   16.34
 -12   4  -8   49.54   12.77
  12   4  -8   53.45    6.80
 -12  -4   8   60.33   16.26
 -12  -4  -8   48.09   15.98
 -12   4  -8   46.50   17.13
  12   4   8   41.79   11.16
  12  -4   8   51.77   11.62
 -12   4   9   23.97    6.56
 -12   4  -9   24.56    4.21
  12   4  -9   24.69    7.96
 -12  -4   9   27.22    6.44
 -12  -4  -9   28.47    5.48
 -12   4  -9   22.79    7.65
  12   4   9   20.06    7.18
  12  -4   9   22.36    5.18
 -12   4  10   42.20   12.99
 -12   4 -10   39.50    8.86
  12   4 -10   43.18   13.89
 -12  -4  10   44.40   11.20
 -12  -4 -10   44.39   14.90
 -12   4 -10   42.99    9.44
  12   4  10   36.19    7.11
  12  -4  10   48.06   12.14
 -12   4  11   73.12    6.71
  12   4 -11   58.93   14.01
 -12  -4  11   81.41    9.35
 -12  -4 -11   68.58   22.78
 -12   4 -11   63.56   20.08
  12   4  11   57.40   12.07
  12  -4  11   66.23   11.64
 -12   4  12    5.98    3.24
  12   4 -12    7.46    3.07
 -12  -4  12    7.92    3.57
 -12  -4 -12    6.29    3.78
 -12   4 -12    8.95    3.67
  12   4  12    2.35    1.83
  12  -4  12    6.29    2.15
 -12   4  13    3.60    1.94
  12   4 -13    5.62    3.13
 -12  -4  13    4.34    3.25
 -12  -4 -13    1.85    2.10
 -12   4 -13    1.38    1.21
  12   4  13    1.30    2.85
  12  -4  13   -0.86    3.13
 -12   4  14   21.37    9.03
  12   4 -14   20.46    6.20
 -12  -4  14   21.35    6.00
 -12  -4 -14   18.68    4.45
 -12   4 -14   21.36    5.24
  12   4  14   17.72    4.43
  12  -4  14   28.53    6.19
 -12   5   0  103.63   14.48
  12   5   0   87.96    6.30
 -12  -5   0  104.60    6.69
 -12   5   0   89.71    9.11
 -12   5   1    4.46    2.37
 -12   5  -1   13.50    3.22
  12   5  -1    8.51    3.01
  12   5   1    9.26    2.92
 -12  -5   1    8.28    2.01
 -12  -5  -1    5.83    4.53
 -12   5   1    5.33    2.05
 -12   5  -1    9.25    2.97
  12  -5   1   11.69    3.71
 -12   5   2   61.73   13.81
 -12   5  -2   50.36   12.57
  12   5  -2   68.11    9.00
  12   5   2   63.83    9.99
 -12  -5   2   57.63   14.84
 -12  -5  -2   66.89    5.83
 -12   5   2   59.01    5.88
 -12   5  -2   57.03    4.03
  12  -5   2   63.26    5.34
 -12   5   3    4.28    2.72
 -12   5  -3    3.61    2.14
  12   5  -3    1.15    1.89
  12   5   3    0.39    1.41
 -12  -5   3   -0.97    3.31
 -12  -5  -3    1.77    3.09
 -12   5  -3    0.28    0.67
  12  -5   3    0.76    0.99
 -12   5   4   39.48    9.74
 -12   5  -4   66.77    6.32
  12   5  -4   46.93    9.22
  12   5   4   56.36   15.90
 -12  -5   4   63.61    9.36
 -12  -5  -4   52.61   14.65
 -12   5  -4   60.54   12.65
  12  -5   4   47.18   13.29
 -12   5   5   36.94   11.19
 -12   5  -5   38.24    7.43
  12   5  -5   45.75   11.22
  12   5   5   36.30    7.21
 -12  -5   5   40.44   13.58
 -12  -5  -5   40.17   12.41
 -12   5  -5   35.86   12.12
  12  -5   5   37.36    7.35
 -12   5   6  120.94   13.26
 -12   5  -6  112.00    7.70
  12   5  -6  117.19    8.17
  12   5   6  111.04    6.08
 -12  -5   6  110.76   12.89
 -12  -5  -6  120.45   19.33
 -12   5  -6  114.65    5.89
  12  -5   6  106.16    8.19
 -12   5   7   34.05   12.13
 -12   5  -7   34.71    9.32
  12   5  -7   32.76    8.30
  12   5   7   26.24    9.02
 -12  -5   7   37.53   10.94
 -12  -5  -7   34.91    8.17
 -12   5  -7   19.99   10.58
  12  -5   7   27.59    7.35
 -12   5   8   83.55   21.11
 -12   5  -8   93.39    7.38
  12   5  -8   99.31   15.05
  12   5   8   77.98    9.69
 -12  -5   8   97.49    8.73
 -12  -5  -8   99.28    7.41
 -12   5  -8   86.75   10.54
  12  -5   8   90.30    6.44
 -12   5   9    5.84    2.20
 -12   5  -9    1.20    1.34
  12   5  -9    1.70    2.30
 -12  -5   9   -1.34    3.32
 -12  -5  -9    2.22    2.37
 -12   5  -9    1.99    1.74
  12  -5   9    3.01    2.48
 -12   5  10   56.78   16.95
 -12   5 -10   55.11   13.78
  12   5 -10   53.01   16.59
 -12  -5  10   59.59   19.47
 -12  -5 -10   54.76   13.98
 -12   5 -10   54.18   17.50
  12   5  10   45.74   14.59
  12  -5  10   56.33   13.43
 -12   5  11    4.11    2.18
 -12   5 -11    4.27    1.22
  12   5 -11    9.88    3.85
 -12  -5  11    5.42    3.63
 -12  -5 -11    8.18    3.31
 -12   5 -11    4.86    2.78
  12   5  11    2.62    1.19
  12  -5  11    1.62    1.40
 -12   5  12   85.13    9.34
  12   5 -12   71.79   10.72
 -12  -5  12   80.25   19.99
 -12  -5 -12   73.28   12.09
 -12   5 -12   66.43   22.44
  12   5  12   76.99    8.95
  12  -5  12   72.37   15.41
 -12   5  13    2.98    1.67
  12   5 -13    5.11    3.11
 -12  -5  13    1.15    2.37
 -12  -5 -13    4.37    3.53
 -12   5 -13    2.98    3.15
  12   5  13    1.49    1.47
  12  -5  13    4.76    2.34
 -12   5  14   18.36    6.70
  12   5 -14   13.57    4.27
 -12  -5  14   18.94    5.86
 -12  -5 -14   18.81    6.69
 -12   5 -14   16.50    7.51
  12   5  14   16.62    4.78
  12  -5  14   24.15    5.84
 -12   6   0    2.03    1.40
  12   6   0    2.34    1.90
 -12  -6   0    0.52    2.28
 -12   6   1   75.96    9.34
 -12   6  -1   75.77    7.75
  12   6  -1   76.35    5.65
  12   6   1   78.24   11.91
 -12  -6   1   71.88   19.04
 -12  -6  -1   69.43   17.35
 -12   6  -1   66.01    7.54
 -12   6   2  137.85   17.11
 -12   6  -2  133.33   14.48
  12   6  -2  137.79    8.21
  12   6   2  142.33   13.47
 -12  -6   2  151.41    8.62
 -12  -6  -2  143.99    8.55
  12  -6   2  133.55    9.15
 -12   6   3   27.82    7.79
 -12   6  -3   30.71    6.18
  12   6   3   28.20    4.23
 -12  -6   3   26.56    4.71
 -12  -6  -3   36.04   10.80
 -12   6  -3   21.16    8.17
  12  -6   3   25.80    3.60
 -12   6   4    2.55    1.93
 -12   6  -4    9.51    3.30
  12   6  -4    6.94    4.59
  12   6   4   10.17    2.96
 -12  -6   4    2.67    3.61
 -12  -6  -4    2.65    4.06
 -12   6  -4   10.54    3.44
  12  -6   4    3.01    2.58
 -12   6   5   90.35    7.27
 -12   6  -5   88.32    8.67
  12   6  -5  104.06   10.29
  12   6   5   90.52    7.92
 -12  -6   5   97.43   17.50
 -12  -6  -5   93.74   12.54
 -12   6  -5   94.55    5.42
  12  -6   5   97.68   11.60
 -12   6   6    0.71    4.23
 -12   6  -6    0.69    2.09
  12   6  -6    2.68    2.08
  12   6   6    3.12    2.26
 -12  -6   6    3.00    3.29
 -12  -6  -6    4.41    3.17
 -12   6  -6    2.78    2.19
  12  -6   6    5.01    3.72
 -12   6   7   49.97   15.12
 -12   6  -7   39.24    7.10
  12   6  -7   50.46   12.58
  12   6   7   44.74    4.07
 -12  -6   7   44.77   12.94
 -12  -6  -7   46.82   13.77
 -12   6  -7   48.77    6.30
  12  -6   7   36.09   12.28
 -12   6   8   31.10    9.16
 -12   6  -8   29.94    8.30
  12   6  -8   32.68    5.85
  12   6   8   25.84    6.74
 -12  -6   8   27.51   10.61
 -12  -6  -8   33.73   12.29
 -12   6  -8   29.26    8.48
  12  -6   8   28.15    8.48
 -12   6   9    3.88    2.21
 -12   6  -9    2.45    1.81
  12   6  -9    4.47    2.55
 -12  -6   9    4.25    2.24
 -12  -6  -9    2.20    1.28
 -12   6  -9    3.45    1.97
  12  -6   9    3.24    2.26
 -12   6  10   36.93    8.23
 -12   6 -10   34.18    9.59
  12   6 -10   45.00    7.00
 -12  -6  10   43.57   13.86
 -12  -6 -10   40.08   10.72
 -12   6 -10   31.63   11.72
  12  -6  10   35.76    8.28
 -12   6  11   37.07    9.61
 -12   6 -11   37.29    7.24
  12   6 -11   33.42   11.41
 -12  -6  11   35.23   11.09
 -12  -6 -11   40.46    6.39
 -12   6 -11   32.51   11.91
  12  -6  11   35.90    8.97
 -12   6  12    1.90    1.98
  12   6 -12    2.04    1.64
 -12  -6  12    0.05    2.91
 -12  -6 -12    2.88    1.67
 -12   6 -12    9.91    3.17
  12  -6  12   -0.14    3.14
 -12   6  13   15.80    4.23
  12   6 -13   18.19    4.98
 -12  -6  13   17.13   10.09
 -12  -6 -13   17.81    5.33
 -12   6 -13   16.12    4.78
  12  -6  13   10.80    3.37
 -12   7   0   91.11    9.48
  12   7   0   94.35   15.20
 -12  -7   0   80.97    8.48
 -12   7   1   22.05    4.02
 -12   7  -1   26.01    5.35
  12   7  -1   26.43    6.96
  12   7   1   28.08    4.68
 -12  -7   1   25.49   12.02
 -12  -7  -1   35.69    6.82
 -12   7  -1   17.06    6.66
 -12   7   2   60.75   18.93
 -12   7  -2   60.48   13.71
  12   7  -2   62.88   10.05
  12   7   2   71.65   10.69
 -12  -7   2   66.70   17.90
 -12  -7  -2   69.14   18.07
 -12   7  -2   59.26    7.97
  12  -7   2   59.29    4.67
 -12   7   3    0.67    1.79
 -12   7  -3    3.77    2.79
  12   7  -3    4.56    2.76
  12   7   3    5.48    2.38
 -12  -7   3    8.92    4.49
 -12  -7  -3    3.36    2.83
 -12   7  -3    3.48    1.55
  12  -7   3    1.06    2.25
 -12   7   4   84.58   19.10
 -12   7  -4   86.56    9.46
  12   7  -4   94.48   10.64
  12   7   4   86.66    6.09
 -12  -7   4  101.30    9.03
 -12  -7  -4   78.62   19.15
 -12   7  -4   83.80    8.31
  12  -7   4   85.96    8.55
 -12   7   5    3.30    2.52
 -12   7  -5    4.11    1.85
  12   7  -5    4.03    2.74
  12   7   5    7.39    2.85
 -12  -7   5    8.00    3.19
 -12  -7  -5    5.08    2.07
 -12   7  -5    2.46    1.16
  12  -7   5    3.69    2.64
 -12   7   6   49.98   16.26
 -12   7  -6   51.72   14.37
  12   7  -6   51.40   12.49
  12   7   6   41.29   13.05
 -12  -7   6   51.40   14.75
 -12  -7  -6   41.88   10.13
 -12   7  -6   48.87   12.28
  12  -7   6   48.26    9.84
 -12   7   7   18.84    5.40
 -12   7  -7   17.22    3.47
  12   7  -7   30.29    5.75
  12   7   7   18.43    5.85
 -12  -7   7   23.05    6.55
 -12  -7  -7   25.99    6.74
 -12   7  -7   18.32    6.38
  12  -7   7   20.57    4.20
 -12   7   8   28.24    8.13
 -12   7  -8   32.72    8.08
  12   7  -8   28.42    7.32
 -12  -7   8   27.88    8.93
 -12  -7  -8   20.96    5.86
 -12   7  -8   21.46    3.93
  12  -7   8   23.92    8.32
 -12   7   9    4.31    3.29
 -12   7  -9    2.67    1.23
  12   7  -9    6.41    3.34
 -12  -7   9    4.65    2.12
 -12  -7  -9    9.12    4.06
 -12   7  -9    0.34    1.30
  12  -7   9    2.75    2.18
 -12   7  10   41.33   10.32
 -12   7 -10   42.48   10.65
  12   7 -10   51.21    6.39
 -12  -7  10   42.38   10.57
 -12  -7 -10   40.92   11.46
 -12   7 -10   32.21    9.28
  12  -7  10   38.90    9.83
 -12   7  11    4.83    2.65
 -12   7 -11    9.14    3.02
  12   7 -11    5.10    2.45
 -12  -7  11    5.68    2.09
 -12  -7 -11    3.70    3.61
 -12   7 -11    6.41    3.24
  12  -7  11    4.99    3.56
 -12   7  12   31.73    9.71
  12   7 -12   31.37    9.10
 -12  -7  12   30.31    7.37
 -12  -7 -12   34.63    6.19
 -12   7 -12   25.98    9.83
  12  -7  12   27.74   11.29
 -12   7  13    3.67    3.01
 -12   7 -13    1.44    2.11
  12   8   0    9.05    3.26
 -12  -8   0   10.86    6.02
 -12   8   1   31.81    6.66
 -12   8  -1   25.52    9.07
  12   8  -1   29.14    6.44
  12   8   1   30.38    7.56
 -12  -8   1   25.30    8.94
 -12  -8  -1   29.81   10.03
 -12   8   2   95.87    9.98
 -12   8  -2   84.53   17.81
  12   8  -2  100.29    6.91
  12   8   2   94.52    6.94
 -12  -8   2   92.01    7.95
 -12  -8  -2  108.11   10.53
  12  -8   2  101.31    9.11
 -12   8   3    4.64    2.53
 -12   8  -3    1.13    1.71
  12   8  -3    3.06    2.58
  12   8   3    2.70    2.33
 -12  -8   3    0.95    3.74
 -12  -8  -3    2.03    2.24
 -12   8  -3    3.89    2.42
  12  -8   3    4.14    2.00
 -12   8   4   62.36   14.24
 -12   8  -4   70.56    6.95
  12   8  -4   62.82    8.80
  12   8   4   64.98   12.71
 -12  -8   4   65.70   13.61
 -12  -8  -4   56.31    9.84
 -12   8  -4   65.27    4.52
  12  -8   4   64.15    7.98
 -12   8   5   66.53   18.30
 -12   8  -5   64.99   15.87
  12   8  -5   82.93    9.81
  12   8   5   65.27    6.66
 -12  -8   5   71.15   18.35
 -12  -8  -5   59.11   17.38
 -12   8  -5   61.40    7.13
  12  -8   5   62.17   14.96
 -12   8   6   38.76    7.35
 -12   8  -6   36.11   10.71
  12   8  -6   39.86    6.66
  12   8   6   32.58    9.42
 -12  -8   6   45.68   11.51
 -12  -8  -6   34.16   12.51
 -12   8  -6   29.62   10.07
  12  -8   6   34.09   10.31
 -12   8   7   25.02    6.99
 -12   8  -7   22.68    4.81
  12   8  -7   24.20    6.26
  12   8   7   26.57    7.07
 -12  -8   7   24.45    7.50
 -12  -8  -7   22.49    6.15
 -12   8  -7   18.85    4.68
  12  -8   7   19.65    6.78
 -12   8   8   43.68   13.55
 -12   8  -8   45.01    9.35
  12   8  -8   52.24   12.24
 -12  -8   8   48.99   13.35
 -12  -8  -8   37.87   11.60
 -12   8  -8   35.29   14.62
  12  -8   8   40.61   11.85
 -12   8   9    9.10    1.53
 -12   8  -9    5.57    1.91
  12   8  -9   13.07    4.29
 -12  -8   9   11.36    4.96
 -12  -8  -9   11.50    4.35
 -12   8  -9    6.37    4.47
  12  -8   9   15.00    4.37
 -12   8  10    5.75    2.43
 -12   8 -10   10.83    4.17
  12   8 -10    6.94    4.17
 -12  -8  10   14.05    5.21
 -12  -8 -10    8.56    3.64
 -12   8 -10    5.69    4.61
  12  -8  10    6.76    4.04
 -12   8  11    8.16    2.99
 -12   8 -11   13.55    4.40
  12   8 -11   13.14    3.12
 -12  -8  11   12.08    3.63
 -12  -8 -11    9.54    4.11
 -12   8 -11   13.50    4.11
  12  -8  11   14.34    7.82
 -12   8  12   14.42    4.19
  12   8 -12   23.33    4.59
 -12  -8  12   15.75    4.33
 -12  -8 -12   12.89    4.29
 -12   8 -12    8.63    3.92
  12  -8  12   16.94    5.75
 -12   9   0   43.37   10.88
  12   9   0   36.03   11.16
 -12  -9   0   46.78    9.30
 -12   9   1   10.00    6.29
 -12   9  -1   24.68    6.68
  12   9  -1   17.60    4.72
  12   9   1   21.15    5.47
 -12  -9   1   22.71    6.05
 -12  -9  -1   14.69    6.32
 -12   9   2   18.57    3.69
 -12   9  -2   21.93    6.18
  12   9  -2   20.44    4.23
  12   9   2   24.08    7.02
 -12  -9   2   26.64    6.15
 -12  -9  -2   20.89    5.53
 -12   9   3   45.74   13.65
 -12   9  -3   53.04   16.72
  12   9  -3   49.20   16.94
  12   9   3   48.39   13.83
 -12  -9   3   63.43   14.99
 -12  -9  -3   65.60   13.53
  12  -9   3   45.63   12.43
 -12   9   4   63.63   14.85
 -12   9  -4   50.39   10.96
  12   9  -4   80.41   17.12
  12   9   4   61.25   15.95
 -12  -9   4   62.39   15.41
 -12  -9  -4   76.52   16.10
  12  -9   4   62.24   18.97
 -12   9   5   29.51    8.88
 -12   9  -5   31.60    4.68
  12   9  -5   21.70    6.10
  12   9   5   25.48   11.20
 -12  -9   5   32.84    8.85
 -12  -9  -5   29.61    7.54
 -12   9  -5   21.38   11.47
  12  -9   5   31.21    4.92
 -12   9   6   63.44   20.64
 -12   9  -6   65.82   14.89
  12   9  -6   83.83   21.02
 -12  -9   6   76.18   20.98
 -12  -9  -6   83.52    8.59
 -12   9  -6   66.42   10.58
  12  -9   6   57.68   18.73
 -12   9   7   47.28   12.41
 -12   9  -7   37.43   17.53
  12   9  -7   58.04   11.35
  12   9   7   25.54    9.32
 -12  -9   7   48.28   11.04
 -12  -9  -7   46.58   12.14
 -12   9  -7   33.12   11.50
  12  -9   7   45.99   10.37
 -12   9   8   49.11   15.84
 -12   9  -8   56.68   11.38
  12   9  -8   56.12   15.41
 -12  -9   8   60.43   17.90
 -12  -9  -8   51.13   15.16
 -12   9  -8   41.41   15.67
  12  -9   8   53.43    7.72
 -12   9   9   20.96   11.06
 -12   9  -9   23.43    8.73
  12   9  -9   31.38    7.02
 -12  -9   9   21.17    4.84
 -12  -9  -9   24.84    8.72
 -12   9  -9   16.04    5.19
  12  -9   9   25.55    5.77
 -12   9  10   18.15    4.87
 -12   9 -10   12.17    4.01
  12   9 -10   19.32    4.63
 -12  -9  10   10.22    6.75
 -12  -9 -10   13.65    5.76
 -12   9 -10   15.70    5.74
  12  -9  10   13.29    4.30
 -12   9  11    1.98    1.81
 -12   9 -11   -0.03    2.26
  12   9 -11    0.71    1.27
 -12  -9  11    6.55    3.62
 -12  -9 -11    0.57    1.52
 -12   9 -11    1.43    1.98
  12  -9  11   -0.48    4.04
 -12  10   0   25.94    6.05
  12  10   0   32.59    9.79
 -12 -10   0   34.23    9.24
 -12  10   1   66.37   16.99
 -12  10  -1   56.02   14.57
  12  10  -1   53.81   15.27
  12  10   1   53.55   13.26
 -12 -10   1   61.34   21.00
 -12 -10  -1   47.10   20.25
 -12  10   2   19.50    5.84
 -12  10  -2   18.20    4.35
  12  10  -2   18.14    4.80
  12  10   2   17.17    5.67
 -12 -10   2   23.93    8.69
 -12 -10  -2   24.43    6.89
 -12  10   3    4.26    2.30
 -12  10  -3    1.92    2.07
  12  10  -3    5.10    3.48
  12  10   3    4.92    2.73
 -12 -10   3    6.36    4.15
 -12 -10  -3    4.11    2.67
  12 -10   3    3.51    2.02
 -12  10   4    7.17    3.22
 -12  10  -4    2.98    1.72
  12  10  -4    0.51    1.34
  12  10   4    2.52    2.14
 -12 -10   4    3.58    2.76
 -12 -10  -4    6.86    4.03
  12 -10   4    2.41    1.83
 -12  10   5   22.80    5.30
 -12  10  -5   22.26    5.31
  12  10  -5   21.55    6.74
  12  10   5   22.19    8.67
 -12 -10   5   28.31    7.00
 -12 -10  -5   19.26    6.73
  12 -10   5   27.01    4.59
 -12  10   6   14.50    4.44
 -12  10  -6   18.79    5.09
  12  10  -6    8.46    3.00
  12  10   6   10.42    2.96
 -12 -10   6   17.06    4.64
 -12 -10  -6   13.87    5.22
  12 -10   6    7.16    3.14
 -12  10   7    5.06    4.01
 -12  10  -7    2.01    1.51
  12  10  -7    8.32    4.87
 -12 -10   7    3.80    2.58
 -12 -10  -7    3.17    1.64
 -12  10  -7    1.33    2.00
  12 -10   7    2.16    2.08
 -12  10   8    4.05    2.32
 -12  10  -8    4.22    2.75
  12  10  -8   -0.02    3.30
 -12 -10   8    6.57    5.13
 -12 -10  -8    1.81    1.63
 -12  10  -8    3.92    2.83
  12 -10   8   -3.00    3.45
 -12  10   9   13.90    4.96
 -12  10  -9   16.32    5.21
  12  10  -9   16.23    4.73
 -12 -10   9   17.92    5.31
 -12 -10  -9   10.83    2.27
 -12  10  -9    9.80    5.41
  12 -10   9   11.29    5.02
 -12  10  10   10.05    4.86
 -12  10 -10    2.37    1.83
  12  10 -10    0.38    2.38
 -12 -10  10   14.51    4.51
 -12 -10 -10    5.65    3.14
 -12  10 -10    8.80    3.53
 -12  11   0   21.61    4.42
  12  11   0   23.00    5.39
 -12 -11   0   22.99    6.52
 -12  11   1   38.29    9.55
 -12  11  -1   34.96    6.43
  12  11  -1   39.54   11.25
  12  11   1   37.53   10.74
 -12 -11   1   35.42   11.59
 -12 -11  -1   48.57    6.41
 -12  11   2   18.90    5.30
 -12  11  -2    7.96    3.07
  12  11  -2    3.48    3.27
  12  11   2    6.09    1.84
 -12 -11   2    7.44    4.03
 -12 -11  -2    6.50    2.75
 -12  11   3   67.66   20.17
 -12  11  -3   67.89   14.13
  12  11  -3   70.11   16.73
  12  11   3   73.31   19.18
 -12 -11   3   79.50   21.60
 -12 -11  -3   67.71   18.28
 -12  11   4    9.20    3.95
 -12  11  -4    7.95    3.35
  12  11  -4    8.63    5.29
  12  11   4   10.46    3.21
 -12 -11   4   10.37    4.89
 -12 -11  -4   12.06    4.36
  12 -11   4    8.50    4.72
 -12  11   5    2.38    2.90
 -12  11  -5    1.45    1.40
  12  11  -5    5.37    2.19
  12  11   5    3.81    2.08
 -12 -11   5    4.84    2.53
 -12 -11  -5    1.90    1.22
  12 -11   5    4.75    1.79
 -12  11   6   20.87    5.03
 -12  11  -6   17.09    3.26
  12  11  -6   15.57    3.94
  12  11   6   18.62    4.72
 -12 -11   6   14.84    3.84
 -12 -11  -6   19.94    6.12
  12 -11   6   15.21    3.69
 -12  11   7   16.87    4.46
 -12  11  -7   18.88    6.03
  12  11  -7   19.99    4.95
 -12 -11   7   16.87    3.25
 -12 -11  -7   12.39    3.84
  12 -11   7   19.10    5.29
 -12  11   8    3.74    3.16
 -12  11  -8   17.86    5.02
  12  11  -8    9.35    2.85
 -12 -11   8   15.57    5.60
 -12 -11  -8    6.62    3.32
  12 -11   8    5.02    3.52
 -12  12   0   26.73    6.91
  12  12   0   15.95    4.51
 -12 -12   0   18.39    5.45
 -12  12   1   21.52    5.30
 -12  12  -1   28.01    5.54
  12  12  -1   17.61    7.19
  12  12   1   22.96    8.26
 -12 -12   1   23.46    6.93
 -12 -12  -1   27.82    6.05
 -12  12   2    8.40    3.75
 -12  12  -2    5.34    3.29
  12  12  -2   10.57    4.07
  12  12   2    8.05    5.15
 -12 -12   2   14.65    6.28
 -12 -12  -2   11.56    5.53
 -12  12   3    4.18    2.75
 -12  12  -3    9.68    2.50
  12  12  -3    5.74    2.87
  12  12   3   15.62    3.57
 -12 -12   3   10.82    5.56
 -12 -12  -3   10.88    3.95
 -12  12   4    7.91    3.42
 -12  12  -4   14.90    3.66
  12  12  -4   14.10    5.27
  12  12   4   10.02    2.42
 -12 -12   4    7.05    4.64
 -12 -12  -4   12.39    4.19
 -12  12   5   18.31    4.79
 -12  12  -5   17.18    5.95
  12  12  -5   20.06    6.94
  12  12   5   15.00    6.38
 -12 -12   5   21.12    4.89
 -12 -12  -5   20.69    4.57
  12 -12   5   12.21    5.63
 -12  12   6   30.34   10.60
 -12  12  -6   34.95    8.04
  12  12  -6   29.53   10.15
  12  12   6   30.38    8.46
 -12 -12   6   31.38   10.08
 -12 -12  -6   26.17   10.58
  12 -12   6   31.80    7.46
 -12  13   0    2.01    1.34
  12  13   0   -0.13    2.85
 -12 -13   0   -2.42    4.09
 -12  13   1    3.67    2.57
 -12  13  -1    1.24    3.42
  12  13  -1    1.98    2.70
  12  13   1   -0.03    3.23
 -12 -13   1   -4.36    3.90
 -12 -13  -1    2.75    2.30
 -12  13   2    2.10    2.08
 -12  13  -2    3.29    2.11
  12  13  -2    3.88    2.12
  12  13   2    3.07    2.28
 -12 -13   2   -0.06    3.80
 -12 -13  -2   -0.17    3.16
 -13   0   0    2.76    1.66
 -13   0   0    1.92    2.18
 -13   0   1    1.53    1.54
 -13   0  -1    2.17    1.06
 -13   0   1    4.33    2.47
 -13   0  -1    2.53    1.37
 -13   0   2    4.86    1.62
 -13   0  -2    5.21    2.90
 -13   0   2    3.05    2.06
 -13   0  -2    5.81    3.38
 -13   0   3   36.47   10.10
 -13   0  -3   40.61   10.83
 -13   0   3   31.57   11.18
 -13   0  -3   44.07   11.01
 -13   0   4  195.47   22.55
 -13   0  -4  177.65   13.00
 -13   0   4  164.85   14.78
 -13   0  -4  184.33    8.09
 -13   0   5    9.60    3.87
 -13   0   5    9.50    2.39
 -13   0  -5    8.75    5.85
 -13   0   6    1.04    0.80
 -13   0  -6    1.65    1.95
 -13   0   6   -0.07    1.14
 -13   0  -6    1.66    2.17
 -13   0   7   45.77   11.10
 -13   0  -7   48.07   12.86
 -13   0   7   37.05   13.59
 -13   0  -7   45.85   13.69
 -13   0   8  122.60   10.70
 -13   0  -8   96.69   18.77
 -13   0   8  119.15    6.36
 -13   0  -8  115.67   19.40
 -13   0   9   22.06    7.76
 -13   0  -9   22.74    5.32
 -13   0   9   16.78    8.63
 -13   0  -9   17.43    5.34
  13   0   9   22.54    7.16
 -13   0  10   -0.96    2.73
 -13   0 -10    1.06    2.39
  13   0  10    0.31    1.93
 -13   0  11    6.62    2.55
 -13   0 -11    4.38    3.35
  13   0  11    6.85    3.34
 -13   0  12   22.74    6.59
 -13   0 -12   15.97    4.99
  13   0  12   21.42    3.39
 -13   0  13   -0.74    3.09
 -13   0 -13   -0.77    3.15
  13   0  13    2.48    1.64
 -13   0  14    2.04    1.91
 -13   0 -14    1.87    3.94
 -13  -1   0  185.36   14.03
 -13   1   0  179.00   25.75
 -13  -1   0  180.79   15.74
 -13   1   0  195.28    8.43
 -13  -1  -1  124.23    6.95
 -13   1   1  121.40    7.67
 -13   1  -1  128.47    8.93
  13   1  -1  122.99   11.63
 -13  -1   1  138.06   11.56
 -13  -1  -1  120.34   14.40
 -13   1   1  117.59    5.60
 -13   1  -1  128.13    9.33
 -13  -1  -2   37.83    7.31
 -13   1   2   31.60    7.29
 -13   1  -2   32.43    8.00
  13   1  -2   34.87    7.82
 -13  -1   2   32.27   10.56
 -13   1   2   28.85    9.80
 -13  -1  -2   28.76   11.26
 -13   1  -2   35.81    4.07
 -13  -1  -3    3.05    2.22
 -13   1   3    2.02    1.35
 -13   1  -3    0.80    2.96
  13   1  -3   -1.67    3.16
 -13  -1   3   -0.98    2.11
 -13   1   3    1.00    1.53
 -13  -1  -3    0.37    1.74
 -13   1  -3    3.19    1.83
 -13   1   4   39.77   12.98
 -13  -1  -4   40.47    8.01
 -13   1  -4   40.52    8.17
  13   1  -4   37.29   10.51
 -13  -1   4   39.29   10.07
 -13   1   4   38.81   12.39
 -13  -1  -4   43.62   12.92
 -13   1  -4   39.63   13.90
 -13   1   5  200.39   13.33
 -13  -1  -5  186.99   12.94
 -13   1  -5  205.30   11.35
  13   1  -5  209.75   10.30
 -13  -1   5  209.92   15.64
 -13   1   5  202.75    7.81
 -13  -1  -5  193.80    8.72
 -13   1  -5  216.06    9.54
 -13   1   6   10.70    2.70
 -13  -1  -6   14.93    3.96
 -13   1  -6    5.82    3.03
  13   1  -6   16.13    4.17
 -13  -1   6   14.69    5.22
 -13   1   6    7.87    4.08
 -13  -1  -6   17.06    3.49
 -13   1  -6   13.86    5.49
 -13   1   7  125.33   20.11
 -13  -1  -7  109.89    7.09
 -13   1  -7   99.34   13.51
  13   1  -7  111.57    8.46
 -13  -1   7  102.30    6.19
 -13   1   7  113.68    6.31
 -13  -1  -7  115.14   17.47
 -13   1  -7  109.08    6.73
 -13   1   8   26.73    7.25
 -13  -1  -8   22.22    6.76
 -13   1  -8   22.45    3.84
  13   1  -8   26.21    6.14
 -13  -1   8   23.80    4.27
 -13   1   8   26.44   10.10
 -13  -1  -8   29.02    7.93
 -13   1  -8   30.06    8.89
  13  -1   8   31.08    7.86
 -13   1   9    1.18    2.33
 -13  -1  -9    1.42    1.08
 -13   1  -9    1.49    1.68
  13   1  -9    5.84    2.74
 -13  -1   9    2.60    1.47
 -13  -1  -9    3.28    3.06
 -13   1  -9   -0.03    3.05
  13   1   9    0.59    1.59
  13  -1   9    1.36    1.54
 -13   1  10   22.89    6.62
  13   1 -10   21.20    4.17
 -13  -1  10   21.19    6.35
 -13  -1 -10   26.94    7.46
 -13   1 -10   25.04    8.62
  13   1  10   13.16    3.97
  13  -1  10   25.13    5.79
 -13   1  11   68.45   21.12
  13   1 -11   80.57   17.78
 -13  -1  11   74.02   22.47
 -13  -1 -11   87.61    7.74
 -13   1 -11   82.11   20.47
  13   1  11   70.63   14.33
  13  -1  11  100.62    7.44
 -13   1  12   25.29    7.69
  13   1 -12   28.28    4.79
 -13  -1 -12   21.62    7.60
 -13   1 -12   25.47   12.76
  13   1  12   27.66    5.99
  13  -1  12   24.91    6.51
 -13  -1  13    7.06    3.31
 -13   1  13    7.49    4.19
 -13  -1 -13    3.92    2.18
 -13   1 -13    5.03    3.61
  13   1  13    6.27    2.60
  13  -1  13    3.94    2.78
 -13  -1  14   -0.64    2.49
 -13   1  14    1.84    1.55
 -13  -1 -14    1.87    1.93
 -13   1 -14    0.53    1.81
 -13   2   0   25.89    6.48
  13   2   0   26.87    5.19
 -13  -2   0   22.41    8.34
 -13   2   0   23.58    8.78
 -13   2   1   38.87    8.53
 -13   2  -1   34.79    6.86
  13   2  -1   35.84    8.19
  13   2   1   47.22    8.60
 -13  -2   1   43.18   12.06
 -13  -2  -1   30.79    9.86
 -13   2   1   28.26    9.62
 -13   2  -1   38.11   13.94
 -13   2   2  306.49   10.34
 -13   2  -2  301.05    9.71
  13   2  -2  315.51   10.88
  13   2   2  298.18   12.68
 -13  -2   2  326.62   11.77
 -13  -2  -2  293.04   15.17
 -13   2   2  303.31    8.60
 -13   2  -2  319.73    9.72
 -13  -2  -3   26.26    6.86
 -13   2   3   19.55    4.32
 -13   2  -3   30.25    7.41
  13   2  -3   22.44    3.18
 -13  -2   3   31.41    6.63
 -13   2   3   18.45    6.29
 -13  -2  -3   18.27    5.19
 -13   2  -3   26.44    8.09
 -13  -2  -4   39.13   11.10
 -13   2   4   40.98   10.56
 -13   2  -4   38.80    9.35
  13   2  -4   46.49    6.00
 -13  -2   4   36.87    4.08
 -13  -2  -4   49.45   15.57
 -13   2  -4   36.33   11.61
 -13  -2  -5   14.94    4.56
 -13   2   5   17.45    5.08
 -13   2  -5   16.00    2.39
  13   2  -5   16.60    4.20
 -13  -2   5   17.69    5.16
 -13   2   5   18.33    3.84
 -13  -2  -5   21.32    5.88
 -13   2  -5   11.65    3.30
 -13  -2  -6    4.46    2.40
 -13   2   6    1.77    2.67
 -13   2  -6   10.22    2.66
  13   2  -6    3.90    2.84
 -13  -2   6    7.31    2.98
 -13   2   6    3.95    2.21
 -13  -2  -6    3.42    2.03
 -13   2  -6    6.93    3.44
 -13   2   7    2.53    2.07
 -13  -2  -7    1.45    0.81
 -13   2  -7    4.61    2.82
  13   2  -7    1.49    2.59
 -13  -2   7   -1.37    2.97
 -13  -2  -7    2.94    1.82
 -13   2  -7    3.38    1.47
  13  -2   7    2.63    1.92
 -13   2   8   18.33    5.38
 -13  -2  -8   21.42    4.16
 -13   2  -8   23.64    3.88
  13   2  -8   19.56    3.89
 -13  -2   8   26.99    6.14
 -13  -2  -8   23.46    6.06
 -13   2  -8   25.33    8.43
  13  -2   8   20.01    6.83
 -13   2   9   48.34   13.01
 -13   2  -9   47.86   12.78
  13   2  -9   46.96   12.31
 -13  -2   9   55.32   15.58
 -13  -2  -9   47.04   15.44
 -13   2  -9   41.73   18.29
  13  -2   9   43.99    8.48
 -13   2  10   76.96   21.32
 -13   2 -10   81.34    7.12
  13   2 -10   96.73   17.26
 -13  -2  10   80.61   18.62
 -13  -2 -10   76.95   18.97
 -13   2 -10   79.01   20.66
  13  -2  10  101.89    7.75
 -13   2  11   -0.73    2.16
  13   2 -11   -0.39    2.78
 -13  -2  11    2.50    1.90
 -13  -2 -11   -0.19    2.51
 -13   2 -11   17.47   10.58
  13   2  11    1.70    2.22
  13  -2  11    0.27    1.96
 -13   2  12   17.84    4.15
  13   2 -12   16.48    3.94
 -13  -2  12   17.38    5.13
 -13  -2 -12   17.74    5.89
 -13   2 -12   17.55    5.13
  13   2  12   21.38    5.30
  13  -2  12   19.46    5.52
 -13   2  13   24.00    6.71
  13   2 -13   21.08    4.65
 -13  -2 -13   14.44    6.91
 -13   2 -13   21.44    6.11
  13   2  13   21.20    5.61
  13  -2  13   18.84    5.44
 -13   3   0   26.62    4.81
  13   3   0   35.84    4.80
 -13  -3   0   31.96    8.41
 -13   3   0   30.04   10.82
 -13   3   1   77.42    6.17
 -13   3  -1   72.78    7.47
  13   3  -1   69.36   12.70
  13   3   1   73.71    5.92
 -13  -3   1   72.27    7.38
 -13  -3  -1   65.05   17.19
 -13   3  -1   68.83    9.87
 -13   3   2   32.97    7.39
 -13   3  -2   42.79   13.26
  13   3  -2   36.17    5.15
  13   3   2   41.75    9.93
 -13  -3   2   40.52    5.29
 -13  -3  -2   39.68    9.06
 -13   3  -2   38.15    5.36
 -13   3   3   67.07   14.54
 -13   3  -3   70.77   17.24
  13   3  -3   68.90    7.27
  13   3   3   76.34   11.93
 -13  -3   3   75.71    5.60
 -13  -3  -3   71.85    6.99
 -13   3   3   78.27    4.28
 -13   3  -3   78.53    4.95
 -13   3   4    4.99    4.09
 -13   3  -4    3.84    2.02
  13   3  -4    6.81    3.35
  13   3   4    3.48    2.22
 -13  -3   4    2.53    1.97
 -13   3   4    4.60    1.55
 -13  -3  -4    3.49    1.82
 -13   3  -4    4.21    2.59
 -13  -3  -5   -0.25    1.96
 -13   3   5    3.61    2.15
 -13   3  -5    4.17    2.20
  13   3  -5    1.67    1.94
 -13  -3   5    2.45    2.68
 -13  -3  -5    0.52    1.44
 -13   3  -5    2.04    1.59
 -13  -3  -6   65.93   10.93
 -13   3   6   69.11    6.81
 -13   3  -6   68.90   12.50
  13   3  -6   63.03   18.42
 -13  -3   6   78.87    6.51
 -13  -3  -6   65.96    6.95
 -13   3  -6   75.73    7.79
 -13  -3  -7    3.37    1.42
 -13   3   7    3.91    2.91
 -13   3  -7   10.86    2.54
  13   3  -7    4.23    1.35
 -13  -3   7   13.88    3.47
 -13  -3  -7    5.81    3.54
 -13   3  -7    3.02    2.33
  13  -3   7    6.10    3.35
 -13  -3  -8    1.99    1.51
 -13   3   8    5.70    3.16
 -13   3  -8    5.49    2.41
  13   3  -8    3.97    3.48
 -13  -3   8    2.24    3.34
 -13  -3  -8    3.11    1.67
 -13   3  -8    4.13    2.19
  13  -3   8    1.58    0.98
 -13   3   9   19.34    4.63
 -13   3  -9   17.91    5.90
  13   3  -9   19.68    4.49
 -13  -3   9   16.78    4.69
 -13  -3  -9   23.48    4.93
 -13   3  -9   19.42    5.03
  13  -3   9   17.62    5.09
 -13   3  10   56.09   19.36
 -13   3 -10   61.04    9.14
  13   3 -10   70.92    5.72
 -13  -3  10   66.15   19.10
 -13  -3 -10   51.82   17.90
 -13   3 -10   60.69   20.64
  13  -3  10   62.08    7.16
 -13   3  11   30.96   10.26
  13   3 -11   32.42    4.69
 -13  -3  11   34.44    9.65
 -13  -3 -11   29.18    8.19
 -13   3 -11   47.34    6.08
  13   3  11   32.19    7.46
  13  -3  11   27.66    5.84
 -13   3  12    1.77    2.54
  13   3 -12    1.00    3.00
 -13  -3  12   -1.07    2.52
 -13  -3 -12   -3.36    3.79
 -13   3 -12    0.55    2.26
  13  -3  12    1.21    1.37
 -13   3  13   17.14    4.94
  13   3 -13   25.59    5.23
 -13  -3  13   17.35    5.28
 -13  -3 -13   22.47    7.70
 -13   3 -13   15.19    4.42
  13   3  13   15.16    5.10
  13  -3  13   27.60    4.80
 -13   4   0   17.47    4.13
  13   4   0   22.62    4.04
 -13  -4   0   21.64    4.48
 -13   4   0   16.07    2.71
 -13   4   1   23.09    6.07
 -13   4  -1   24.47    6.08
  13   4  -1   21.42    6.18
  13   4   1   23.88    4.75
 -13  -4   1   29.98    7.37
 -13  -4  -1   21.40    7.48
 -13   4   1   16.65    6.18
 -13   4  -1   16.88    7.18
 -13   4   2    2.07    2.11
 -13   4  -2    1.19    1.55
  13   4  -2    2.87    1.37
  13   4   2   -0.32    1.31
 -13  -4   2    2.58    3.16
 -13  -4  -2    0.76    1.82
 -13   4   2    1.61    1.06
 -13   4  -2    1.49    0.95
 -13   4   3   17.76    5.07
 -13   4  -3    9.89    2.53
  13   4  -3   21.84    5.68
  13   4   3   13.37    3.25
 -13  -4   3    5.94    4.36
 -13  -4  -3   13.83    4.70
 -13   4   3   13.08    5.36
 -13   4  -3    8.39    2.12
 -13   4   4   32.63    6.37
 -13   4  -4   30.33    6.61
  13   4  -4   32.48    7.79
  13   4   4   33.12    7.49
 -13  -4   4   32.19    8.64
 -13  -4  -4   32.32   11.51
 -13   4  -4   43.19    4.21
 -13   4   5   48.97   13.74
 -13   4  -5   53.32    9.62
  13   4  -5   42.70   13.32
  13   4   5   47.26    4.27
 -13  -4   5   46.41   15.47
 -13  -4  -5   55.15   17.88
 -13   4  -5   43.38   15.00
 -13   4   6   38.92   12.09
 -13   4  -6   35.33    8.89
  13   4  -6   38.93   10.63
  13   4   6   40.97    9.12
 -13  -4   6   47.41   12.69
 -13  -4  -6   36.05   13.13
 -13   4  -6   33.45   11.59
  13  -4   6   33.83    6.43
 -13  -4  -7   86.57    7.48
 -13   4   7   85.36   21.51
 -13   4  -7   89.36    8.02
  13   4  -7  103.86   16.42
 -13  -4   7   85.26   22.47
 -13  -4  -7   83.75   21.74
 -13   4  -7   77.98    8.63
  13  -4   7   83.48   11.69
 -13  -4  -8   79.98    6.77
 -13   4   8   91.44    7.68
 -13   4  -8   86.84    7.65
  13   4  -8   83.23   19.29
 -13  -4   8   89.24   23.08
 -13  -4  -8   76.78   19.49
 -13   4  -8   76.97    7.85
  13  -4   8   93.68   11.36
 -13   4   9   36.64   10.32
 -13   4  -9   33.88    8.73
  13   4  -9   37.51    8.36
 -13  -4   9   44.21    9.07
 -13  -4  -9   36.22   10.62
 -13   4  -9   36.57    9.36
  13  -4   9   34.67    9.66
 -13   4  10   10.81    2.77
 -13   4 -10    8.85    2.30
  13   4 -10   13.20    3.58
 -13  -4  10    9.81    4.51
 -13  -4 -10    9.80    5.06
 -13   4 -10    5.74    3.13
  13  -4  10   13.19    3.76
 -13   4  11   28.40    8.55
  13   4 -11   29.63    4.26
 -13  -4  11   29.93   10.54
 -13  -4 -11   22.66    7.79
 -13   4 -11   27.86   11.43
  13  -4  11   27.86    5.24
 -13   4  12   13.51    4.86
  13   4 -12    9.54    1.94
 -13  -4  12   10.87    4.02
 -13  -4 -12   14.88    3.30
 -13   4 -12   11.89    3.54
  13  -4  12   18.36    3.37
 -13   4  13    1.18    1.50
  13   4 -13    4.41    2.98
 -13  -4  13    2.87    1.80
 -13  -4 -13   -1.67    3.58
 -13   4 -13    1.52    1.86
  13   4  13    2.22    1.88
  13  -4  13    2.44    2.94
 -13   5   0   83.82    8.49
  13   5   0   87.81   14.85
 -13  -5   0   65.52   22.13
 -13   5   0   72.32    9.27
 -13   5   1   11.57    4.14
 -13   5  -1   11.31    3.25
  13   5  -1   17.99    4.10
  13   5   1   11.32    4.20
 -13  -5   1   15.61    5.55
 -13  -5  -1   15.51    4.37
 -13   5   1   13.20    3.36
 -13   5  -1   11.59    4.74
 -13   5   2   20.76    6.48
 -13   5  -2   23.45    4.85
  13   5  -2   20.41    7.41
  13   5   2   21.02    3.90
 -13  -5   2   24.60    6.84
 -13  -5  -2   22.44    6.23
 -13   5  -2   22.52    8.21
 -13   5   3    7.54    2.18
 -13   5  -3   18.18    4.88
  13   5  -3   10.90    2.62
  13   5   3   15.87    3.28
 -13  -5   3   20.25    5.02
 -13  -5  -3    8.53    2.91
 -13   5  -3   15.22    5.97
 -13   5   4  115.65   16.20
 -13   5  -4  116.03    7.88
  13   5  -4  103.99   18.83
  13   5   4  117.05    6.18
 -13  -5   4  122.45   20.52
 -13  -5  -4  116.55   11.33
 -13   5  -4  113.46   12.31
 -13   5   5   25.16    6.79
 -13   5  -5   20.23    6.62
  13   5  -5   21.88    5.74
  13   5   5   16.98    5.80
 -13  -5   5   21.55    9.24
 -13  -5  -5   21.53    6.44
 -13   5  -5   17.44    5.52
  13  -5   5   24.55    3.19
 -13   5   6   68.76   16.38
 -13   5  -6   86.13    6.20
  13   5  -6   74.91   16.10
  13   5   6   73.55    9.70
 -13  -5   6   95.71    7.83
 -13  -5  -6   82.77   11.20
 -13   5  -6   76.63    5.51
  13  -5   6   89.27    6.45
 -13   5   7   40.06   10.55
 -13   5  -7   37.05    7.43
  13   5  -7   51.87    5.68
  13   5   7   36.38   11.70
 -13  -5   7   43.75   10.38
 -13  -5  -7   46.21   17.12
 -13   5  -7   36.49   11.11
  13  -5   7   42.40    4.39
 -13  -5  -8    3.39    1.75
 -13   5   8   -1.62    2.70
 -13   5  -8   -0.44    2.31
  13   5  -8   -0.04    2.55
 -13  -5   8    2.57    1.14
 -13  -5  -8    3.18    2.70
 -13   5  -8    3.40    1.75
  13  -5   8    4.49    3.06
 -13   5   9   30.97    7.70
 -13   5  -9   32.75    7.77
  13   5  -9   24.43    7.51
 -13  -5   9   31.05   10.14
 -13  -5  -9   41.21   10.68
 -13   5  -9   26.98    8.34
  13  -5   9   33.65    7.72
 -13   5  10    9.97    2.52
 -13   5 -10    8.73    3.66
  13   5 -10    8.24    3.60
 -13  -5  10   13.44    5.61
 -13  -5 -10    9.47    5.65
 -13   5 -10   11.67    4.83
  13  -5  10    5.35    2.52
 -13   5  11    3.07    2.70
  13   5 -11    4.26    2.83
 -13  -5  11    9.70    4.36
 -13  -5 -11    3.17    2.38
 -13   5 -11    5.46    2.89
  13  -5  11    0.21    1.88
 -13   5  12   30.71   10.06
  13   5 -12   34.91    9.62
 -13  -5  12   37.20    9.36
 -13  -5 -12   39.95    9.65
 -13   5 -12   32.96   14.02
  13  -5  12   36.79    8.51
 -13   6   0   12.05    3.09
  13   6   0   17.55    3.73
 -13  -6   0   12.61    5.57
 -13   6   1   87.00   15.23
 -13   6  -1   83.84   20.40
  13   6  -1   85.60   11.88
  13   6   1   78.74   19.81
 -13  -6   1   81.71   15.85
 -13  -6  -1   89.46    8.60
 -13   6  -1   83.60    4.58
 -13   6   2    4.48    3.12
 -13   6  -2    1.82    1.74
  13   6  -2    5.48    2.99
  13   6   2    2.60    1.22
 -13  -6   2    3.14    3.09
 -13  -6  -2    3.65    3.29
 -13   6  -2    2.10    1.13
 -13   6   3   66.43   21.08
 -13   6  -3   63.49   11.68
  13   6  -3   66.10   14.10
  13   6   3   62.32   18.90
 -13  -6   3   73.51   19.80
 -13  -6  -3   67.28   19.30
 -13   6  -3   65.07    4.53
 -13   6   4   36.78    9.08
 -13   6  -4   39.91   11.30
  13   6  -4   38.36    9.86
  13   6   4   38.51   11.72
 -13  -6   4   41.34   15.23
 -13  -6  -4   35.58   11.76
 -13   6  -4   37.64   13.26
 -13   6   5   14.24    1.79
 -13   6  -5   23.10    5.03
  13   6  -5   15.62    4.37
  13   6   5   17.34    4.22
 -13  -6   5   20.78    5.79
 -13  -6  -5   13.44    6.05
 -13   6  -5   17.49    6.14
  13  -6   5   14.40    4.11
 -13   6   6   11.30    5.34
 -13   6  -6    9.34    3.33
  13   6  -6    9.62    4.16
  13   6   6   11.88    3.83
 -13  -6   6   20.41    4.41
 -13  -6  -6    6.95    4.99
 -13   6  -6   11.70    3.36
  13  -6   6   11.06    2.55
 -13   6   7    3.88    1.96
 -13   6  -7   -0.45    2.47
  13   6  -7    2.75    2.95
  13   6   7    1.88    1.14
 -13  -6   7    1.93    1.63
 -13  -6  -7    0.50    1.63
 -13   6  -7    3.57    2.70
  13  -6   7    7.33    3.75
 -13   6   8   35.99    8.46
 -13   6  -8   32.30    7.43
  13   6  -8   32.38   11.12
 -13  -6   8   40.57   10.60
 -13  -6  -8   30.22    9.42
 -13   6  -8   32.61    6.40
  13  -6   8   28.21    9.47
 -13   6   9    8.75    2.46
 -13   6  -9    6.26    1.05
  13   6  -9    6.14    3.95
 -13  -6   9    8.21    4.47
 -13  -6  -9   14.54    7.35
 -13   6  -9   10.91    5.58
  13  -6   9   10.19    4.20
 -13   6  10    1.42    1.66
 -13   6 -10    2.92    1.29
  13   6 -10    3.80    2.22
 -13  -6  10    3.59    3.13
 -13  -6 -10    2.49    3.25
 -13   6 -10   -0.18    2.82
  13  -6  10   -2.50    2.77
 -13   6  11   27.95    9.17
  13   6 -11   24.42    4.95
 -13  -6  11   21.56    7.57
 -13  -6 -11   23.33    4.83
 -13   6 -11   21.89    7.81
  13  -6  11   16.70    4.75
 -13   6  12   15.63    3.70
  13   6 -12   14.27    4.16
 -13  -6 -12   10.38    3.74
 -13   6 -12   12.87    5.12
  13  -6  12   11.84    4.09
 -13   7   0   36.95    7.40
  13   7   0   35.29    6.60
 -13  -7   0   33.75    9.63
 -13   7   1   13.35    3.47
 -13   7  -1   12.83    3.22
  13   7  -1   24.73    6.61
  13   7   1   13.89    4.23
 -13  -7   1   19.83    5.81
 -13  -7  -1   13.30    6.94
 -13   7   2   42.25   14.22
 -13   7  -2   41.11   10.87
  13   7  -2   55.17    6.41
  13   7   2   38.05   12.30
 -13  -7   2   48.34   15.58
 -13  -7  -2   34.76   18.85
 -13   7   3   37.82   11.02
 -13   7  -3   33.49    9.09
  13   7  -3   51.53    7.83
  13   7   3   42.23    5.04
 -13  -7   3   37.79   14.03
 -13  -7  -3   36.51   11.29
 -13   7  -3   30.68   10.50
 -13   7   4   37.23   10.90
 -13   7  -4   38.36    7.49
  13   7  -4   35.13    6.21
  13   7   4   35.10   14.70
 -13  -7   4   50.09   11.55
 -13  -7  -4   36.83   12.85
 -13   7  -4   32.19   12.46
  13  -7   4   38.56   11.22
 -13   7   5   22.41    7.74
 -13   7  -5   25.17    6.35
  13   7  -5   24.97    6.34
  13   7   5   19.37    6.14
 -13  -7   5   32.67    8.82
 -13  -7  -5   25.66    9.43
 -13   7  -5   22.51    6.93
  13  -7   5   21.00    4.06
 -13   7   6   60.61   14.41
 -13   7  -6   72.43   14.62
  13   7  -6   74.95   10.69
  13   7   6   61.72   14.22
 -13  -7   6   60.72   15.71
 -13  -7  -6   57.62   19.53
 -13   7  -6   53.87   12.15
  13  -7   6   58.89    8.19
 -13   7   7   35.78    8.47
 -13   7  -7   32.38    9.93
  13   7  -7   36.85    6.77
  13   7   7   34.32    4.48
 -13  -7   7   33.43    9.76
 -13  -7  -7   31.12    9.13
 -13   7  -7   29.33   11.95
  13  -7   7   28.53    7.78
 -13   7   8   11.03    4.73
 -13   7  -8   15.09    4.89
  13   7  -8   15.00    4.43
 -13  -7   8    8.37    3.38
 -13  -7  -8   18.34    6.48
 -13   7  -8    9.66    6.87
  13  -7   8    8.39    2.98
 -13   7   9   33.04    9.27
 -13   7  -9   34.37    5.23
  13   7  -9   33.67    8.48
 -13  -7   9   34.55   10.94
 -13  -7  -9   26.88   13.07
 -13   7  -9   28.24   11.10
  13  -7   9   21.41    6.63
 -13   7  10   13.81    3.49
 -13   7 -10    9.65    3.56
  13   7 -10    8.88    3.34
 -13  -7  10   13.31    4.27
 -13  -7 -10    6.16    2.45
 -13   7 -10    5.16    2.58
  13  -7  10    6.99    4.71
 -13   7  11    4.14    3.49
 -13   7 -11    1.48    2.37
  13   7 -11    1.51    2.61
 -13  -7  11   10.75    4.57
 -13  -7 -11    2.37    1.84
 -13   7 -11    6.10    3.00
  13  -7  11    2.89    3.10
 -13   8   0   22.08    5.42
  13   8   0   24.67    6.65
 -13  -8   0   17.58    4.22
 -13   8   1    2.02    1.66
 -13   8  -1    5.01    2.64
  13   8  -1    4.37    3.13
  13   8   1    2.53    1.89
 -13  -8   1    2.47    2.35
 -13  -8  -1    2.21    2.51
 -13   8   2    4.23    3.01
 -13   8  -2    8.43    3.74
  13   8  -2    7.99    3.38
  13   8   2    5.94    2.82
 -13  -8   2    4.32    1.97
 -13  -8  -2    4.98    1.99
 -13   8   3   48.63   12.22
 -13   8  -3   47.73   11.34
  13   8  -3   53.39   17.92
  13   8   3   43.16   13.24
 -13  -8   3   57.27   10.91
 -13  -8  -3   54.85   20.24
 -13   8   4    6.97    2.58
 -13   8  -4   11.54    2.79
  13   8  -4   16.41    4.55
  13   8   4   10.92    3.35
 -13  -8   4   16.18    8.83
 -13  -8  -4    6.64    5.11
 -13   8  -4   12.49    3.27
  13  -8   4    7.41    2.89
 -13   8   5   88.52    8.16
 -13   8  -5   72.29   16.39
  13   8  -5  100.97   11.44
  13   8   5   78.49   11.73
 -13  -8   5   82.98   23.25
 -13  -8  -5   84.37   24.07
 -13   8  -5   74.54   13.92
  13  -8   5   93.34    8.10
 -13   8   6   13.84    3.15
 -13   8  -6   14.55    3.98
  13   8  -6   14.61    4.49
  13   8   6   11.62    4.99
 -13  -8   6   14.38    3.99
 -13  -8  -6   10.40    3.85
  13  -8   6   16.93    5.95
 -13   8   7  113.57   25.42
 -13   8  -7  120.50   17.37
  13   8  -7  139.28   19.64
 -13  -8   7  109.68   32.67
 -13  -8  -7   99.36   30.37
 -13   8  -7  123.19    7.33
  13  -8   7  114.73   11.48
 -13   8   8   12.84    3.32
  13   8  -8   10.42    2.83
 -13  -8   8    8.95    5.02
 -13  -8  -8   14.40    4.45
 -13   8  -8    6.47    3.08
  13  -8   8    8.06    2.60
 -13   8   9   26.19    7.14
 -13   8  -9   22.04    4.81
  13   8  -9   37.64    5.84
 -13  -8   9   30.70    6.32
 -13  -8  -9   23.17    9.62
 -13   8  -9   18.26    6.56
  13  -8   9   19.77    4.95
 -13   8  10    5.48    2.77
 -13   8 -10   -3.77    2.56
  13   8 -10    0.01    2.39
 -13  -8  10   -2.89    3.60
 -13  -8 -10    1.40    2.67
 -13   8 -10    1.03    2.25
  13  -8  10    7.22    5.09
 -13   9   0   -0.74    2.88
  13   9   0    3.70    2.86
 -13  -9   0    0.32    2.99
 -13   9   1   66.71   16.82
 -13   9  -1   80.15    7.99
  13   9  -1   65.88   18.26
  13   9   1   63.43   16.90
 -13  -9   1   62.90   19.15
 -13  -9  -1   70.17   22.85
 -13   9   2    7.15    2.89
 -13   9  -2    7.84    3.43
  13   9  -2    8.89    2.88
  13   9   2   10.15    2.76
 -13  -9   2    4.38    4.81
 -13  -9  -2   14.12    7.07
 -13   9   3   23.24    6.74
 -13   9  -3   18.03    4.22
  13   9  -3   27.05    7.09
  13   9   3   18.43    5.94
 -13  -9   3   17.50    6.35
 -13  -9  -3   33.44    7.95
 -13   9   4   -1.41    3.17
 -13   9  -4    0.28    1.70
  13   9  -4    2.25    2.20
  13   9   4   -1.30    2.50
 -13  -9   4   -1.11    4.28
 -13  -9  -4   -0.62    3.50
  13  -9   4    1.96    2.88
 -13   9   5    5.68    2.79
 -13   9  -5    7.61    3.22
  13   9  -5   13.66    4.38
  13   9   5   10.94    4.51
 -13  -9   5   11.68    3.63
 -13  -9  -5    7.16    2.68
  13  -9   5    7.92    4.08
 -13   9   6   48.65   14.04
 -13   9  -6   48.48   13.97
  13   9  -6   54.08   16.43
  13   9   6   62.11    7.06
 -13  -9   6   57.88   20.31
 -13  -9  -6   58.69    9.32
  13  -9   6   45.73    9.36
 -13   9   7    4.05    2.00
 -13   9  -7    1.16    1.66
  13   9  -7    1.92    1.14
 -13  -9   7    4.38    3.22
 -13  -9  -7    5.34    3.74
 -13   9  -7    0.80    1.42
  13  -9   7   -0.42    2.92
 -13   9   8    1.65    1.71
 -13   9  -8    0.05    1.39
  13   9  -8    1.44    1.58
 -13  -9   8    3.92    3.05
 -13  -9  -8    1.35    2.14
 -13   9  -8   -0.35    2.32
  13  -9   8   -3.15    3.31
 -13   9   9    4.91    4.76
 -13   9  -9    3.34    4.00
  13   9  -9    4.55    3.81
 -13  -9   9    8.64    3.24
 -13  -9  -9    6.23    4.76
 -13   9  -9    8.94    3.14
  13  -9   9    1.36    1.93
 -13  10   0    5.73    3.20
  13  10   0    2.56    2.17
 -13 -10   0    2.60    4.52
 -13  10   1   59.05   16.26
 -13  10  -1   48.07   11.67
  13  10  -1   57.72    6.78
  13  10   1   48.34   18.10
 -13 -10   1   55.12   17.13
 -13 -10  -1   50.60    7.66
 -13  10   2   34.92    6.38
 -13  10  -2   27.71    5.61
  13  10  -2   36.04    7.31
  13  10   2   31.22   10.34
 -13 -10   2   43.95   10.06
 -13 -10  -2   36.96    5.60
 -13  10   3   21.94    4.55
 -13  10  -3   19.99    4.81
  13  10  -3   19.83    7.22
  13  10   3   16.57    5.70
 -13 -10   3   18.78    5.52
 -13 -10  -3   19.44    7.35
 -13  10   4    5.42    2.20
 -13  10  -4    9.62    3.28
  13  10  -4    4.65    2.89
  13  10   4    7.99    2.49
 -13 -10   4    6.80    2.87
 -13 -10  -4    5.20    3.84
  13 -10   4    7.82    3.85
 -13  10   5   19.08    5.75
 -13  10  -5   17.63    3.82
  13  10  -5   12.25    2.82
  13  10   5   13.27    3.55
 -13 -10   5   19.59    6.88
 -13 -10  -5   17.82    4.63
  13 -10   5   13.14    4.39
 -13  10   6   12.87    3.88
 -13  10  -6   13.10    3.34
  13  10  -6    7.37    3.27
  13  10   6    9.60    3.62
 -13 -10   6    9.01    3.57
 -13 -10  -6    6.20    3.37
  13 -10   6    5.33    4.09
 -13  10   7    2.95    2.74
 -13  10  -7    2.34    2.86
  13  10  -7    9.77    5.11
 -13 -10   7    7.53    5.18
 -13 -10  -7    8.65    2.73
  13 -10   7    7.16    3.94
 -13  11   0   40.96   14.61
  13  11   0   43.17   12.43
 -13 -11   0   42.19    7.12
 -13  11   1    2.84    2.59
 -13  11  -1   11.12    4.68
  13  11  -1    3.06    2.45
  13  11   1    8.51    3.82
 -13 -11   1    5.63    5.44
 -13 -11  -1    8.94    4.90
 -13  11   2   16.70    4.08
 -13  11  -2   15.32    3.11
  13  11  -2   21.99    5.16
  13  11   2   11.18    4.58
 -13 -11   2   10.93    5.85
 -13 -11  -2   15.86    5.72
 -13  11   3   10.24    4.86
 -13  11  -3   -0.74    2.87
  13  11  -3    2.68    2.72
  13  11   3    3.06    2.23
 -13 -11   3    5.68    3.82
 -13 -11  -3    7.81    4.73
 -13  11   4   15.53    6.38
 -13  11  -4   10.23    4.18
  13  11  -4   13.12    5.05
  13  11   4   14.88    5.13
 -13 -11   4    9.54    4.48
 -13 -11  -4   13.04    5.20
 -13  11   5   48.71   12.11
 -13  11  -5   43.77   12.41
  13  11  -5   48.52   13.14
  13  11   5   40.96   13.18
 -13 -11   5   54.56   12.37
 -13 -11  -5   53.27    7.75
  13 -11   5   48.16    5.98
 -13  12   0    1.37    2.14
  13  12   0    1.57    2.17
 -13 -12   0   -0.82    3.95
 -13  12   1    2.24    3.20
 -13  12  -1    1.66    2.55
  13  12  -1    0.48    1.72
  13  12   1    2.51    2.25
 -13 -12   1    3.10    2.54
 -13 -12  -1    2.74    2.24
 -13  12   2    1.93    2.64
 -13  12  -2   -0.61    3.15
 -13 -12   2   -3.23    4.19
 -13 -12  -2   -0.70    4.06
 -14   0   0  406.09   12.13
 -14   0   0  418.87   12.85
 -14   0   1   16.17    3.61
 -14   0  -1   18.88    5.18
 -14   0   1   19.23    8.41
 -14   0  -1   16.76    5.53
 -14   0   2   25.62    6.56
 -14   0  -2   22.47    5.88
 -14   0   2   21.45    7.06
 -14   0  -2   17.83    6.62
 -14   0   3   38.18    9.17
 -14   0  -3   32.64    8.49
 -14   0   3   36.21   11.25
 -14   0  -3   32.46   12.23
 -14   0   4  128.26   13.30
 -14   0  -4  129.45    8.04
 -14   0   4  114.34   12.23
 -14   0  -4  122.98   11.39
 -14   0   5   39.54   10.93
 -14   0  -5   31.04    8.14
 -14   0   5   31.84    9.34
 -14   0  -5   34.87   14.15
 -14   0   6    5.79    2.48
 -14   0   6    3.70    2.13
 -14   0  -6    2.57    2.06
 -14   0   7   13.10    2.52
 -14   0  -7   12.18    4.54
 -14   0   7   13.06    5.37
 -14   0  -7   14.03    3.75
 -14   0   8   72.36   14.40
 -14   0  -8   57.68   14.42
 -14   0   8   68.90   11.01
 -14   0  -8   59.50   17.80
 -14   0   9   11.33    3.24
 -14   0  -9   13.88    3.14
 -14   0  -9    9.80    4.77
 -14   0  10    0.80    1.51
 -14   0 -10    4.45    3.07
 -14   0  11    7.96    3.56
 -14   0 -11    4.73    3.51
 -14   0  12   67.67   20.70
 -14   0 -12   60.67   22.08
 -14  -1   0   12.98    4.69
 -14   1   0   13.99    3.03
 -14  -1   0   11.11    4.61
 -14   1   0   11.45    5.23
 -14  -1   1   72.74    7.51
 -14  -1  -1   72.94   15.24
 -14   1   1   75.15    5.92
 -14   1  -1   78.53    9.97
 -14  -1   1   79.43    5.40
 -14  -1  -1   75.45    5.36
 -14   1   1   70.28   13.61
 -14   1  -1   77.93    7.89
 -14  -1   2   44.73   13.23
 -14  -1  -2   47.95   11.22
 -14   1   2   46.09   10.43
 -14   1  -2   43.10    8.68
 -14  -1   2   45.14   13.89
 -14   1   2   43.57    4.50
 -14  -1  -2   36.04   16.53
 -14   1  -2   38.52   14.22
 -14  -1  -3   71.23   17.05
 -14   1   3   78.08    8.14
 -14   1  -3   74.19    6.20
 -14  -1   3   73.05    8.36
 -14   1   3   68.60    9.10
 -14  -1  -3   67.73   16.82
 -14   1  -3   70.07   11.46
 -14   1   4   56.80   17.76
 -14  -1  -4   53.24   12.48
 -14   1  -4   56.07    9.97
 -14  -1   4   54.70   10.07
 -14   1   4   37.42   14.14
 -14  -1  -4   51.62   15.86
 -14   1  -4   48.40   14.73
 -14   1   5    0.39    1.98
 -14  -1  -5    0.81    1.14
 -14   1  -5    1.72    1.06
  14   1  -5    4.45    2.40
 -14  -1   5    2.57    2.75
 -14   1   5   -0.13    1.08
 -14  -1  -5   -1.80    2.75
 -14   1  -5   -0.29    2.31
 -14   1   6    4.52    4.70
 -14  -1  -6   11.84    3.19
 -14   1  -6    9.91    2.70
  14   1  -6    9.30    2.15
 -14  -1   6   10.36    2.87
 -14   1   6    8.18    2.92
 -14  -1  -6   11.26    4.12
 -14   1  -6   11.23    4.35
 -14   1   7    2.07    1.69
 -14  -1  -7    1.87    1.23
 -14   1  -7    3.65    1.66
  14   1  -7    5.92    3.13
 -14  -1   7    3.08    1.94
 -14  -1  -7    1.58    3.37
 -14   1  -7    2.21    2.82
 -14   1   8   37.18    9.95
 -14  -1  -8   37.53    9.49
 -14   1  -8   29.10    8.72
  14   1  -8   38.62    6.08
 -14  -1   8   29.13   14.52
 -14  -1  -8   31.38    8.44
 -14   1  -8   31.12   10.46
 -14   1   9   53.45   13.96
 -14   1  -9   44.27    7.57
 -14  -1   9   37.26   16.98
 -14  -1  -9   68.06    6.66
 -14   1  -9   55.18   19.18
 -14   1  10    3.05    2.92
 -14  -1 -10    6.64    5.49
 -14   1 -10   11.96    5.75
 -14  -1  11    0.52    2.91
 -14   1  11    1.51    1.36
 -14  -1 -11   -2.90    3.53
 -14   1 -11    2.85    2.20
 -14  -1  12    2.05    2.74
 -14   1  12    6.93    4.15
 -14  -1 -12    3.52    2.06
 -14   1 -12    0.57    2.69
 -14   2   0    9.00    2.09
  14   2   0    6.22    2.47
 -14  -2   0    9.19    4.35
 -14   2   0    9.09    3.96
 -14   2   1   19.71    6.88
 -14   2  -1   19.06    3.67
  14   2  -1   16.43    5.15
 -14  -2   1   18.24    3.97
 -14  -2  -1   23.36    4.94
 -14   2   1   19.58    5.94
 -14   2  -1   15.76    4.76
 -14  -2  -2   40.25    7.43
 -14   2   2   35.37    9.07
 -14   2  -2   31.25    7.47
  14   2  -2   32.66    9.61
 -14  -2   2   35.56   10.12
 -14  -2  -2   36.44    9.37
 -14   2   2   29.16   11.19
 -14   2  -2   28.55    9.74
 -14  -2  -3   21.27    5.26
 -14   2   3   19.45    7.55
 -14   2  -3   19.49    4.53
  14   2  -3   21.94    4.24
 -14  -2   3   18.61    5.28
 -14   2   3   19.43    6.17
 -14  -2  -3   23.37    9.82
 -14   2  -3   27.08    9.14
 -14  -2  -4   14.42    3.39
 -14   2   4    9.22    5.06
 -14   2  -4   16.32    4.11
  14   2  -4   13.31    3.69
 -14  -2   4   12.60    3.93
 -14   2   4   11.83    5.05
 -14  -2  -4    6.85    3.29
 -14   2  -4   13.91    4.17
 -14  -2  -5   37.34    8.29
 -14   2   5   35.47    7.76
 -14   2  -5   35.70    6.17
  14   2  -5   35.35    9.45
 -14  -2   5   32.41   12.09
 -14   2   5   34.70    6.29
 -14  -2  -5   33.60    9.34
 -14   2  -5   31.73   10.38
 -14  -2  -6   80.36   18.63
 -14   2   6   82.39   17.68
 -14   2  -6   97.92    8.97
  14   2  -6   77.90   17.16
 -14  -2   6   88.04    6.34
 -14  -2  -6   93.11   16.95
 -14   2  -6   80.74    8.55
 -14   2   7   23.02    5.78
 -14  -2  -7   18.51    2.99
 -14   2  -7   17.86    4.01
  14   2  -7   21.75    4.64
 -14  -2   7   19.22    6.15
 -14  -2  -7   22.95    6.28
 -14   2  -7   21.54    5.92
 -14   2   8    1.93    1.93
 -14  -2  -8   -0.11    1.83
 -14   2  -8    1.73    0.71
  14   2  -8    1.04    1.86
 -14  -2   8    1.62    1.58
 -14  -2  -8    2.11    3.28
 -14   2  -8    3.29    2.30
 -14   2   9   23.09    5.99
 -14   2  -9   20.01    5.42
  14   2  -9   25.64    4.77
 -14  -2   9   18.41    6.48
 -14  -2  -9   25.52    8.64
 -14   2  -9   19.97    6.95
 -14   2  10   57.12   13.09
  14   2 -10   68.70    5.76
 -14  -2  10   50.98   16.11
 -14  -2 -10   54.83    6.14
 -14   2 -10   49.50   12.42
 -14   2  11   12.45    4.47
  14   2 -11   13.86    4.50
 -14  -2  11   20.06    4.33
 -14  -2 -11   13.45    3.92
 -14   2 -11    6.90    2.76
 -14   2  12    1.11    2.21
  14   2 -12    1.08    1.97
 -14  -2 -12    4.59    2.89
 -14   2 -12    9.47    3.69
 -14   3   0   25.47    6.95
  14   3   0   26.39    6.80
 -14  -3   0   16.05    5.28
 -14   3   0   20.82    7.56
 -14   3   1    7.35    2.83
 -14   3  -1    8.85    2.49
  14   3  -1    7.27    2.30
  14   3   1   10.11    3.63
 -14  -3   1    8.14    4.55
 -14  -3  -1   10.26    4.07
 -14   3   1    7.78    3.18
 -14   3  -1    9.42    3.96
 -14   3   2   42.29   11.84
 -14   3  -2   42.96    9.42
  14   3  -2   53.47    5.94
  14   3   2   42.89    9.27
 -14  -3   2   47.32    6.86
 -14  -3  -2   37.75   11.80
 -14   3   2   26.27   11.58
 -14   3  -2   38.56   13.36
 -14   3   3   15.04    3.81
 -14   3  -3   23.20    3.96
  14   3  -3   19.34    5.27
  14   3   3   23.95    4.12
 -14  -3   3   27.50    4.88
 -14  -3  -3   14.09    2.79
 -14   3   3   15.45    7.08
 -14   3  -3   18.72    5.82
 -14  -3  -4    9.41    3.01
 -14   3   4    8.98    3.93
 -14   3  -4   13.30    3.70
  14   3  -4    8.95    4.66
 -14  -3   4   11.71    5.58
 -14  -3  -4    7.42    4.21
 -14   3  -4    9.59    4.45
 -14  -3  -5   26.41    7.87
 -14   3   5   23.49    6.08
 -14   3  -5   28.04    5.45
  14   3  -5   28.77    5.56
 -14  -3   5   28.75    9.27
 -14  -3  -5   23.03   10.76
 -14   3  -5   27.69    4.46
 -14  -3  -6   22.85    7.31
 -14   3   6   26.15    6.38
 -14   3  -6   26.07    7.06
  14   3  -6   34.25    5.38
 -14  -3   6   23.43    6.85
 -14  -3  -6   26.10    9.97
 -14   3  -6   25.30   10.89
 -14  -3  -7   92.66    5.97
 -14   3   7   96.66   14.23
 -14   3  -7   77.76   16.10
  14   3  -7  106.58    7.22
 -14  -3   7   81.67    9.93
 -14  -3  -7   78.82   28.05
 -14   3  -7   83.66   14.82
 -14  -3  -8    5.63    2.24
 -14   3   8    3.25    1.59
 -14   3  -8    7.89    1.67
  14   3  -8   13.85    4.44
 -14  -3   8    3.50    2.30
 -14  -3  -8    6.27    3.98
 -14   3  -8    2.84    1.78
 -14   3   9   29.80    7.10
 -14   3  -9   25.16    7.23
  14   3  -9   36.34    8.43
 -14  -3   9   32.32    7.90
 -14  -3  -9   29.00    8.15
 -14   3  -9   20.83    6.86
 -14   3  10   15.16    4.80
  14   3 -10   23.07    5.04
 -14  -3  10   21.24    4.66
 -14  -3 -10   18.99    5.93
 -14   3 -10   15.70    4.95
 -14   3  11   14.58    5.49
  14   3 -11    9.46    3.40
 -14  -3  11    8.78    3.61
 -14  -3 -11   11.28    3.40
 -14   3 -11    9.36    5.05
 -14   3  12    8.27    3.45
  14   3 -12    6.74    3.17
 -14  -3  12    7.01    3.20
 -14  -3 -12    7.67    2.78
 -14   3 -12    8.02    3.98
 -14   4   0    4.21    2.57
  14   4   0    3.20    2.85
 -14  -4   0   -1.28    3.33
 -14   4   0    2.79    1.32
 -14   4   1   68.36   12.98
 -14   4  -1   91.41    7.85
  14   4  -1   81.49    7.52
  14   4   1   86.87   11.40
 -14  -4   1   73.88   20.56
 -14  -4  -1   69.13    9.79
 -14   4   1   71.23    4.30
 -14   4  -1   81.89    4.88
 -14   4   2    7.76    2.98
 -14   4  -2    2.56    2.12
  14   4  -2    3.79    3.05
  14   4   2    5.14    2.32
 -14  -4   2    2.36    2.56
 -14  -4  -2    1.41    3.04
 -14   4  -2    2.06    1.84
 -14   4   3   30.14   11.96
 -14   4  -3   43.67   10.34
  14   4  -3   38.36   14.45
  14   4   3   38.50   11.13
 -14  -4   3   44.22   16.59
 -14  -4  -3   45.31   12.71
 -14   4  -3   39.30   14.22
 -14   4   4   30.05    8.68
 -14   4  -4   26.14    6.97
  14   4  -4   32.41    5.48
  14   4   4   27.27    9.06
 -14  -4   4   31.33   11.02
 -14  -4  -4   30.27    8.11
 -14   4  -4   26.63    8.88
 -14   4   5   24.53    4.15
 -14   4  -5   30.15    7.32
  14   4  -5   21.41    8.93
  14   4   5   24.46    5.19
 -14  -4   5   31.07    7.31
 -14  -4  -5   18.46    8.82
 -14   4  -5   24.85   10.39
 -14  -4  -6   11.52    3.85
 -14   4   6   11.89    4.39
 -14   4  -6    5.56    2.52
  14   4  -6    7.18    5.08
 -14  -4   6    4.69    3.45
 -14  -4  -6    4.99    3.76
 -14   4  -6    9.77    3.24
 -14  -4  -7    9.14    3.13
 -14   4   7   12.82    4.70
 -14   4  -7    3.97    2.14
  14   4  -7   11.89    3.44
 -14  -4   7    4.17    5.14
 -14  -4  -7   11.35    3.33
 -14   4  -7    7.10    2.09
 -14  -4  -8   42.53   11.34
 -14   4   8   42.87   10.10
 -14   4  -8   40.32   11.09
  14   4  -8   44.04    9.54
 -14  -4   8   54.04   13.84
 -14  -4  -8   47.77   17.60
 -14   4  -8   35.79   13.60
 -14   4   9    8.47    3.36
 -14   4  -9   10.27    3.94
  14   4  -9   11.93    5.58
 -14  -4   9    6.69    3.20
 -14  -4  -9   10.63    3.89
 -14   4  -9   10.04    3.17
 -14   4  10    3.45    1.74
  14   4 -10    1.35    2.28
 -14  -4  10   -2.38    2.81
 -14  -4 -10   -0.29    2.19
 -14   4 -10    1.31    1.19
 -14   4  11   19.57    6.32
  14   4 -11   27.09    4.59
 -14  -4  11   24.35   11.91
 -14  -4 -11   28.98    5.79
 -14   4 -11   27.20    9.19
 -14   5   0   10.93    2.51
  14   5   0   11.47    3.63
 -14  -5   0    7.75    3.89
 -14   5   0    6.48    3.54
 -14   5   1   39.42   12.07
 -14   5  -1   42.09   10.53
  14   5  -1   40.90   13.72
  14   5   1   47.31   11.69
 -14  -5   1   35.84   13.15
 -14  -5  -1   52.35   11.16
 -14   5  -1   31.71   12.70
 -14   5   2   22.26    6.54
 -14   5  -2   22.62    4.59
  14   5  -2   23.51    6.23
  14   5   2   24.36    4.05
 -14  -5   2   16.95    6.70
 -14  -5  -2   20.07    9.02
 -14   5  -2   17.29    6.85
 -14   5   3   27.92    6.71
 -14   5  -3   33.04    9.37
  14   5  -3   33.17   11.90
  14   5   3   35.50    4.20
 -14  -5   3   38.82    8.18
 -14  -5  -3   35.64   12.45
 -14   5  -3   23.18   10.06
 -14   5   4   38.80    8.27
 -14   5  -4   35.72    9.10
  14   5  -4   34.56   10.39
  14   5   4   38.66   11.29
 -14  -5   4   34.70   11.43
 -14  -5  -4   33.85    7.96
 -14   5  -4   34.94   11.13
 -14   5   5   23.19    6.54
 -14   5  -5   36.16    9.42
  14   5  -5   29.00    8.77
  14   5   5   35.63   12.11
 -14  -5   5   24.82   10.76
 -14  -5  -5   25.40   11.41
 -14   5  -5   27.21    9.50
 -14   5   6    1.46    2.86
 -14   5  -6    5.70    2.09
  14   5  -6    5.54    3.85
  14   5   6    6.59    1.86
 -14  -5   6    7.83    3.48
 -14  -5  -6    4.07    2.21
 -14   5  -6    4.69    2.24
 -14  -5  -7   10.99    2.55
 -14   5   7    9.70    4.72
 -14   5  -7    5.75    3.17
  14   5  -7   11.13    2.87
 -14  -5   7    7.88    4.58
 -14  -5  -7    5.75    3.23
 -14   5  -7    6.12    2.98
 -14   5   8   45.28   13.93
 -14   5  -8   45.58    7.53
  14   5  -8   52.58   15.34
 -14  -5   8   48.15   15.17
 -14  -5  -8   51.15   13.92
 -14   5  -8   40.31   14.78
 -14   5   9    4.14    2.39
 -14   5  -9    6.11    2.11
  14   5  -9    6.64    3.59
 -14  -5   9    3.97    3.83
 -14  -5  -9    3.99    3.22
 -14   5  -9    5.11    2.29
 -14   5  10   13.97    2.92
 -14   5 -10    7.46    2.80
  14   5 -10    8.49    3.13
 -14  -5  10   10.47    4.14
 -14  -5 -10    8.50    4.99
 -14   5 -10    5.44    4.20
 -14   5  11   20.35    5.85
  14   5 -11   20.43    5.50
 -14  -5  11   15.47    3.83
 -14  -5 -11   18.02    5.47
 -14   5 -11    9.74    6.59
  14  -5  11   16.06    4.83
 -14   6   0    4.98    3.14
  14   6   0    6.66    3.22
 -14  -6   0    6.20    5.76
 -14   6   1   11.08    2.77
 -14   6  -1   14.21    3.59
  14   6  -1   13.73    3.58
  14   6   1   14.58    5.25
 -14  -6   1    8.69    4.45
 -14  -6  -1   13.37    6.23
 -14   6   2   37.47    7.53
 -14   6  -2   31.18    6.33
  14   6  -2   41.12    8.37
  14   6   2   31.31    7.97
 -14  -6   2   39.62   10.30
 -14  -6  -2   31.95    8.47
 -14   6  -2   22.20   10.56
 -14   6   3   29.18    8.37
 -14   6  -3   30.40    7.07
  14   6  -3   38.14    7.42
  14   6   3   29.31    9.02
 -14  -6   3   30.68    5.60
 -14  -6  -3   30.83    8.97
 -14   6  -3   22.65   10.99
 -14   6   4    6.12    2.70
 -14   6  -4    5.13    2.28
  14   6  -4    6.80    2.25
  14   6   4    8.73    3.83
 -14  -6   4   10.15    4.80
 -14  -6  -4    7.05    4.13
 -14   6  -4    5.78    2.79
 -14   6   5   81.90   20.73
 -14   6  -5   84.67   16.26
  14   6  -5   93.55    7.10
  14   6   5   98.43    6.10
 -14  -6   5   79.68   26.68
 -14  -6  -5   78.38   21.96
 -14   6  -5   84.81    5.38
 -14   6   6    2.06    2.17
 -14   6  -6    0.71    1.35
  14   6  -6    5.75    3.74
  14   6   6    3.50    2.25
 -14  -6   6    4.18    1.90
 -14  -6  -6    2.97    2.45
 -14   6  -6    1.00    2.36
 -14   6   7   61.01   20.16
 -14   6  -7   57.52   13.93
  14   6  -7   55.51   16.96
  14   6   7   66.98    4.82
 -14  -6   7   68.59   16.70
 -14  -6  -7   63.31   20.44
 -14   6  -7   55.20   19.75
 -14   6   8    2.76    2.20
 -14   6  -8    1.31    1.54
  14   6  -8    2.60    1.69
 -14  -6   8   -1.57    3.20
 -14  -6  -8    2.93    3.99
 -14   6  -8    2.16    2.43
 -14   6   9   28.48    4.93
 -14   6  -9   26.03    7.68
  14   6  -9   28.70    7.75
 -14  -6   9   31.49    9.01
 -14  -6  -9   28.73   11.29
 -14   6  -9   19.73    7.00
 -14   6  10   22.93    7.68
 -14   6 -10   25.32    5.24
  14   6 -10   26.64    8.49
 -14  -6  10   31.59    9.70
 -14  -6 -10   25.97    9.23
 -14   6 -10   25.05    7.07
 -14   7   0    4.31    2.91
  14   7   0    7.02    4.08
 -14  -7   0    6.98    3.24
 -14   7   1   23.38    5.57
 -14   7  -1   17.08    4.55
  14   7  -1   20.99    4.88
  14   7   1   18.74    3.93
 -14  -7   1    6.58    5.05
 -14  -7  -1   23.08    7.28
 -14   7   2   30.80    9.21
 -14   7  -2   27.14    4.66
  14   7  -2   24.56    7.32
  14   7   2   26.53    7.50
 -14  -7   2   23.73    7.33
 -14  -7  -2   27.52    9.96
 -14   7   3    2.02    1.67
 -14   7  -3    1.97    1.01
  14   7  -3    3.03    3.03
  14   7   3    2.31    2.83
 -14  -7   3    0.57    4.35
 -14  -7  -3    4.12    2.58
 -14   7   4   42.08    8.21
 -14   7  -4   49.09   10.21
  14   7  -4   48.95   13.09
  14   7   4   41.81   13.57
 -14  -7   4   46.92   10.50
 -14  -7  -4   43.98   10.09
 -14   7  -4   33.50   16.01
 -14   7   5   31.97    7.46
 -14   7  -5   26.93    4.56
  14   7  -5   35.96    6.27
  14   7   5   19.50    6.85
 -14  -7   5   27.19    8.48
 -14  -7  -5   25.21    8.26
 -14   7  -5   17.97    8.87
 -14   7   6   32.98    9.04
 -14   7  -6   40.32   11.42
  14   7  -6   37.50   11.11
  14   7   6   43.69    4.10
 -14  -7   6   42.65   12.24
 -14  -7  -6   38.40    7.37
 -14   7  -6   29.68   11.46
 -14   7   7   22.94    7.25
 -14   7  -7   19.30    4.02
  14   7  -7   19.67    6.77
 -14  -7   7   23.16    6.95
 -14  -7  -7   22.24    5.11
 -14   7  -7   18.16    6.39
 -14   7   8   42.66    9.84
 -14   7  -8   41.88    8.63
  14   7  -8   35.42   10.72
 -14  -7   8   43.37   13.48
 -14  -7  -8   49.98    9.96
 -14   7  -8   39.09   14.19
 -14   7   9   -3.18    2.75
 -14   7  -9    3.50    3.25
  14   7  -9    1.95    2.22
 -14  -7   9    3.19    2.87
 -14  -7  -9    2.43    1.65
 -14   7  -9    0.03    2.16
 -14   8   0   61.90   15.90
  14   8   0   74.79   10.71
 -14  -8   0   57.53   22.99
 -14   8   1   36.68   10.69
 -14   8  -1   30.52    8.05
  14   8  -1   39.01   11.35
  14   8   1   28.20    6.95
 -14  -8   1   31.94    5.88
 -14  -8  -1   38.41   10.37
 -14   8   2    4.67    2.53
 -14   8  -2    0.85    2.87
  14   8  -2    4.39    1.84
  14   8   2    6.43    3.06
 -14  -8   2    2.61    2.95
 -14  -8  -2    4.03    2.26
 -14   8   3    5.78    3.75
 -14   8  -3   17.29    3.00
  14   8  -3   17.52    4.66
  14   8   3   15.71    6.01
 -14  -8   3   18.95    5.79
 -14   8   4   33.96   10.14
 -14   8  -4   32.53    7.25
  14   8  -4   38.72    9.46
  14   8   4   29.97   11.98
 -14  -8   4   39.38   12.75
 -14  -8  -4   40.14    9.96
 -14   8   5   20.35    5.19
 -14   8  -5   19.99    5.51
  14   8  -5   18.35    4.27
  14   8   5   18.42    4.15
 -14  -8   5   14.39    4.43
 -14  -8  -5    7.04    4.62
 -14   8   6    6.64    3.56
 -14   8  -6    3.33    3.28
  14   8  -6    2.30    2.30
  14   8   6    4.57    2.82
 -14  -8   6    6.20    4.61
 -14  -8  -6    5.72    4.25
 -14   8  -6    2.68    2.20
 -14   8   7    4.23    2.79
 -14   8  -7    5.77    3.21
  14   8  -7    3.78    3.80
 -14  -8   7    6.29    2.80
 -14  -8  -7    6.60    3.94
 -14   8  -7    4.37    3.40
 -14   8   8   20.54    4.65
 -14   8  -8   27.33    6.98
  14   8  -8   20.85    5.87
 -14  -8   8   25.37    8.93
 -14  -8  -8   26.04    7.17
 -14   8  -8   21.35    8.82
 -14   9   0   17.42    3.91
  14   9   0   30.55    5.01
 -14  -9   0   20.33    6.22
 -14   9   1    0.87    1.63
 -14   9  -1   -0.23    2.93
  14   9  -1    2.66    2.33
  14   9   1    5.63    2.74
 -14  -9   1    9.26    4.70
 -14  -9  -1    2.24    2.60
 -14   9   2   35.70    9.70
 -14   9  -2   37.30    7.89
  14   9  -2   42.34   12.82
  14   9   2   32.05   12.10
 -14  -9   2   40.35    7.46
 -14  -9  -2   33.87   11.81
 -14   9   3    5.18    2.07
 -14   9  -3    5.40    2.61
  14   9  -3    5.56    3.65
  14   9   3    4.19    1.80
 -14  -9   3    2.29    3.52
 -14  -9  -3    4.87    4.83
 -14   9   4    8.74    2.63
 -14   9  -4   12.51    3.81
  14   9  -4    7.11    4.59
  14   9   4   14.85    4.17
 -14  -9   4   12.94    3.68
 -14  -9  -4   10.41    5.53
 -14   9   5   34.74   10.43
 -14   9  -5   24.71    7.98
  14   9  -5   38.64    9.91
  14   9   5   23.27    8.99
 -14  -9   5   25.19    6.67
 -14  -9  -5   37.03    9.23
 -14   9   6    3.02    2.91
 -14   9  -6    4.25    1.59
  14   9  -6    9.41    4.65
  14   9   6    6.98    3.48
 -14  -9   6    5.70    3.61
 -14  -9  -6    8.60    4.63
 -14   9   7   35.87    5.74
 -14   9  -7   35.97    6.57
 -14  -9  -7   32.98    8.15
 -14  10   0    1.72    2.39
  14  10   0    1.36    1.84
 -14 -10   0    1.28    1.99
 -14  10   1   29.36    7.00
 -14  10  -1   22.96    6.85
  14  10  -1   21.53    5.40
  14  10   1   24.07    6.89
 -14 -10   1   28.79    6.06
 -14 -10  -1   21.84    6.94
 -14  10   2   19.70    5.12
 -14  10  -2   18.45    4.24
  14  10  -2   18.17    7.40
  14  10   2   15.30    6.78
 -14 -10   2   28.11    6.72
 -14 -10  -2   16.36    7.53
 -14  10   3   14.83    3.38
 -14  10  -3    7.04    2.93
  14  10  -3   10.56    5.26
  14  10   3    6.37    3.43
 -14 -10   3    7.13    3.88
 -14 -10  -3    9.60    4.33
 -14  10   4    0.79    2.61
 -14  10  -4    4.13    2.02
  14  10  -4    4.88    4.97
  14  10   4    3.32    2.26
 -14 -10   4    5.13    5.82
 -14 -10  -4    3.75    4.27
 -15   0   0    2.28    2.06
 -15   0   0   -2.71    2.55
 -15   0   1   64.98   18.83
 -15   0  -1   65.51   15.99
 -15   0   1   68.66    5.28
 -15   0  -1   67.65   10.94
 -15   0   2   18.18    4.98
 -15   0  -2   22.70    5.21
 -15   0   2   12.76    4.73
 -15   0  -2   13.32    4.57
 -15   0   3   70.55   17.97
 -15   0  -3   70.45   17.15
 -15   0   3   70.25    5.23
 -15   0  -3   60.34   17.84
 -15   0   4    4.45    2.17
 -15   0  -4    4.59    2.19
 -15   0   4    3.94    2.17
 -15   0  -4    3.53    2.03
 -15   0   5    2.00    2.64
 -15   0  -5    2.49    2.02
 -15   0  -5    2.31    3.02
 -15   0   6    6.86    3.22
 -15   0  -6    8.44    2.82
 -15   0   6    4.92    2.72
 -15   0  -6    3.86    2.07
 -15   0   7    3.13    2.12
 -15   0  -7    3.17    2.30
 -15   0  -7    2.75    3.35
 -15   0   8   16.87    5.80
 -15   0  -8   14.37    3.61
 -15   0  -8   16.46    6.45
 -15   0   9   49.86   15.68
 -15   0  -9   54.96   17.20
 -15   0  10   20.03    5.03
 -15   0 -10   18.86    8.81
 -15  -1   0    3.82    1.62
 -15   1   0   -0.72    2.74
 -15  -1   0    3.10    2.26
 -15   1   0    1.83    1.35
 -15  -1   1   55.34   14.11
 -15  -1  -1   45.05   12.74
 -15   1   1   43.21   11.93
 -15   1  -1   42.12    8.08
 -15  -1   1   51.82    5.35
 -15  -1  -1   41.79   13.68
 -15   1   1   35.83   14.38
 -15   1  -1   55.78    7.29
 -15  -1   2   64.24   14.51
 -15  -1  -2   57.69   13.03
 -15   1   2   58.56   15.49
 -15   1  -2   63.03   14.78
 -15  -1   2   57.21   20.96
 -15   1   2   48.53   16.83
 -15  -1  -2   52.32   19.90
 -15   1  -2   57.10   17.21
 -15  -1   3   14.97    4.13
 -15  -1  -3    7.66    4.36
 -15   1   3   17.25    5.18
 -15   1  -3   12.23    2.30
 -15  -1   3   12.38    3.89
 -15   1   3   12.35    3.16
 -15  -1  -3   13.61    3.49
 -15   1  -3    9.07    4.12
 -15  -1   4    5.45    3.39
 -15   1   4    4.32    4.94
 -15  -1  -4    5.41    2.43
 -15   1  -4    4.11    3.78
 -15  -1   4    4.14    2.63
 -15   1   4    6.68    2.79
 -15  -1  -4    5.98    2.32
 -15   1  -4    4.43    3.18
 -15  -1   5   54.45   12.51
 -15   1   5   55.05   11.52
 -15  -1  -5   49.05   10.60
 -15   1  -5   50.24   10.02
 -15  -1   5   56.28    7.35
 -15   1   5   60.16    4.88
 -15  -1  -5   48.46   18.96
 -15   1  -5   55.12   17.34
 -15  -1   6    1.39    2.18
 -15   1   6    2.71    2.94
 -15  -1  -6    5.65    2.68
 -15   1  -6    2.84    2.20
 -15  -1   6    1.42    2.07
 -15  -1  -6    2.89    2.56
 -15   1  -6    3.22    2.74
 -15  -1   7   37.90   11.46
 -15   1   7   40.41    9.66
 -15  -1  -7   35.56    7.75
 -15   1  -7   31.34    9.61
 -15  -1   7   23.12   13.36
 -15   1  -7   29.11   11.04
 -15  -1   8    1.01    1.65
 -15   1   8    1.56    2.16
 -15  -1  -8    5.04    1.71
 -15   1  -8    2.32    2.14
 -15  -1   8    5.61    2.91
 -15  -1  -8    1.52    1.65
 -15   1  -8    1.82    2.07
 -15  -1   9    7.03    3.68
 -15   1   9    8.15    3.94
 -15  -1  -9    3.78    3.58
 -15   1  -9    3.10    2.56
 -15  -1  10   31.50    8.12
 -15   1  10   29.46    8.29
 -15  -1 -10   28.66   12.12
 -15   1 -10   23.89   11.54
 -15  -2   0   10.50    3.57
 -15   2   0   11.34    3.35
 -15  -2   0    6.40    3.10
 -15   2   0    7.59    2.51
 -15  -2  -1    5.62    2.28
 -15   2   1    2.10    1.15
 -15   2  -1    1.93    2.19
 -15  -2   1    1.38    2.38
 -15  -2  -1    1.18    1.41
 -15   2   1    2.47    2.10
 -15   2  -1    1.66    1.39
 -15  -2  -2    4.91    3.31
 -15   2   2    2.19    1.95
 -15   2  -2    4.66    3.03
  15   2  -2    0.57    1.91
 -15  -2   2   -1.46    2.72
 -15  -2  -2    2.46    1.69
 -15   2   2    2.17    1.67
 -15   2  -2    2.83    1.77
 -15  -2  -3   53.62   13.71
 -15   2   3   47.94   10.65
 -15   2  -3   49.24   11.06
  15   2  -3   44.19   12.44
 -15  -2   3   46.67   15.07
 -15   2   3   45.97    7.26
 -15  -2  -3   44.64    7.96
 -15   2  -3   54.16    7.39
 -15  -2  -4   11.85    3.28
 -15   2   4   17.25    3.81
 -15   2  -4   21.08    4.49
  15   2  -4   14.92    4.64
 -15  -2   4   11.08    5.27
 -15  -2  -4   13.52    7.06
 -15   2  -4   13.87    4.26
 -15  -2  -5    4.91    2.74
 -15   2   5   10.42    3.52
 -15   2  -5    5.58    3.19
  15   2  -5    8.79    3.66
 -15  -2   5   10.86    3.98
 -15  -2  -5    6.67    3.76
 -15   2  -5    9.03    2.88
 -15  -2  -6   26.79    5.77
 -15   2   6   34.38    9.23
 -15   2  -6   32.19    6.39
  15   2  -6   35.40   11.67
 -15  -2   6   27.64   13.91
 -15  -2  -6   43.25    8.60
 -15   2  -6   29.53   15.08
 -15   2   7   23.31    6.85
 -15  -2  -7   22.37    5.66
 -15   2  -7   19.13    3.56
  15   2  -7   26.32    7.81
 -15  -2   7   20.06    8.00
 -15  -2  -7   29.22    9.32
 -15   2  -7   20.95    5.42
 -15   2   8   26.30    5.86
 -15  -2  -8   20.31    6.19
 -15   2  -8   16.29    4.37
  15   2  -8   23.64    5.76
 -15  -2   8   11.64    4.04
 -15  -2  -8   23.35    6.62
 -15   2  -8   14.97    5.33
 -15   2   9   45.83   14.12
  15   2  -9   47.04   15.96
 -15  -2   9   34.92   13.41
 -15  -2  -9   45.84   14.25
 -15   2  -9   47.52   15.81
 -15   2  10    1.02    1.21
  15   2 -10    3.41    2.78
 -15  -2 -10    4.68    4.54
 -15   2 -10    3.34    1.84
 -15   3   0   31.39    7.90
  15   3   0   40.41    8.97
 -15  -3   0   31.68   12.79
 -15   3   0   31.55   12.70
 -15   3   1   26.03    5.78
 -15   3  -1   29.13    6.86
  15   3  -1   26.73    4.93
  15   3   1   29.18    7.65
 -15  -3   1   27.47   10.41
 -15  -3  -1   33.36   10.03
 -15   3   1   22.75    8.58
 -15   3  -1   26.60    9.88
 -15   3   2    3.96    1.90
 -15   3  -2    8.23    3.74
  15   3  -2    5.16    2.51
 -15  -3   2    2.91    2.66
 -15  -3  -2    6.88    2.84
 -15   3   2    8.67    2.42
 -15   3  -2    9.50    3.46
 -15  -3  -3    5.04    3.72
 -15   3   3    8.33    4.32
 -15   3  -3   11.59    3.81
  15   3  -3    9.11    2.15
 -15  -3   3    5.67    3.33
 -15  -3  -3    3.87    2.46
 -15   3  -3    5.88    1.94
 -15  -3  -4   34.75    7.73
 -15   3   4   36.22   10.59
 -15   3  -4   45.23    7.98
  15   3  -4   34.36    9.35
 -15  -3   4   37.29   12.94
 -15  -3  -4   37.07    6.64
 -15   3  -4   35.12   12.46
 -15  -3  -5   26.99    5.97
 -15   3   5   31.06    9.06
 -15   3  -5   33.73    8.81
  15   3  -5   24.48    6.37
 -15  -3   5   34.24   12.46
 -15  -3  -5   28.14    6.30
 -15   3  -5   30.05   13.43
 -15  -3  -6    3.40    2.68
 -15   3   6   -0.42    3.24
 -15   3  -6    3.12    1.93
  15   3  -6    2.01    2.15
 -15  -3   6    6.51    5.23
 -15  -3  -6    2.39    1.77
 -15   3  -6    6.45    3.11
 -15  -3  -7   11.80    2.65
 -15   3   7   11.44    4.03
 -15   3  -7   11.33    2.67
  15   3  -7    9.49    3.62
 -15  -3   7   10.35    4.48
 -15  -3  -7   14.12    5.42
 -15   3  -7    8.27    4.30
 -15   3   8   45.34   10.82
 -15   3  -8   40.03    7.70
  15   3  -8   51.39   13.24
 -15  -3   8   36.37   15.63
 -15  -3  -8   43.53   14.88
 -15   3  -8   37.74   17.46
 -15   3   9    1.59    1.39
 -15   3  -9    0.04    0.97
  15   3  -9    3.01    1.52
 -15  -3   9    1.54    2.35
 -15  -3  -9    4.62    3.92
 -15   3  -9    2.59    2.37
 -15   3  10    5.12    3.27
  15   3 -10    8.23    3.94
 -15  -3  10    5.61    3.99
 -15  -3 -10    3.14    2.14
 -15   3 -10    5.81    2.95
 -15   4   0   49.69   13.99
  15   4   0   56.04   13.12
 -15  -4   0   53.70   18.24
 -15   4   0   45.73    7.21
 -15   4   1   19.44    4.55
 -15   4  -1   14.34    3.62
  15   4  -1   23.38    4.80
  15   4   1   17.52    4.42
 -15  -4   1   19.89    8.81
 -15  -4  -1   18.89    7.49
 -15   4  -1   17.66    7.67
 -15   4   2   18.67    4.47
 -15   4  -2   18.16    4.20
  15   4  -2   21.83    4.55
  15   4   2   15.37    8.84
 -15  -4   2   22.81    4.63
 -15  -4  -2   16.44    4.09
 -15   4   3   34.11   11.30
 -15   4  -3   43.20    9.17
  15   4  -3   43.47    6.42
  15   4   3   35.17   13.35
 -15  -4   3   38.41   14.57
 -15  -4  -3   37.30   11.98
 -15   4  -3   30.24   16.34
 -15   4   4   34.65   10.82
 -15   4  -4   40.43    6.58
  15   4  -4   51.41    5.36
 -15  -4   4   35.98   12.12
 -15  -4  -4   37.93   14.32
 -15   4  -4   30.44   12.14
 -15  -4  -5    2.56    1.41
 -15   4   5   -3.16    2.78
 -15   4  -5    1.52    1.29
  15   4  -5    5.95    3.11
 -15  -4   5    1.76    2.23
 -15  -4  -5    1.58    1.84
 -15   4  -5   -1.82    2.33
 -15  -4  -6    8.05    3.01
 -15   4   6    5.47    4.11
 -15   4  -6   -0.63    2.26
  15   4  -6    2.98    3.10
 -15  -4   6    2.44    3.38
 -15  -4  -6    6.71    3.32
 -15   4  -6    1.01    2.39
 -15  -4  -7   10.05    2.56
 -15   4   7   11.55    3.68
 -15   4  -7    5.24    3.72
  15   4  -7    7.93    3.73
 -15  -4   7    8.65    4.31
 -15  -4  -7    5.53    3.62
 -15   4  -7    8.45    5.24
 -15   4   8    5.73    2.77
 -15   4  -8    1.04    2.97
  15   4  -8    8.78    4.75
 -15  -4   8    4.11    3.44
 -15  -4  -8    1.37    2.89
 -15   4  -8    4.82    2.90
 -15   4   9   13.34    6.10
 -15   4  -9    7.89    3.07
  15   4  -9   17.69    5.26
 -15  -4   9   10.36    3.87
 -15  -4  -9   11.74    7.30
 -15   4  -9    8.22    3.32
 -15   5   0   17.08    4.12
  15   5   0   22.29    5.51
 -15  -5   0    7.95    4.71
 -15   5   1    3.58    2.31
 -15   5  -1    2.92    1.99
  15   5  -1    1.44    2.96
  15   5   1    4.51    3.75
 -15  -5   1    3.86    2.88
 -15  -5  -1    3.66    2.70
 -15   5   2   32.71    7.26
 -15   5  -2   27.08    5.36
  15   5  -2   31.70    8.40
  15   5   2   27.82    4.08
 -15  -5   2   26.74    8.06
 -15  -5  -2   31.62    6.30
 -15   5  -2   19.91    8.59
 -15   5   3   18.86    6.38
 -15   5  -3   17.19    5.43
  15   5  -3   17.35    5.34
  15   5   3   18.25    7.36
 -15  -5   3   14.04    5.34
 -15  -5  -3   14.13    6.64
 -15   5  -3   13.39    7.90
 -15   5   4   25.49    4.65
 -15   5  -4   24.51    6.83
  15   5  -4   18.99    6.15
  15   5   4   29.29    4.77
 -15  -5   4   24.08    5.16
 -15  -5  -4   25.86    6.82
 -15   5  -4   22.35    8.86
 -15   5  -5    9.62    4.07
  15   5  -5    7.22    4.51
  15   5   5   13.51    5.52
 -15  -5   5    9.03    4.80
 -15  -5  -5    5.20    3.64
 -15   5  -5   14.45    3.82
 -15  -5  -6   46.40   10.31
 -15   5   6   55.08   16.05
 -15   5  -6   38.99    5.09
  15   5  -6   51.04   11.18
 -15  -5   6   40.20   16.07
 -15  -5  -6   47.71   17.07
 -15   5  -6   40.93   14.64
 -15  -5  -7   11.48    3.61
 -15   5   7   15.89    5.16
 -15   5  -7    9.19    4.09
  15   5  -7   12.76    3.69
 -15  -5   7    8.09    3.95
 -15  -5  -7   13.18    5.74
 -15   5  -7   12.26    3.60
 -15   5   8    5.72    4.97
 -15   5  -8   17.14    4.63
  15   5  -8   16.11    3.87
 -15  -5   8   20.89    5.81
 -15  -5  -8   18.28    5.56
 -15   5  -8   12.34    5.18
 -15   5   9   21.86    5.60
 -15   5  -9   15.81    5.20
  15   5  -9   21.72    5.36
 -15  -5   9   14.75    6.04
 -15  -5  -9   16.00    6.92
 -15   5  -9   13.78    5.28
 -15   6   0    3.29    2.42
  15   6   0    3.42    2.04
 -15  -6   0    3.87    2.97
 -15   6   1    7.64    3.51
 -15   6  -1    7.44    3.00
  15   6  -1    4.09    2.39
  15   6   1    2.15    2.43
 -15  -6   1    5.04    3.90
 -15  -6  -1    7.03    3.77
 -15   6   2   12.91    4.44
 -15   6  -2   17.92    4.37
  15   6  -2   19.55    5.04
  15   6   2   21.38    4.42
 -15  -6   2   15.16    7.97
 -15  -6  -2   21.85    4.67
 -15   6   3   29.68    8.14
 -15   6  -3   36.18    7.60
  15   6  -3   29.74    6.82
  15   6   3   21.77    4.66
 -15  -6   3   23.94    6.41
 -15  -6  -3   29.41   11.72
 -15   6   4    5.88    3.00
 -15   6  -4   -1.13    2.76
  15   6  -4    7.42    3.80
  15   6   4    8.02    3.80
 -15  -6   4   10.82    4.94
 -15  -6  -4    9.30    4.90
 -15   6  -4    1.71    1.94
 -15   6   5   18.33    8.89
 -15   6  -5   22.39    5.19
  15   6  -5   18.87    4.78
  15   6   5   17.68    8.00
 -15  -6   5   22.13    6.88
 -15  -6  -5   23.06    7.94
 -15   6  -5   16.58    6.63
 -15   6   6   84.03   22.82
 -15   6  -6   94.50    8.29
  15   6  -6   81.24   21.88
  15   6   6   78.44   18.97
 -15  -6   6   74.61   28.81
 -15  -6  -6   74.39   24.74
 -15   6  -6   73.04   15.27
 -15   6   7   11.38    4.06
 -15   6  -7   25.44    3.96
  15   6  -7   30.68    6.90
 -15  -6   7   22.14    7.14
 -15  -6  -7   20.93    7.26
 -15   6  -7   20.00    8.15
 -15   6   8    5.62    2.91
 -15   6  -8    3.35    2.25
  15   6  -8    2.66    2.24
 -15  -6   8    3.93    4.40
 -15  -6  -8    2.94    2.23
 -15   6  -8    1.24    1.76
 -15   7   0   44.99   10.59
  15   7   0   44.12   14.72
 -15  -7   0   38.59   12.12
 -15   7   1    3.86    3.64
 -15   7  -1    1.27    1.66
  15   7  -1    3.55    3.29
  15   7   1    2.35    2.57
 -15  -7   1    2.22    2.54
 -15  -7  -1    4.43    3.43
 -15   7   2   55.55   13.68
 -15   7  -2   38.59   15.63
  15   7  -2   52.70   15.87
  15   7   2   42.63   16.46
 -15  -7   2   40.77   15.14
 -15  -7  -2   48.89   14.38
 -15   7   3   31.22    9.09
 -15   7  -3   33.19    5.87
  15   7  -3   26.23    7.28
  15   7   3   30.69    8.38
 -15  -7   3   37.71    6.34
 -15  -7  -3   30.98    8.01
 -15   7   4    6.31    2.41
 -15   7  -4   11.92    3.69
  15   7  -4   10.24    3.67
  15   7   4   18.31    4.50
 -15  -7   4   13.05    4.47
 -15  -7  -4    7.29    4.28
 -15   7   5    2.62    2.11
 -15   7  -5    4.10    2.67
  15   7  -5    7.61    4.08
  15   7   5    2.60    2.07
 -15  -7   5    8.30    4.09
 -15  -7  -5    6.00    3.45
 -15   7   6   27.82    6.52
 -15   7  -6   22.19    4.68
  15   7  -6   24.11    7.50
  15   7   6   22.76    6.89
 -15  -7   6   19.70    7.33
 -15  -7  -6   24.58    6.63
 -15   7  -6   20.73   10.12
 -15   7   7    4.13    3.55
 -15   7  -7    3.59    2.27
  15   7  -7    6.08    2.68
 -15  -7   7    9.70    4.45
 -15  -7  -7    1.90    2.31
 -15   7  -7    4.75    3.33
 -15   8   0   53.26   13.68
  15   8   0   50.91   13.78
 -15  -8   0   50.15   13.89
 -15   8   1   10.92    4.45
 -15   8  -1   18.99    4.97
  15   8  -1   22.41    6.46
  15   8   1   20.69    5.15
 -15  -8   1   20.72    6.53
 -15  -8  -1   23.40    8.49
 -15   8   2   19.13    4.63
 -15   8  -2    1.55    2.36
  15   8  -2    3.56    3.33
  15   8   2    3.85    3.47
 -15  -8   2    3.72    2.64
 -15  -8  -2    2.37    1.73
 -15   8   3   13.87    2.92
 -15   8  -3   15.59    3.22
  15   8  -3   17.69    6.13
  15   8   3   15.57    4.55
 -15  -8   3   11.36    6.80
 -15  -8  -3   14.92    4.68
 -15   8   4    6.54    3.45
 -15   8  -4   16.16    5.13
  15   8  -4    9.23    3.55
  15   8   4   11.94    3.88
 -15  -8   4    8.57    4.66
 -15  -8  -4   16.10    4.53
 -15   8   5    4.46    3.10
 -15   8  -5    7.52    2.03
  15   8  -5    3.73    2.47
  15   8   5    8.29    3.48
 -15  -8   5    7.93    4.25
 -15  -8  -5    5.54    4.38
 -15   9   0   22.33    5.96
  15   9   0   18.76    6.15
 -15  -9   0   18.43    5.24
 -15   9   1   26.82    8.83
 -15   9  -1   29.05    7.61
  15   9  -1   18.25    8.44
  15   9   1   34.98    8.88
 -15  -9   1   27.13    8.15
 -15  -9  -1   31.67    8.59
 -15   9   2    3.93    3.33
 -15   9  -2    2.28    2.47
  15   9  -2    1.05    1.48
  15   9   2    1.25    1.54
 -15  -9   2   -5.93    4.02
 -15  -9  -2    2.57    3.77
 -16   0   0   19.05    4.21
 -16   0   0   19.63    5.89
 -16   0   1   19.01    5.98
 -16   0  -1   19.87    2.99
 -16   0   1    7.39    6.18
 -16   0  -1   19.31    5.08
 -16   0   2   16.64    3.44
 -16   0  -2   15.55    4.59
 -16   0   2   15.16    5.05
 -16   0  -2    7.27    3.44
 -16   0   3   21.40    8.40
 -16   0  -3   21.57    5.68
 -16   0   3   20.51    8.74
 -16   0  -3   20.03    6.77
 -16   0   4    1.09    2.66
 -16   0  -4    1.10    2.45
 -16   0   4    1.22    1.49
 -16   0  -4   -0.26    2.78
 -16   0   5    7.32    3.01
 -16   0  -5    3.28    2.20
 -16   0   5    3.86    2.54
 -16   0  -5    4.37    2.22
 -16   0   6   32.45    8.54
 -16   0  -6   26.44    7.66
 -16   0  -6   44.45    6.28
 -16   0   7   28.05    6.36
 -16   0  -7   22.44    5.31
 -16   0  -7   23.25    8.97
 -16   0   8    2.14    2.09
 -16   0  -8    3.18    1.96
 -16   0  -8    3.94    2.85
 -16  -1   0    7.79    3.06
 -16   1   0    5.58    3.05
 -16  -1   0    4.64    2.73
 -16   1   0    7.28    3.73
 -16  -1   1   -0.47    2.81
 -16  -1  -1    4.27    1.98
 -16   1   1    2.10    1.71
 -16   1  -1    3.58    2.90
 -16  -1   1    1.12    2.63
 -16  -1  -1    2.04    2.06
 -16   1   1    0.98    1.21
 -16   1  -1    1.14    1.75
 -16  -1   2   38.23    8.82
 -16  -1  -2   44.44    9.23
 -16   1   2   32.82    7.05
 -16   1  -2   43.01   12.19
 -16  -1   2   38.82   14.86
 -16   1   2   31.36   13.44
 -16  -1  -2   34.68   13.41
 -16   1  -2   48.73   19.48
 -16  -1   3    3.33    2.90
 -16   1   3    5.93    2.10
 -16  -1  -3    6.61    2.45
 -16   1  -3    5.50    2.27
 -16  -1   3    4.42    2.45
 -16   1   3    4.96    3.48
 -16  -1  -3    7.75    3.28
 -16   1  -3    5.59    2.79
 -16  -1   4   10.22    3.35
 -16   1   4   12.59    3.18
 -16  -1  -4    9.29    2.70
 -16   1  -4    7.65    2.14
 -16  -1   4   10.33    3.20
 -16   1   4    8.45    3.34
 -16  -1  -4    7.26    2.80
 -16   1  -4    8.26    3.28
 -16  -1   5    4.70    3.42
 -16   1   5    2.57    2.74
 -16  -1  -5    1.22    2.25
 -16   1  -5    2.39    1.79
 -16  -1   5    8.12    3.11
 -16  -1  -5    0.94    2.67
 -16   1  -5    0.82    1.55
 -16  -1   6   26.97    7.45
 -16   1   6   23.86    7.46
 -16  -1  -6   26.42    6.79
 -16   1  -6   27.71    5.90
 -16  -1   6   17.44    8.81
 -16  -1  -6   27.34    9.73
 -16   1  -6   33.51    7.01
 -16  -1   7    7.92    4.65
 -16   1   7   14.66    4.50
 -16  -1  -7   12.87    4.41
 -16   1  -7   14.06    5.12
 -16  -1   7   10.04    4.35
 -16  -1  -7   12.58    4.46
 -16   1  -7   12.15    3.83
 -16  -1   8    9.06    3.17
 -16   1   8   10.34    2.58
 -16   1  -8   12.32    3.73
 -16  -1  -8    9.82    2.48
 -16   1  -8   11.81    3.86
 -16  -2   0   48.09   10.51
 -16   2   0   38.82    9.03
 -16  -2   0   32.43   11.01
 -16   2   0   34.05    6.24
 -16  -2   1   32.35   10.61
 -16  -2  -1   33.22    7.61
 -16   2   1   35.58    7.21
 -16   2  -1   28.67    4.66
 -16  -2   1   33.96   12.23
 -16  -2  -1   27.67    8.84
 -16   2   1   25.91    9.34
 -16   2  -1   30.67   13.35
 -16  -2   2   13.31    4.08
 -16  -2  -2    7.51    4.26
 -16   2   2   11.72    3.00
 -16   2  -2    5.98    3.33
 -16  -2   2    8.26    5.32
 -16  -2  -2    4.17    2.51
 -16   2   2    9.51    4.20
 -16   2  -2    5.00    1.90
 -16  -2   3   24.83    6.42
 -16  -2  -3   16.70    3.65
 -16   2   3   16.93    5.01
 -16   2  -3   21.20    6.44
 -16  -2   3   18.53    7.25
 -16  -2  -3   18.83    4.40
 -16   2  -3   23.56    7.50
 -16  -2   4   36.53   10.26
 -16  -2  -4   23.78    5.26
 -16   2   4   24.59    6.39
 -16   2  -4   33.67   10.07
 -16  -2   4   28.13   11.20
 -16  -2  -4   22.25   10.74
 -16   2  -4   30.53   12.10
 -16  -2   5    0.01    1.83
 -16  -2  -5   -1.79    2.42
 -16   2   5    2.65    2.16
 -16   2  -5   -1.27    2.48
 -16  -2   5   -2.66    2.54
 -16  -2  -5    0.71    1.61
 -16   2  -5   -0.09    3.01
 -16  -2  -6    1.32    1.32
 -16   2   6    3.35    2.24
 -16   2  -6    5.91    2.69
 -16  -2   6    1.80    1.47
 -16  -2  -6    3.79    3.18
 -16   2  -6    2.23    2.19
 -16   2   7    9.74    5.55
 -16  -2  -7    9.62    3.45
 -16   2  -7    8.08    3.19
 -16  -2   7   15.34    4.80
 -16  -2  -7    7.21    3.03
 -16   2  -7    9.51    4.09
 -16  -2   8    7.60    3.49
 -16   2   8    2.22    2.16
 -16   2  -8    2.73    2.22
 -16  -2   8    5.15    3.51
 -16  -2  -8    5.26    3.88
 -16   2  -8    1.79    2.73
 -16   3   0   22.12    6.47
 -16  -3   0   17.36    6.60
 -16   3   0   13.41    6.62
 -16  -3  -1   23.75    5.73
 -16   3   1   20.96    5.53
 -16   3  -1   17.81    6.50
  16   3  -1   25.49    5.44
 -16  -3   1   15.07    5.00
 -16  -3  -1   18.53    6.25
 -16   3  -1   15.00    5.88
 -16  -3  -2    3.27    2.83
 -16   3   2    4.29    2.98
 -16   3  -2    3.31    2.72
  16   3  -2    6.21    2.45
 -16  -3   2    2.41    6.23
 -16  -3  -2    3.25    2.56
 -16   3  -2    3.37    1.98
 -16  -3  -3   13.78    4.38
 -16   3   3   40.15    7.96
 -16   3  -3   16.76    4.51
  16   3  -3   12.89    5.43
 -16  -3   3   18.93    9.24
 -16  -3  -3   13.27    3.99
 -16   3  -3   10.81    4.56
 -16  -3  -4   28.77    7.94
 -16   3   4   39.35   10.22
 -16   3  -4   35.42   10.16
  16   3  -4   43.38   10.43
 -16  -3   4   29.45   11.47
 -16  -3  -4   34.31    9.75
 -16   3  -4   22.78   11.45
 -16  -3  -5   14.34    4.37
 -16   3   5   14.71    3.79
 -16   3  -5   13.96    3.00
  16   3  -5   15.45    5.23
 -16  -3   5    5.85    3.80
 -16  -3  -5    6.30    3.62
 -16   3  -5   17.58    4.60
 -16  -3  -6   -2.99    2.46
 -16   3   6    4.63    3.55
 -16   3  -6    1.96    2.01
  16   3  -6    0.71    2.60
 -16  -3   6    1.78    2.74
 -16  -3  -6    0.51    1.80
 -16   3  -6    1.48    2.71
 -16  -3  -7    8.42    1.38
 -16   3   7    7.36    3.89
 -16   3  -7    2.51    1.86
  16   3  -7   10.04    4.26
 -16  -3   7    5.72    2.59
 -16  -3  -7    6.34    3.42
 -16   3  -7    8.21    3.96
 -16   4   0    1.88    1.95
  16   4   0   -0.26    2.84
 -16  -4   0    3.91    3.14
 -16   4   1    2.27    2.14
 -16   4  -1    4.96    2.92
  16   4  -1    4.86    4.37
  16   4   1    1.69    1.30
 -16  -4   1    0.64    2.35
 -16  -4  -1    3.25    1.43
 -16   4   2   11.81    3.39
 -16   4  -2    8.82    2.51
  16   4  -2    7.67    2.13
  16   4   2    7.37    3.03
 -16  -4   2    9.65    4.29
 -16  -4  -2    8.28    5.12
 -16   4  -2    8.05    3.72
 -16  -4  -3   15.94    4.90
 -16   4   3    8.04    4.22
 -16   4  -3   13.13    2.03
  16   4  -3   14.01    4.69
 -16  -4   3   15.55    8.63
 -16  -4  -3   14.07    4.96
 -16   4  -3   15.04    3.72
 -16  -4  -4   20.59    5.14
 -16   4   4   20.86    5.86
 -16   4  -4   24.00    5.59
  16   4  -4   14.87    3.20
 -16  -4   4   19.89    9.32
 -16  -4  -4   20.54    7.63
 -16   4  -4   16.46    7.17
 -16  -4  -5   21.89    4.17
 -16   4   5   22.92    6.26
 -16   4  -5   21.77    4.99
  16   4  -5   27.37    9.09
 -16  -4   5   24.15    4.50
 -16  -4  -5   22.51    8.20
 -16   4  -5   21.66    8.79
 -16  -4  -6   24.75    5.53
 -16   4   6   23.49    6.32
 -16   4  -6   24.93    4.61
  16   4  -6   28.67    7.52
 -16  -4   6   19.59    5.33
 -16  -4  -6   19.16    7.09
 -16   4  -6   14.23    5.28
 -16   5   0    0.72    1.41
  16   5   0    2.35    1.24
 -16  -5   0    3.20    1.96
 -16   5   1    7.33    2.51
 -16   5  -1   19.32    4.96
  16   5  -1   20.61    5.01
  16   5   1   12.38    4.60
 -16  -5   1   17.85    6.33
 -16  -5  -1   10.02    3.75
 -16   5   2   18.43    5.07
 -16   5  -2   21.67    5.37
  16   5  -2   18.16    5.09
  16   5   2   22.91    5.43
 -16  -5   2   15.45    6.66
 -16  -5  -2   21.83    8.74
 -16   5   3    1.15    3.08
 -16   5  -3    0.74    2.19
  16   5  -3    0.26    3.25
  16   5   3    4.37    3.24
 -16  -5   3    3.68    2.43
 -16  -5  -3   12.78   16.76
 -16   5  -3    2.69    2.08
 -16   5   4    4.29    1.82
 -16   5  -4    0.17    1.17
  16   5  -4    7.40    3.56
  16   5   4    2.02    2.42
 -16  -5   4    3.27    2.77
 -16  -5  -4   -2.07    3.62
 -16   5  -4    1.33    2.21
 -16  -5  -5   56.04   12.87
 -16   5   5   62.04   16.59
 -16   5  -5   67.74   17.41
  16   5  -5   72.60   10.41
 -16  -5   5   71.84   23.52
 -16  -5  -5   63.04   24.26
 -16   5  -5   61.44   12.25
 -16   5   6    3.65    1.67
 -16   5  -6   -0.05    2.60
 -16   6   0    7.13    2.85
  16   6   0   10.98    4.06
 -16  -6   0    7.10    3.04
 -16   6   1   19.51    5.40
 -16   6  -1   18.64    5.54
  16   6  -1   25.61    5.67
  16   6   1   21.97    4.80
 -16  -6   1   23.82    7.19
 -16  -6  -1   22.73    7.37
 -16   6   2   25.14    6.22
 -16   6  -2   28.43    4.64
  16   6  -2   20.33    4.74
  16   6   2   31.90    5.80
 -16  -6   2   22.22    7.15
 -16  -6  -2   21.49    7.39
 -16   6   3   25.82    8.13
 -16   6  -3   18.49    5.36
  16   6  -3   27.35   11.64
  16   6   3   26.29    6.71
 -16  -6   3   23.73    9.80
 -16  -6  -3   24.37    7.31
 -16   6   4    1.36    2.13
 -16   6  -4   -1.94    2.66
  16   6  -4    4.42    2.57
  16   6   4    7.76    3.39
 -16  -6  -4    7.61    5.61
 -16   7   0    3.33    2.89
  16   7   0    1.82    1.88
 -16  -7   0    2.11    2.88
 -16   7   1   17.08    3.85
 -16   7  -1   20.51    6.02
  16   7  -1   14.96    4.19
  16   7   1   25.56    5.91
 -16  -7   1   21.86    7.68
 -16  -7  -1   26.54    7.24
 -17   0   0    2.75    1.82
 -17   0   0   -2.28    2.22
 -17   0   1   -2.23    2.88
 -17   0  -1    3.89    2.25
 -17   0   1    1.14    1.32
 -17   0  -1    1.46    2.28
 -17   0   2   16.64    4.72
 -17   0  -2   13.95    3.57
 -17   0   2   15.44    6.54
 -17   0  -2   19.95    7.41
 -17   0   3   12.78    4.74
 -17   0  -3   12.59    3.44
 -17   0   3    8.39    3.33
 -17   0  -3    6.18    3.82
 -17   0   4   -1.34    3.38
 -17   0  -4   -0.47    1.74
 -17   0  -4    1.22    1.58
 -17  -1   0    0.69    1.58
 -17   1   0    2.15    1.97
 -17  -1   0    3.45    2.33
 -17   1   0    1.63    1.31
 -17  -1   1   16.37    4.00
 -17  -1  -1   20.61    4.53
 -17   1   1   16.47    4.12
 -17   1  -1   13.77    3.10
 -17  -1   1   18.30    5.85
 -17  -1  -1   25.12    7.04
 -17   1   1   21.22    5.70
 -17   1  -1   17.32    4.63
 -17  -1   2    5.21    2.53
 -17  -1  -2    5.46    3.03
 -17   1   2    5.51    3.86
 -17   1  -2    2.99    3.85
 -17  -1   2    5.93    2.48
 -17   1   2    1.81    2.22
 -17  -1  -2    3.36    3.06
 -17   1  -2    6.38    2.57
 -17  -1   3   10.20    3.43
 -17  -1  -3    5.60    2.84
 -17   1   3    6.79    4.44
 -17   1  -3    5.46    1.64
 -17  -1   3    5.14    3.51
 -17  -1  -3    5.99    2.78
 -17   1  -3    5.57    2.62
 -17  -1   4    9.08    6.18
 -17   1   4   16.48    4.15
 -17  -1  -4   20.04    3.89
 -17   1  -4    6.36    3.19
 -17  -1   4   11.58    7.58
 -17  -1  -4   14.57    6.15
 -17   1  -4   16.15    4.32
 -17  -2   0    5.79    2.24
 -17   2   0    5.42    2.77
 -17  -2   0   10.07    4.66
 -17   2   0    6.46    3.14
 -17  -2   1   19.85    6.32
 -17  -2  -1   17.64    5.32
 -17   2   1   24.51    7.53
 -17   2  -1   16.79    5.53
 -17  -2   1   23.04    8.72
 -17  -2  -1   16.19    8.57
 -17   2  -1   20.78    9.31
 -17  -2   2    6.45    3.32
 -17  -2  -2    0.38    2.04
 -17   2   2    0.55    2.64
 -17   2  -2    3.72    2.96
 -17  -2   2    1.07    2.05
 -17  -2  -2    5.23    4.14
 -17   2  -2    3.70    2.21
 -17  -2   3   19.11    4.32
 -17  -2  -3   20.70    5.28
 -17   2   3   15.10    5.33
 -17   2  -3   19.38    6.08
 -17  -2   3   15.67    6.86
 -17  -2  -3   18.79    5.49
 -17   2  -3   13.68    6.41
 -17  -3   0    4.56    3.69
 -17   3   0    7.88    2.47
 -17  -3   0    8.84    3.87
 -17  -3   1    2.79    2.47
 -17  -3  -1   -0.07    1.34
 -17   3   1   -3.78    3.27
 -17   3  -1   -0.03    1.57
 -17  -3   1    5.32    3.60
 -17  -3  -1    3.21    2.94
 -17  -3   2    7.18    5.37
 -17  -3  -2   16.39    4.08
 -17   3   2   12.19    5.55
 -17   3  -2   15.41    3.86
 -17  -3   2   11.54    5.57
 -17  -3  -2   11.02    3.70
 -17   3  -2    1.68    2.64
   0   0   0    0.00    0.00
;
_shelx_hkl_checksum              44902
#END Tags that were not found in dictionaries
loop_
_space_group_symop_operation_xyz
'x, y, z'
'-x+1/2, -y, z+1/2'
'x+1/2, -y+1/2, -z'
'-x, y+1/2, -z+1/2'
loop_
_atom_site_label
_atom_site_type_symbol
_atom_site_fract_x
_atom_site_fract_y
_atom_site_fract_z
_atom_site_U_iso_or_equiv
_atom_site_adp_type
_atom_site_occupancy
_atom_site_site_symmetry_order
_atom_site_calc_flag
_atom_site_refinement_flags_posn
_atom_site_refinement_flags_adp
Cu1 Cu 0.93567(5) 0.53951(5) 0.08688(4) 0.0332(2) Uani 1 1 d . .
Cu2 Cu 1.20969(5) 0.79229(5) 0.16027(4) 0.0336(2) Uani 1 1 d . .
N5 N 1.3083(4) 0.8022(4) 0.2484(4) 0.0375(12) Uani 1 1 d . .
O2 O 1.2914(3) 0.8527(3) 0.0710(3) 0.0369(10) Uani 1 1 d . .
O4 O 1.0178(4) 0.6389(4) 0.0276(3) 0.0439(11) Uani 1 1 d . .
C4 C 1.0707(5) 0.6846(4) 0.0788(4) 0.0346(13) Uani 1 1 d . .
O3 O 1.1208(4) 0.6989(4) 0.2202(3) 0.0497(13) Uani 1 1 d . .
O5 O 0.8807(3) 0.4511(3) 0.1720(3) 0.0385(10) Uani 1 1 d . .
C16 C 1.4384(5) 0.7878(4) 0.3345(4) 0.0333(12) Uani 1 1 d . .
N4 N 0.9266(4) 0.4509(4) -0.0067(3) 0.0356(11) Uani 1 1 d . .
N6 N 1.2840(4) 0.8365(4) 0.3228(3) 0.0371(12) Uani 1 1 d . .
H6A H 1.2269 0.8605 0.3348 0.044 Uiso 1 1 calc R U
O1 O 1.2888(4) 0.8877(4) -0.0626(3) 0.0500(12) Uani 1 1 d . .
C5 C 1.0612(5) 0.6587(5) 0.1694(4) 0.0388(14) Uani 1 1 d . .
C8 C 0.9015(5) 0.4708(5) 0.2466(4) 0.0395(15) Uani 1 1 d . .
N3 N 0.8988(4) 0.4815(4) -0.0818(3) 0.0400(13) Uani 1 1 d . .
H3D H 0.8787 0.5385 -0.0919 0.048 Uiso 1 1 calc R U
O6 O 0.8698(4) 0.4279(4) 0.3071(3) 0.0550(15) Uani 1 1 d . .
C1 C 1.2528(5) 0.8498(5) -0.0012(4) 0.0360(14) Uani 1 1 d . .
N2 N 0.9935(5) 0.5965(4) 0.1825(3) 0.0429(14) Uani 1 1 d . .
C2 C 1.1503(5) 0.8019(5) -0.0088(4) 0.0417(15) Uani 1 1 d . .
H2A H 1.1505 0.7560 -0.0541 0.050 Uiso 1 1 calc R U
N1 N 1.1318(4) 0.7540(4) 0.0679(3) 0.0376(12) Uani 1 1 d . .
C3 C 1.0696(6) 0.8792(7) -0.0234(5) 0.060(2) Uani 1 1 d . .
H3A H 1.0055 0.8494 -0.0286 0.091 Uiso 1 1 calc R U
H3B H 1.0846 0.9135 -0.0728 0.091 Uiso 1 1 calc R U
H3C H 1.0687 0.9225 0.0222 0.091 Uiso 1 1 calc R U
C19 C 1.5427(5) 0.7657(5) 0.3647(5) 0.0417(16) Uani 1 1 d . .
H19A H 1.5884 0.7741 0.3191 0.050 Uiso 1 1 calc R U
H19B H 1.5602 0.8125 0.4060 0.050 Uiso 1 1 calc R U
C15 C 1.4037(5) 0.7729(5) 0.2543(4) 0.0394(15) Uani 1 1 d . .
C17 C 1.3595(5) 0.8287(5) 0.3758(4) 0.0396(15) Uani 1 1 d . .
C11 C 0.9402(4) 0.3329(5) -0.0992(4) 0.0360(14) Uani 1 1 d . .
C12 C 0.9523(5) 0.3597(5) -0.0169(4) 0.0399(14) Uani 1 1 d . .
C10 C 0.9058(5) 0.4137(6) -0.1384(4) 0.0461(17) Uani 1 1 d . .
C13 C 0.9862(9) 0.3022(7) 0.0538(5) 0.072(3) Uani 1 1 d . .
H13A H 0.9862 0.3409 0.1024 0.109 Uiso 1 1 calc R U
H13B H 1.0525 0.2792 0.0436 0.109 Uiso 1 1 calc R U
H13C H 0.9420 0.2492 0.0614 0.109 Uiso 1 1 calc R U
C14 C 1.4536(7) 0.7326(8) 0.1808(5) 0.072(3) Uani 1 1 d . .
H14A H 1.4081 0.7330 0.1354 0.108 Uiso 1 1 calc R U
H14B H 1.4741 0.6684 0.1920 0.108 Uiso 1 1 calc R U
H14C H 1.5110 0.7704 0.1675 0.108 Uiso 1 1 calc R U
C18 C 1.3467(8) 0.8659(7) 0.4609(5) 0.065(2) Uani 1 1 d . .
H18A H 1.2796 0.8884 0.4679 0.097 Uiso 1 1 calc R U
H18B H 1.3924 0.9174 0.4700 0.097 Uiso 1 1 calc R U
H18C H 1.3597 0.8159 0.4996 0.097 Uiso 1 1 calc R U
C9 C 0.8757(10) 0.4365(9) -0.2254(6) 0.084(4) Uani 1 1 d . .
H9A H 0.8556 0.5019 -0.2289 0.126 Uiso 1 1 calc R U
H9B H 0.8212 0.3962 -0.2414 0.126 Uiso 1 1 calc R U
H9C H 0.9313 0.4257 -0.2614 0.126 Uiso 1 1 calc R U
C6 C 0.9644(7) 0.5594(7) 0.2616(5) 0.062(3) Uani 1 1 d . .
H6B H 1.0263 0.5393 0.2912 0.075 Uiso 1 1 d R U
C7 C 0.9113(12) 0.6307(13) 0.3114(10) 0.125(5) Uiso 1 1 d . .
H7A H 0.9535 0.6851 0.3195 0.187 Uiso 1 1 calc R U
H7B H 0.8943 0.6035 0.3636 0.187 Uiso 1 1 calc R U
H7C H 0.8516 0.6499 0.2834 0.187 Uiso 1 1 calc R U
loop_
_atom_site_aniso_label
_atom_site_aniso_U_11
_atom_site_aniso_U_22
_atom_site_aniso_U_33
_atom_site_aniso_U_23
_atom_site_aniso_U_13
_atom_site_aniso_U_12
Cu1 0.0371(4) 0.0360(4) 0.0265(4) -0.0024(3) -0.0004(3) -0.0081(3)
Cu2 0.0369(4) 0.0368(4) 0.0270(4) 0.0006(3) -0.0055(3) -0.0082(3)
N5 0.037(3) 0.038(3) 0.038(3) -0.001(2) -0.006(2) 0.006(2)
O2 0.040(2) 0.040(2) 0.030(2) 0.0016(18) -0.0009(19) -0.009(2)
O4 0.052(3) 0.050(3) 0.030(2) -0.001(2) -0.001(2) -0.018(2)
C4 0.038(3) 0.038(3) 0.028(3) -0.002(3) -0.001(3) -0.007(3)
O3 0.059(3) 0.061(3) 0.029(2) 0.005(2) -0.011(2) -0.029(3)
O5 0.045(2) 0.040(2) 0.031(2) -0.001(2) -0.0004(19) -0.010(2)
C16 0.036(3) 0.029(3) 0.035(3) 0.005(3) -0.010(3) 0.002(3)
N4 0.041(3) 0.031(2) 0.034(3) -0.006(2) -0.002(2) 0.004(2)
N6 0.038(3) 0.045(3) 0.029(3) 0.000(2) -0.002(2) 0.010(2)
O1 0.051(3) 0.062(3) 0.037(3) 0.003(2) 0.006(2) -0.021(3)
C5 0.047(3) 0.040(3) 0.029(3) -0.001(3) -0.007(3) -0.011(3)
C8 0.040(3) 0.047(4) 0.031(4) 0.009(3) -0.005(3) -0.012(3)
N3 0.055(3) 0.035(3) 0.030(3) -0.002(2) 0.001(3) 0.015(2)
O6 0.067(3) 0.064(3) 0.033(3) 0.012(2) -0.003(2) -0.029(3)
C1 0.040(3) 0.037(3) 0.032(3) -0.003(3) 0.001(3) -0.006(3)
N2 0.050(3) 0.052(3) 0.026(3) 0.006(2) -0.003(2) -0.020(3)
C2 0.055(4) 0.042(3) 0.028(3) -0.002(3) -0.005(3) -0.020(3)
N1 0.041(3) 0.044(3) 0.028(3) 0.002(2) -0.004(2) -0.015(2)
C3 0.047(4) 0.081(6) 0.053(5) 0.019(4) -0.017(4) -0.017(4)
C19 0.035(3) 0.040(4) 0.050(4) 0.012(3) -0.010(3) -0.003(3)
C15 0.042(3) 0.038(4) 0.039(4) -0.003(3) -0.004(3) 0.009(3)
C17 0.052(4) 0.038(3) 0.029(3) 0.000(3) -0.014(3) 0.006(3)
C11 0.028(3) 0.042(3) 0.038(4) -0.012(3) 0.007(3) 0.004(3)
C12 0.045(3) 0.038(3) 0.036(3) 0.001(3) 0.002(3) 0.004(3)
C10 0.046(4) 0.055(4) 0.038(4) -0.011(3) -0.002(3) 0.013(3)
C13 0.120(8) 0.056(5) 0.041(4) -0.001(4) 0.002(5) 0.037(6)
C14 0.063(5) 0.105(8) 0.048(5) 0.001(5) 0.004(4) 0.039(5)
C18 0.084(6) 0.075(6) 0.035(4) -0.012(4) -0.019(4) 0.031(5)
C9 0.114(9) 0.097(8) 0.041(5) -0.007(5) -0.014(5) 0.051(7)
C6 0.080(6) 0.080(6) 0.027(4) 0.006(4) -0.007(3) -0.052(5)
loop_
_atom_type_symbol
_atom_type_description
_atom_type_scat_dispersion_real
_atom_type_scat_dispersion_imag
_atom_type_scat_source
C C 0.0033 0.0016 'International Tables Vol C Tables 4.2.6.8 and 6.1.1.4'
H H 0.0000 0.0000 'International Tables Vol C Tables 4.2.6.8 and 6.1.1.4'
N N 0.0061 0.0033 'International Tables Vol C Tables 4.2.6.8 and 6.1.1.4'
O O 0.0106 0.0060 'International Tables Vol C Tables 4.2.6.8 and 6.1.1.4'
Cu Cu 0.3201 1.2651 'International Tables Vol C Tables 4.2.6.8 and 6.1.1.4'
loop_
_geom_angle_atom_site_label_1
_geom_angle_atom_site_label_2
_geom_angle_atom_site_label_3
_geom_angle
_geom_angle_site_symmetry_1
_geom_angle_site_symmetry_3
N2 Cu1 O4 83.1(2) . .
N2 Cu1 O5 81.0(2) . .
O4 Cu1 O5 163.48(18) . .
N2 Cu1 N4 156.6(3) . .
O4 Cu1 N4 95.7(2) . .
O5 Cu1 N4 97.0(2) . .
N2 Cu1 O1 107.9(2) . 3_465
O4 Cu1 O1 94.5(2) . 3_465
O5 Cu1 O1 94.7(2) . 3_465
N4 Cu1 O1 95.5(2) . 3_465
N1 Cu2 N5 165.5(3) . .
N1 Cu2 O2 81.2(2) . .
N5 Cu2 O2 97.6(2) . .
N1 Cu2 O3 82.9(2) . .
N5 Cu2 O3 95.1(2) . .
O2 Cu2 O3 160.8(2) . .
N1 Cu2 O6 99.5(2) . 4_755
N5 Cu2 O6 95.0(2) . 4_755
O2 Cu2 O6 94.2(2) . 4_755
O3 Cu2 O6 98.9(2) . 4_755
N6 N5 C15 105.9(5) . .
N6 N5 Cu2 121.6(4) . .
C15 N5 Cu2 132.3(5) . .
C1 O2 Cu2 115.5(4) . .
C4 O4 Cu1 109.8(4) . .
O4 C4 N1 130.5(6) . .
O4 C4 C5 118.0(5) . .
N1 C4 C5 111.6(5) . .
C5 O3 Cu2 109.9(4) . .
C8 O5 Cu1 116.5(4) . .
C15 C16 C17 105.2(5) . .
C15 C16 C19 125.3(6) . .
C17 C16 C19 129.4(6) . .
C12 N4 N3 105.3(5) . .
C12 N4 Cu1 133.2(5) . .
N3 N4 Cu1 121.2(4) . .
C17 N6 N5 111.7(5) . .
C1 O1 Cu1 132.8(5) . 3_565
N2 C5 O3 129.5(6) . .
N2 C5 C4 112.5(5) . .
O3 C5 C4 117.9(6) . .
O5 C8 O6 125.6(6) . .
O5 C8 C6 116.8(6) . .
O6 C8 C6 117.5(6) . .
N4 N3 C10 112.5(6) . .
C8 O6 Cu2 140.2(5) . 4_745
O1 C1 O2 125.0(6) . .
O1 C1 C2 118.3(6) . .
O2 C1 C2 116.6(6) . .
C5 N2 C6 126.0(6) . .
C5 N2 Cu1 116.0(5) . .
C6 N2 Cu1 117.8(4) . .
N1 C2 C1 106.8(5) . .
N1 C2 C3 109.8(6) . .
C1 C2 C3 109.3(6) . .
C4 N1 C2 125.7(5) . .
C4 N1 Cu2 117.0(4) . .
C2 N1 Cu2 117.3(4) . .
C11 C19 C16 116.8(5) 2_765 .
C16 C15 N5 109.6(6) . .
C16 C15 C14 131.2(7) . .
N5 C15 C14 119.1(6) . .
N6 C17 C16 107.4(6) . .
N6 C17 C18 119.0(7) . .
C16 C17 C18 133.5(7) . .
C10 C11 C12 105.1(6) . .
C10 C11 C19 128.2(6) . 2_764
C12 C11 C19 126.6(6) . 2_764
N4 C12 C11 110.3(6) . .
N4 C12 C13 120.4(6) . .
C11 C12 C13 129.4(7) . .
C11 C10 C9 134.2(7) . .
C11 C10 N3 106.9(6) . .
C9 C10 N3 118.8(7) . .
N2 C6 C7 112.2(10) . .
N2 C6 C8 107.5(6) . .
C7 C6 C8 112.1(9) . .
loop_
_geom_bond_atom_site_label_1
_geom_bond_atom_site_label_2
_geom_bond_distance
_geom_bond_site_symmetry_2
Cu1 N2 1.916(5) .
Cu1 O4 2.023(5) .
Cu1 O5 2.003(4) .
Cu1 N4 1.973(5) .
Cu1 O1 2.255(5) 3_465
Cu2 N1 1.910(5) .
Cu2 N5 1.958(5) .
Cu2 O2 2.010(4) .
Cu2 O3 2.024(5) .
Cu2 O6 2.247(5) 4_755
N5 N6 1.346(8) .
N5 C15 1.348(9) .
O2 C1 1.286(8) .
O4 C4 1.270(8) .
C4 N1 1.285(8) .
C4 C5 1.526(9) .
O3 C5 1.282(8) .
O5 C8 1.277(8) .
C16 C15 1.403(9) .
C16 C17 1.380(10) .
C16 C19 1.514(8) .
N4 C12 1.337(8) .
N4 N3 1.349(8) .
N6 C17 1.336(9) .
O1 C1 1.232(8) .
O1 Cu1 2.255(5) 3_565
C5 N2 1.278(9) .
C8 O6 1.231(8) .
C8 C6 1.524(10) .
N3 C10 1.329(9) .
O6 Cu2 2.247(5) 4_745
C1 C2 1.537(9) .
N2 C6 1.445(9) .
C2 N1 1.441(9) .
C2 C3 1.552(12) .
C19 C11 1.522(9) 2_765
C15 C14 1.485(11) .
C17 C18 1.492(10) .
C11 C10 1.382(11) .
C11 C12 1.403(10) .
C11 C19 1.522(9) 2_764
C12 C13 1.480(11) .
C10 C9 1.509(12) .
C6 C7 1.471(18) .
