#------------------------------------------------------------------------------
#$Date: 2016-03-23 22:33:44 +0200 (Wed, 23 Mar 2016) $
#$Revision: 179485 $
#$URL: svn://www.crystallography.net/cod/cif/4/33/82/4338273.cif $
#------------------------------------------------------------------------------
#
# This file is available in the Crystallography Open Database (COD),
# http://www.crystallography.net/
#
# All data on this site have been placed in the public domain by the
# contributors.
#
data_4338273
loop_
_publ_author_name
'Lin, Lang'
'Yu, Rongmin'
'Wu, Xiao-Yuan'
'Yang, Wen-Bin'
'Zhang, Jian'
'Guo, Xiang-Guang'
'Lin, Zu-Jin'
'Lu, Can-Zhong'
_publ_section_title
;
 Enantioselective inclusion of alcohols by solvent-controlled assembled
 flexible metal-organic frameworks.
;
_journal_issue                   10
_journal_name_full               'Inorganic chemistry'
_journal_page_first              4794
_journal_page_last               4796
_journal_paper_doi               10.1021/ic500436g
_journal_volume                  53
_journal_year                    2014
_chemical_absolute_configuration ad
_chemical_formula_moiety         'C19 H24 Cu2 N6 O6 '
_chemical_formula_sum            'C19 H24 Cu2 N6 O6'
_chemical_formula_weight         559.52
_chemical_name_systematic
;
 ?
;
_space_group_crystal_system      tetragonal
_space_group_IT_number           92
_space_group_name_Hall           'P 4abw 2nw'
_space_group_name_H-M_alt        'P 41 21 2'
_symmetry_space_group_name_Hall  'P 4abw 2nw'
_symmetry_space_group_name_H-M   'P 41 21 2'
_atom_sites_solution_hydrogens   geom
_atom_sites_solution_primary     direct
_atom_sites_solution_secondary   difmap
_audit_creation_method           SHELXL-2013
_cell_angle_alpha                90
_cell_angle_beta                 90
_cell_angle_gamma                90
_cell_formula_units_Z            4
_cell_length_a                   13.533(2)
_cell_length_b                   13.533(2)
_cell_length_c                   14.972(4)
_cell_measurement_reflns_used    8775
_cell_measurement_temperature    293(2)
_cell_measurement_theta_max      33.4158
_cell_measurement_theta_min      2.0285
_cell_volume                     2742.0(9)
_computing_cell_refinement       'CrystalClear (Rigaku Inc., 2008)'
_computing_data_collection       'CrystalClear (Rigaku Inc., 2008)'
_computing_data_reduction        'CrystalClear (Rigaku Inc., 2008)'
_computing_molecular_graphics    DIAMOND
_computing_publication_material  'SHELXL-2013 (Sheldrick, 2013)'
_computing_structure_refinement  'SHELXL-2013 (Sheldrick, 2013)'
_computing_structure_solution    'SHELXL-2013 (Sheldrick, 2013)'
_diffrn_ambient_temperature      293(2)
_diffrn_measured_fraction_theta_full 0.996
_diffrn_measured_fraction_theta_max 0.965
_diffrn_measurement_method       CCD_Profile_fitting
_diffrn_radiation_type           MoK\a
_diffrn_radiation_wavelength     0.71073
_diffrn_reflns_av_R_equivalents  0.0463
_diffrn_reflns_av_unetI/netI     0.0326
_diffrn_reflns_Laue_measured_fraction_full 0.996
_diffrn_reflns_Laue_measured_fraction_max 0.965
_diffrn_reflns_limit_h_max       20
_diffrn_reflns_limit_h_min       -20
_diffrn_reflns_limit_k_max       20
_diffrn_reflns_limit_k_min       -19
_diffrn_reflns_limit_l_max       22
_diffrn_reflns_limit_l_min       -23
_diffrn_reflns_number            29686
_diffrn_reflns_point_group_measured_fraction_full 0.997
_diffrn_reflns_point_group_measured_fraction_max 0.957
_diffrn_reflns_theta_full        25.242
_diffrn_reflns_theta_max         33.536
_diffrn_reflns_theta_min         2.028
_exptl_absorpt_coefficient_mu    1.591
_exptl_absorpt_correction_T_max  0.853
_exptl_absorpt_correction_T_min  0.735
_exptl_absorpt_correction_type   multi-scan
_exptl_crystal_colour            blue
_exptl_crystal_density_diffrn    1.355
_exptl_crystal_description       block
_exptl_crystal_F_000             1144
_exptl_crystal_size_max          0.200
_exptl_crystal_size_mid          0.200
_exptl_crystal_size_min          0.100
_refine_diff_density_max         1.274
_refine_diff_density_min         -0.988
_refine_diff_density_rms         0.349
_refine_ls_abs_structure_details
;
 Flack x determined using 1591 quotients [(I+)-(I-)]/[(I+)+(I-)]
 (Parsons and Flack (2004), Acta Cryst. A60, s61).
;
_refine_ls_abs_structure_Flack   0.014(6)
_refine_ls_extinction_coef       0.075(7)
_refine_ls_extinction_expression Fc^*^=kFc[1+0.001xFc^2^\l^3^/sin(2\q)]^-1/4^
_refine_ls_extinction_method     SHELXL
_refine_ls_goodness_of_fit_ref   0.997
_refine_ls_hydrogen_treatment    mixed
_refine_ls_matrix_type           full
_refine_ls_number_parameters     155
_refine_ls_number_reflns         5155
_refine_ls_number_restraints     0
_refine_ls_restrained_S_all      0.997
_refine_ls_R_factor_all          0.0781
_refine_ls_R_factor_gt           0.0640
_refine_ls_shift/su_max          0.000
_refine_ls_shift/su_mean         0.000
_refine_ls_structure_factor_coef Fsqd
_refine_ls_weighting_details
;
 w=1/[\s^2^(Fo^2^)+(0.1540P)^2^]
 where P=(Fo^2^+2Fc^2^)/3
;
_refine_ls_weighting_scheme      calc
_refine_ls_wR_factor_gt          0.1847
_refine_ls_wR_factor_ref         0.2008
_reflns_Friedel_coverage         0.726
_reflns_Friedel_fraction_full    0.999
_reflns_Friedel_fraction_max     0.945
_reflns_number_gt                4608
_reflns_number_total             5155
_reflns_threshold_expression     'I > 2\s(I)'
_cod_data_source_file            ic500436g_si_001.cif
_cod_data_source_block           L-2
_cod_depositor_comments
'Adding full bibliography for 4338272--4338281.cif.'
_cod_original_cell_volume        2742.1(11)
_cod_database_code               4338273
#BEGIN Tags that were not found in dictionaries:
_shelx_space_group_comment
;
The symmetry employed for this shelxl refinement is uniquely defined
by the following loop, which should always be used as a source of
symmetry information in preference to the above space-group names.
They are only intended as comments.
;
_shelx_estimated_absorpt_t_min   0.741
_shelx_estimated_absorpt_t_max   0.857
_shelxl_version_number           2013-2
_shelx_res_file
;
TITL p in P4(1)2(1)2
CELL 0.71073  13.5335  13.5335  14.9716  90.000  90.000  90.000
ZERR   4.00   0.0023   0.0023   0.0036   0.000   0.000   0.000
LATT -1
SYMM -X, -Y, 0.5+Z
SYMM 0.5-Y, 0.5+X, 0.25+Z
SYMM 0.5+Y, 0.5-X, 0.75+Z
SYMM 0.5-X, 0.5+Y, 0.25-Z
SYMM 0.5+X, 0.5-Y, 0.75-Z
SYMM Y, X, -Z
SYMM -Y, -X, 0.5-Z
SFAC C H N O CU
UNIT 76 96 24 24 8
size 0.2 0.1 0.2
L.S. 20
BOND
FMAP 2
PLAN 10
mpla 5 o1 n3 o2 n1 cu1
acta

WGHT    0.154000
EXTI    0.074871
FVAR       0.48815
CU1   5    0.473090    0.204464    0.035279    11.00000    0.04091    0.03958 =
         0.03166    0.00083   -0.00006    0.00711
O1    4    0.383002    0.295396    0.103976    11.00000    0.05314    0.05814 =
         0.03158    0.00132   -0.00055    0.02034
O3    4    0.381569    0.065051    0.044011    11.00000    0.05886    0.05495 =
         0.03752    0.00460    0.00767   -0.01679
O2    4    0.553726    0.139602   -0.059153    11.00000    0.04277    0.04158 =
         0.03750   -0.00023    0.00276    0.01009
N3    3    0.415464    0.267916   -0.067076    11.00000    0.04826    0.03991 =
         0.03084    0.00257    0.00327    0.01026
C2    1    0.451940    0.240433   -0.154651    11.00000    0.05250    0.04406 =
         0.03156   -0.00128    0.00304    0.00979
AFIX  13
H2A   2    0.397330    0.213582   -0.190129    11.00000   -1.20000
AFIX   0
C6    1    0.705232    0.172520    0.217541    11.00000    0.04261    0.03892 =
         0.04138   -0.00152   -0.00451   -0.00415
N2    3    0.551914    0.122961    0.204251    11.00000    0.04243    0.06171 =
         0.03558    0.00702   -0.00573   -0.01460
AFIX  43
H2B   2    0.496135    0.095338    0.215819    11.00000   -1.20000
AFIX   0
C4    1    0.529533    0.158837   -0.139392    11.00000    0.03883    0.03707 =
         0.03847   -0.00245    0.00479    0.00356
C1    1    0.347169    0.332198   -0.050379    11.00000    0.04427    0.03989 =
         0.02972   -0.00221    0.00226    0.00838
C7    1    0.632589    0.115515    0.256674    11.00000    0.05877    0.04921 =
         0.04700    0.00843   -0.01358   -0.01755
C5    1    0.662264    0.209681    0.138471    11.00000    0.04386    0.04658 =
         0.04134    0.00178   -0.00074   -0.00893
N1    3    0.569375    0.179014    0.131462    11.00000    0.04116    0.04476 =
         0.03401    0.00188   -0.00343   -0.00123
C10   1    0.809330    0.190670    0.250000    10.50000    0.04278    0.04278 =
         0.06653   -0.00930   -0.00930    0.00090
C9    1    0.630773    0.053460    0.339846    11.00000    0.10646    0.10093 =
         0.07823    0.04896   -0.05337   -0.06219
AFIX  33
H9A   2    0.566710    0.023893    0.346461    11.00000   -1.50000
H9B   2    0.644541    0.094301    0.390775    11.00000   -1.50000
H9C   2    0.679907    0.002528    0.335456    11.00000   -1.50000
AFIX   0
C8    1    0.708772    0.273456    0.068036    11.00000    0.08316    0.14079 =
         0.06027    0.03350   -0.01555   -0.06066
AFIX  33
H8A   2    0.661322    0.286881    0.021943    11.00000   -1.50000
H8B   2    0.764593    0.239752    0.042793    11.00000   -1.50000
H8C   2    0.730146    0.334524    0.094324    11.00000   -1.50000
AFIX   0
C3    1    0.497253    0.328281   -0.204069    11.00000    0.14218    0.06186 =
         0.06891    0.01780    0.05860    0.01798
AFIX  33
H3A   2    0.447797    0.378217   -0.212751    11.00000   -1.50000
H3B   2    0.521748    0.306831   -0.261037    11.00000   -1.50000
H3C   2    0.550670    0.354963   -0.169453    11.00000   -1.50000
AFIX   0
H10A  2    0.822328    0.156990    0.298238    11.00000    0.05125

HKLF 4

REM  p in P4(1)2(1)2
REM R1 =  0.0640 for    4608 Fo > 4sig(Fo)  and  0.0781 for all    5155 data
REM    155 parameters refined using      0 restraints

END

WGHT      0.1023      0.0000

REM Highest difference peak  1.274,  deepest hole -0.988,  1-sigma level  0.349
Q1    1   0.5119  0.3183 -0.3799  11.00000  0.05    0.92
Q2    1   0.9659  0.1162  0.3483  11.00000  0.05    0.90
Q3    1   0.9626  0.1545  0.2768  11.00000  0.05    0.90
Q4    1   0.4291  0.4782 -0.3033  11.00000  0.05    0.89
Q5    1   0.5537  0.3598 -0.2744  11.00000  0.05    0.87
Q6    1   0.7673 -0.0217  0.2871  11.00000  0.05    0.84
Q7    1   0.4611  0.5096 -0.2659  11.00000  0.05    0.82
Q8    1   0.9269  0.1018  0.2906  11.00000  0.05    0.82
Q9    1   0.8429  0.1221  0.2852  11.00000  0.05    0.74
Q10   1   0.8497  0.1503  0.2500  10.50000  0.05    0.72
;
_shelx_res_checksum              2153
_shelx_hkl_file
;
   0   0  -2   -0.22    0.76
   0   0   2    0.86    0.61
   0   0  -2   -1.92    0.90
   0   0  -3    1.72    1.10
   0   0  -3    1.30    1.31
   0   0  -4  857.71   12.85
   0   0  -4  831.06   13.47
   0   0  -5   -1.23    2.19
   0   0  -5    0.47    1.75
   0   0  -6   17.48    9.81
   0   0  -6    5.39    2.69
   0   0  -7    1.38    1.80
   0   0  -7    2.73    1.72
   0   0  -8 1175.15   26.47
   0   0  -8 1158.40   25.55
   0   0  -9    6.21    3.39
   0   0  -9    1.78    2.40
   0   0 -10    0.98    2.69
   0   0 -10   -0.86    2.60
   0   0 -11    1.45    2.02
   0   0 -11   -0.79    3.76
   0   0 -12 3462.06   50.23
   0   0 -12 3474.02   22.55
   0   0 -13   -1.03    3.74
   0   0 -13    4.92    2.53
   0   0 -14    1.94    3.30
   0   0 -14    3.34    2.18
   0   0 -15   -0.41    3.51
   0   0 -15    6.09    2.19
   0   0  16  384.94   12.62
   0   0 -16  410.96   14.45
   0   0  17    2.40    2.97
   0   0 -17    6.20    2.95
   0   0  18    3.44    4.75
   0   0 -18    3.50    2.82
   0   0  19    4.03    4.47
   0   0 -19   -1.75    3.36
   0   0  20   19.44    6.19
   0   0 -20   18.57    7.04
   0   0  21    1.65    2.43
   0   0 -21    5.81    3.88
   0   0  22    3.79    3.39
   0   0 -22    6.43    2.40
   0   0 -23   -4.86    3.46
  -1   0   0   -0.35    0.34
   0   1   0   -0.43    0.28
   1   0  -1   -0.11    0.38
   1   0   1   -0.21    0.37
   0   1  -1    0.29    0.37
   0  -1  -3  376.36    3.86
   1   0  -3  390.40    5.67
   1   0   3  384.45    4.14
   0  -1  -3  397.91    5.05
  -1   0  -3  398.05    4.12
   0   1  -3  392.79    6.21
   1   0  -3  389.05    5.73
   0   1  -3  385.60    3.01
   0   1   3  387.27    2.08
  -1   0  -4 1684.57   23.69
   0  -1  -4 1702.62   24.38
   1   0  -4 1697.65   23.90
   0  -1  -4 1655.03   23.11
  -1   0  -4 1687.44   23.65
   1   0  -4 1631.43   22.88
   0   1  -4 1736.41   24.44
   0   1  -4 1628.98   22.18
  -1   0   4 1654.53   22.30
   0   1   4 1658.55   22.42
  -1   0  -5  250.51    3.85
   0   1  -5  266.62    6.09
   0  -1  -5  264.84    4.25
   1   0  -5  240.72    6.59
   0  -1  -5  226.64    6.17
  -1   0  -5  242.29    5.59
   1   0  -5  243.55    5.12
   0   1  -5  247.15    5.66
   0   1  -5  241.15    2.38
  -1   0  -6    7.60    2.77
   0   1  -6   11.62    2.15
   0  -1  -6    7.28    3.49
   1   0  -6    6.20    2.52
   0  -1  -6    3.37    1.03
  -1   0  -6    2.07    2.37
   1   0  -6    9.81    1.86
   0   1  -6    7.57    2.15
   0   1  -6    3.33    0.65
  -1   0  -7   43.94    6.08
   0   1  -7   44.45    3.71
   0  -1  -7   53.32    6.62
   1   0  -7   44.41    7.63
   0  -1  -7   36.14    2.66
  -1   0  -7   48.70    8.17
   1   0  -7   42.34    6.41
   0   1  -7   52.97    5.80
  -1   0  -8  760.87   17.95
   0   1  -8  742.60   17.82
   0  -1  -8  747.64   17.13
   1   0  -8  755.98   18.49
   0  -1  -8  742.48   16.97
  -1   0  -8  809.11   20.58
   1   0  -8  713.18   16.98
   0   1  -8  764.41   18.23
   0   1  -8  748.24   15.48
  -1   0  -9 1495.59   33.37
   0   1  -9 1494.84   33.25
   0  -1  -9 1515.66   33.73
   1   0  -9 1568.30   34.43
   0  -1  -9 1508.70   32.44
  -1   0  -9 1547.56   34.03
   1   0  -9 1499.74   33.96
   0   1  -9 1535.70   37.25
  -1   0  -9 1603.48   32.89
  -1   0 -10  134.54   13.43
   0   1 -10  130.62    6.12
   0  -1 -10  124.81   12.68
   1   0 -10  151.09   13.92
   0  -1 -10  128.67    4.80
  -1   0 -10  139.41   12.73
   1   0 -10  137.19    5.15
   0   1 -10  138.70   17.13
  -1   0 -11  104.13    8.63
   0   1 -11   98.31    7.61
   0  -1 -11   92.59    9.36
   1   0 -11   81.92    7.04
  -1   0 -11   96.63   11.93
   1   0 -11   85.62   10.09
   0   1 -11  100.28   11.62
   0   1 -12  626.32   20.21
   0  -1 -12  606.44   12.57
   1   0 -12  595.33   18.22
   0  -1 -12  643.24   17.88
  -1   0 -12  751.11   15.98
   1   0 -12  643.84   12.96
   0   1 -12  624.30   14.38
   0   1 -13  328.86   10.51
   0  -1 -13  338.45   22.08
   1   0 -13  366.57   11.19
   1   0  13  321.95   11.66
   0  -1 -13  323.43   13.98
  -1   0 -13  344.15   10.09
   1   0 -13  340.06   10.01
   0   1 -13  308.14   15.31
   0   1 -14   58.02   12.09
   0  -1 -14   58.50    8.99
   1   0 -14   63.03   13.27
   1   0  14   60.33   16.80
   0  -1 -14   55.52    9.55
  -1   0 -14   59.66   10.99
   1   0 -14   54.71   11.66
   0   1 -14   52.06    9.71
   0  -1 -15  117.10   10.15
   1   0 -15  131.78   22.69
   1   0  15  114.84    8.83
   0  -1 -15  137.57   14.19
  -1   0 -15  119.08   21.36
   1   0 -15  107.97   16.85
   0   1 -15  125.69    8.35
   1   0 -16   44.91    8.18
   1   0  16   36.96   11.15
   0  -1  16   28.30   10.50
   0  -1 -16   36.12    8.61
  -1   0 -16   25.60    6.87
   1   0 -16   47.55    9.75
   0   1 -16   31.77    8.66
   1   0 -17   23.79    5.23
   1   0  17   24.87    5.54
   0  -1  17   23.67    5.61
   0   1  17   28.52    5.96
   0  -1 -17   21.34    4.83
  -1   0 -17   23.30    4.73
   1   0 -17   26.97    7.08
   0   1 -17   18.99    5.13
   1   0  18    5.73    5.60
   0  -1  18    6.65    4.07
   0   1  18   17.64    6.67
   0  -1 -18    1.90    2.87
  -1   0 -18    9.92    5.01
   1   0 -18    4.40    3.53
   0   1 -18   -0.91    3.43
   1   0  19    6.45    4.14
   0  -1  19   23.83    6.48
   0   1  19   14.30    6.43
  -1   0  19   15.96    5.66
   0  -1 -19   12.35    4.45
  -1   0 -19   24.92    6.01
   1   0 -19    8.07    3.53
   0   1 -19   11.37    4.85
   1   0  20  137.45   12.17
   0  -1  20  122.29   26.48
   0   1  20  132.13   27.51
  -1   0  20  125.27   18.09
   0  -1 -20  109.68   22.69
  -1   0 -20  107.44   23.52
   1   0 -20  110.12   18.44
   0   1 -20  116.45   20.86
   1   0  21   25.43    9.83
   0  -1  21   43.45    7.61
   0   1  21   41.71   11.92
  -1   0  21   27.70    9.44
   0  -1 -21   26.41    7.52
  -1   0 -21   29.44    8.63
   1   0 -21   23.32    8.17
   0   1 -21   28.40    8.98
   1   0  22   -0.33    4.41
   0  -1  22   12.64    7.03
   0   1  22    5.88    4.72
  -1   0  22    4.57    3.40
   0  -1 -22    5.17    2.32
  -1   0 -22    0.21    3.56
   1   0 -22    2.18    1.77
   0   1 -22   -1.47    4.37
   0  -1 -23    6.89    3.10
   1  -1   0    0.18    0.24
   1   1   0   -0.41    0.24
  -1   1   0   -0.07    0.14
  -1  -1   0   -0.64    0.42
   1   1  -1   -0.66    0.56
   1  -1  -1   -0.17    0.67
   1  -1   1   -0.63    0.71
   1   1   1   -1.34    0.46
  -1  -1  -1    0.36    0.40
  -1   1  -1   -0.57    0.42
   1   1  -1   -0.30    0.72
  -1  -1   1    0.29    0.27
  -1  -1  -1   -0.22    0.50
   1   1  -2 4040.29   54.95
   1   1  -2 3679.93   49.53
   1   1  -3 1193.25   18.70
   1  -1  -3 1206.76   17.62
   1  -1   3 1243.80   18.42
   1   1   3 1141.32   16.43
  -1  -1  -3 1211.62   17.43
   1  -1  -3 1195.70   17.74
  -1   1  -3 1223.40   18.77
   1   1  -3 1196.29   17.58
  -1  -1   3 1205.81   16.67
   1   1  -3 1220.55   16.96
  -1  -1  -4  118.00    3.01
   1   1  -4  115.03    7.11
   1  -1  -4  118.73    5.32
   1  -1   4  122.22    3.73
  -1  -1  -4  126.81    3.03
   1  -1  -4  116.09    4.41
  -1   1  -4  120.43    3.91
   1   1  -4  118.09    4.24
  -1   1   4  120.63    2.37
  -1  -1   4  116.37    2.15
   1   1  -4  118.25    2.03
  -1  -1  -5 2222.62   31.30
   1   1  -5 2203.73   31.72
   1  -1  -5 2224.11   31.55
  -1  -1  -5 2176.63   30.85
   1  -1  -5 2144.14   29.72
  -1   1  -5 2145.37   30.08
   1   1  -5 2204.95   31.76
  -1  -1   5 2245.31   30.38
  -1   1   5 2172.54   29.24
   1   1  -5 2264.03   30.61
  -1   1  -6    8.53    3.22
  -1  -1  -6    9.92    4.09
   1   1  -6   11.07    2.37
   1  -1  -6   13.06    2.59
  -1  -1  -6    7.85    1.80
   1  -1  -6   11.82    2.06
  -1   1  -6    8.02    3.31
   1   1  -6   14.43    2.58
  -1  -1   6   10.22    1.13
  -1   1  -7 1452.96   22.20
  -1  -1  -7 1550.72   25.32
   1   1  -7 1478.89   22.83
   1  -1  -7 1523.95   22.80
  -1  -1  -7 1460.36   21.48
   1  -1  -7 1481.31   22.00
  -1   1  -7 1454.69   21.56
   1   1  -7 1467.54   21.69
  -1   1  -8   46.32    6.15
  -1  -1  -8   43.01    5.00
   1   1  -8   49.63    3.69
   1  -1  -8   42.78    5.53
  -1  -1  -8   48.82    5.57
   1  -1  -8   49.24    5.99
  -1   1  -8   43.75    4.19
   1   1  -8   57.91    7.44
  -1   1  -8   41.29    3.60
  -1  -1  -8   42.81    2.77
  -1   1  -9  248.35   14.93
  -1  -1  -9  264.59   14.34
   1   1  -9  258.28   14.24
   1  -1  -9  337.37   17.60
  -1  -1  -9  273.41   15.63
   1  -1  -9  262.83   13.35
  -1   1  -9  249.94   13.12
   1   1  -9  264.89   13.69
  -1   1  -9  257.92   12.48
  -1  -1  -9  284.40   13.47
  -1   1 -10    3.11    2.55
  -1  -1 -10    6.19    3.47
   1   1 -10    8.79    2.89
   1  -1 -10   -0.17    3.80
  -1  -1 -10    4.27    4.72
   1  -1 -10    6.68    2.77
  -1   1 -10    9.90    3.53
   1   1 -10   -0.81    3.13
  -1   1 -10    2.69    0.80
  -1  -1 -11 2856.45   42.58
   1   1 -11 2678.13   40.28
   1  -1 -11 3057.51   44.49
  -1  -1 -11 2981.54   42.44
   1  -1 -11 2766.64   42.81
  -1   1 -11 2892.32   40.96
   1   1 -11 2922.66   44.40
   1   1 -12  300.47    9.02
   1  -1 -12  296.45   10.92
   1  -1  12  302.95    9.47
  -1  -1 -12  316.18   11.29
   1  -1 -12  312.60   10.72
  -1   1 -12  313.85   12.60
   1   1 -12  318.69   12.33
   1   1 -13   82.61    9.00
   1  -1 -13   81.46   15.81
   1  -1  13   96.47   12.72
   1   1  13   97.10   20.41
  -1  -1 -13   96.02   12.54
   1  -1 -13  311.11   39.00
  -1   1 -13   87.40   10.15
   1   1 -13   88.30    8.29
   1   1 -14  232.72   11.86
   1  -1 -14  216.60   17.98
   1  -1  14  229.54   11.39
   1   1  14  225.49   13.67
  -1  -1 -14  239.35   13.06
   1  -1 -14  247.53   12.79
  -1   1 -14  218.44   11.06
   1   1 -14  240.64   12.13
   1   1 -15    4.07    2.04
   1  -1 -15    1.10    2.85
   1  -1  15    0.93    3.30
   1   1  15    4.41    4.09
  -1  -1 -15    6.34    3.84
   1  -1 -15    4.93    2.71
  -1   1 -15    8.75   10.91
   1   1 -15   -0.61    3.52
   1   1 -16   28.68    5.56
   1  -1 -16   28.02    5.66
   1  -1  16   30.91    8.54
   1   1  16   27.55    6.52
  -1  -1 -16   27.23    5.06
   1  -1 -16   21.12    5.98
  -1   1 -16   30.15    8.88
   1   1 -16   30.03    5.46
   1   1 -17  313.11   10.47
   1  -1 -17  289.38   25.60
   1  -1  17  291.91   34.51
   1   1  17  342.82   10.05
  -1  -1 -17  296.54   31.02
   1  -1 -17  297.37   32.52
  -1   1 -17  319.64    9.65
   1   1 -17  310.70   11.32
   1  -1  18    2.68    3.27
   1   1  18   10.21    5.40
  -1  -1  18   12.39    6.27
  -1  -1 -18    7.72    3.30
   1  -1 -18    7.49    4.40
  -1   1 -18    6.12    3.08
   1   1 -18   11.63    4.97
   1  -1  19   77.83   12.51
   1   1  19   65.83   14.25
  -1  -1  19   67.12   18.58
  -1   1  19   66.44   20.60
   1  -1 -19   55.14   13.36
  -1   1 -19   64.06   13.19
   1   1 -19   68.69   17.85
   1  -1  20    1.93    4.06
   1   1  20    1.59    2.93
  -1  -1  20    0.42    4.45
  -1   1  20    6.58    7.58
  -1  -1 -20    2.82    3.29
   1  -1 -20    2.19    2.87
  -1   1 -20    3.48    4.58
   1   1 -20    8.61    3.21
   1  -1  21   59.22    7.43
   1   1  21   65.43   15.17
  -1  -1  21   60.79   15.44
  -1   1  21   52.22   22.63
  -1  -1 -21   69.22   13.30
   1  -1 -21   48.50   16.43
  -1   1 -21   47.59   15.77
   1   1 -21   59.82   16.60
   1  -1  22    1.01    3.06
   1   1  22   -5.16    4.74
  -1  -1  22    5.53    4.11
  -1   1  22    4.52    3.02
  -1  -1 -22    5.33    3.56
   1  -1 -22   -0.10    2.60
  -1   1 -22   -0.55    4.51
   1   1 -22   -0.17    3.33
  -1  -1 -23   18.97    4.60
   1   1 -23   25.11    6.39
  -2   0   0   46.48    4.16
   0   2  -1  173.51    4.11
   0   2  -2  220.85    3.05
   0  -2   2  224.06    2.18
   0  -2  -2  223.06    3.78
   2   0  -2  240.82    4.67
   2   0   2  225.34    3.30
   0  -2  -2  238.47    3.51
  -2   0  -2  229.51    3.63
   0   2  -2  222.98    4.48
   2   0  -2  234.52    5.76
  -2   0   2  223.39    2.19
   0  -2   2  230.85    3.12
   0  -2  -2  228.81    5.06
   0   2  -3  175.47    2.97
   0  -2  -3  182.52    3.11
   2   0  -3  180.73    4.15
   2   0   3  178.15    5.10
   0  -2  -3  181.35    2.89
  -2   0  -3  177.71    6.58
   0   2  -3  187.62    5.64
   2   0  -3  185.95    5.01
   0  -2  -3  185.62    5.00
   0   2   3  172.96    2.89
   0   2  -4   63.38    2.69
   0  -2  -4   57.98    2.83
   2   0  -4   60.93    6.57
   2   0   4   60.19    6.04
   0  -2  -4   61.68    6.33
  -2   0  -4   59.96    4.22
   0   2  -4   64.77    4.69
   2   0  -4   65.57    7.76
   0  -2  -4   58.17    2.77
   0   2   4   68.48    2.40
   0   2  -5 2409.59   34.22
   2   0  -5 2525.21   36.13
   2   0   5 2549.48   35.59
   0  -2  -5 2461.66   34.00
  -2   0  -5 2586.89   36.05
   0   2  -5 2525.96   35.51
   2   0  -5 2541.76   35.35
   0   2   5 2459.51   33.42
  -2   0   5 2404.93   32.53
   0   2  -6 1134.75   17.99
   0  -2  -6 1103.14   16.58
   2   0  -6 1100.80   16.81
   2   0   6 1123.04   19.17
   0  -2  -6 1139.17   17.76
   2   0  -6 1142.87   17.01
   0   2  -6 1164.18   17.73
  -2   0   6 1150.93   15.78
   0   2   6 1219.89   16.85
   0   2  -7  341.37    5.12
   2   0  -7  350.36    7.66
   2   0   7  363.41    7.47
   0  -2  -7  363.32    8.60
   2   0  -7  348.30    5.24
   0   2  -7  362.56    6.07
   0   2  -8   55.94    5.68
   0  -2  -8   54.77    9.59
   2   0  -8   50.32    4.90
   2   0   8   53.76    5.69
   0  -2  -8   51.87    6.06
  -2   0  -8  156.92   15.79
   0   2  -8   61.33   10.89
   0   2  -9  378.65   18.84
   0  -2  -9  398.70   20.97
   2   0  -9  388.52   19.75
   2   0   9  411.04   21.44
   0  -2  -9  397.14   19.57
  -2   0  -9  446.71   12.02
   2   0  -9  388.19   19.53
   0   2  -9  370.97   21.40
   0   2 -10 2229.63   55.84
   0  -2 -10 2178.02   56.02
   2   0 -10 2230.69   57.16
   2   0  10 2308.20  183.49
   0  -2 -10 2274.18  180.73
  -2   0 -10 2295.87  182.50
   2   0 -10 2198.88   54.66
   0   2 -10 2201.37   56.17
   0   2 -11  897.70   19.83
   0  -2 -11  907.89   22.41
   2   0 -11  903.85   18.56
   2   0  11  862.02   20.64
   0  -2 -11  895.67   15.37
  -2   0 -11  904.04   15.84
   2   0 -11  865.76   16.89
   0   2 -11  913.92   16.48
  -2   0 -11  872.11   11.30
   0   2 -12   23.67    5.12
   0  -2 -12   35.96    6.81
   2   0 -12   29.09    4.39
   2   0  12   34.18    7.28
   0  -2 -12   31.80    6.75
  -2   0 -12   26.04    4.96
   2   0 -12   30.00    6.24
   0   2 -12   36.04    7.23
   0   2 -13    8.10    3.93
   0  -2 -13   13.78    4.60
   2   0 -13    4.79    2.08
   2   0  13   -1.49    3.70
   0  -2 -13   -0.42    2.93
  -2   0 -13    4.83    4.04
   2   0 -13   -1.04    3.01
   0   2 -13   13.10    4.68
   0   2 -14    7.18    3.93
   0  -2 -14    7.67    3.73
   2   0 -14    4.71    3.56
   2   0  14    7.93    5.38
   0  -2 -14   10.52    3.12
  -2   0 -14   11.45    5.20
   2   0 -14    3.85    3.15
   0   2 -14    1.00    2.99
   0  -2 -15  178.27    8.31
   2   0 -15  184.34   28.77
   2   0  15  178.41    8.42
   0  -2  15  182.30   16.19
   0  -2 -15  162.49   15.42
  -2   0 -15  172.47   15.17
   2   0 -15  164.45    7.87
   0   2 -15  186.30   19.83
   2   0 -16   11.57    5.71
   2   0  16    3.58    4.30
   0  -2  16    2.14    2.33
   0  -2 -16    6.39    4.89
  -2   0 -16    3.01    2.51
   2   0 -16    3.06    3.25
   0   2 -16    3.31    4.63
   2   0 -17  140.15   24.32
   2   0  17  136.51   32.16
   0  -2  17  135.16   20.07
   0   2  17  136.46   15.69
   0  -2 -17  135.02   16.91
  -2   0 -17  125.92   14.50
   2   0 -17  150.17   21.89
   0   2 -17  124.72   18.33
   2   0 -18  140.02   26.75
   2   0  18  161.10   18.38
   0  -2  18  143.88   21.18
   0   2  18  144.14   15.54
   0  -2 -18  158.41   12.96
  -2   0 -18  132.30   15.07
   2   0 -18  132.71   18.89
   0   2 -18  170.17   15.71
   2   0 -19   -1.32    4.19
   2   0  19    6.77    5.23
   0  -2  19    8.42    3.49
   0   2  19    6.37    5.03
   0  -2 -19    4.14    2.15
  -2   0 -19    4.81    5.39
   2   0 -19    4.16    2.72
   0   2 -19    8.03    4.72
   2   0  20    4.95    4.82
   0  -2  20   -2.77    4.65
   0   2  20    6.07    3.83
  -2   0  20    2.54    2.47
   0  -2 -20    2.21    1.67
  -2   0 -20    4.24    3.08
   2   0 -20    1.35    3.51
   0   2 -20   -1.90    4.55
   2   0  21   33.11    8.18
   0  -2  21   21.25   10.32
   0   2  21   19.24    9.38
  -2   0  21   28.55    9.82
   0  -2 -21   32.61    6.97
  -2   0 -21   22.15    8.03
   2   0 -21   18.34    5.05
   0   2 -21   31.31    9.04
   2   0  22  101.10   28.31
   0  -2  22   96.09   31.24
   0   2  22   91.70   24.76
  -2   0  22  127.07   13.54
   0  -2 -22  128.11   21.03
  -2   0 -22  111.67   20.68
   2   0 -22   69.30   28.18
   0   2 -22   81.25   24.69
   1   2  -2 3414.98   46.18
   2   1  -2 3328.61   45.57
   2  -1  -2 3262.62   45.05
   2  -1   2 3368.24   45.85
   2   1   2 3283.45   44.84
   1   2   2 3412.28   46.22
  -1  -2  -2 3208.92   43.64
  -2  -1  -2 3379.74   47.44
  -2   1  -2 3291.82   45.36
  -1   2  -2 3474.01   47.88
   1   2  -2 3395.66   46.47
  -2   1   2 3450.21   46.42
   2   1  -2 3386.11   46.36
  -1  -2   2 3360.01   45.56
  -1  -2  -2 3337.98   45.60
  -2  -1   2 3239.57   43.94
   1  -2  -3   91.18    3.06
   2   1  -3  102.52    3.74
   2  -1  -3   43.88    8.75
   2   1   3   43.22    6.22
   1  -2   3   47.73    8.47
  -1  -2  -3   38.49    5.44
  -2  -1  -3   94.24    2.58
  -2   1  -3   46.24    9.10
  -1   2  -3  100.93    4.57
   2  -1  -3   44.76    6.33
  -2   1   3  104.74    5.33
   1   2  -3   52.91   10.60
   2   1  -3   99.02    4.45
  -1  -2  -4  641.31   10.00
   1   2  -4  621.01   10.29
   1  -2  -4  620.36    9.57
   2   1  -4  605.73   10.47
   2  -1  -4  624.23    9.70
   2  -1   4  593.33    9.86
   2   1   4  615.08    9.83
   1  -2   4  617.96   10.25
  -1  -2  -4  599.50    9.54
  -2  -1  -4  632.31   10.33
   1  -2  -4  627.40    9.57
  -2   1  -4  609.21    9.62
   2  -1  -4  616.11    9.25
  -1   2  -4  613.54   10.46
   1   2  -4  625.47   10.18
   2   1  -4  616.63   12.32
  -1  -2   4  614.84    9.63
  -1  -2  -4  606.06    9.28
  -2  -1   4  611.63    9.19
   1   2  -5  333.85    5.07
   1  -2  -5  277.48    4.22
   2  -1  -5  337.75    4.71
   2  -1   5  289.18    7.99
   2   1   5  327.13    5.93
   1  -2   5  323.69    4.29
  -1  -2  -5  335.15    7.39
   1  -2  -5  290.93    5.75
  -2   1  -5  327.96    4.60
   2  -1  -5  316.06    4.53
  -1   2  -5  282.97    7.43
   1   2  -5  357.36    8.76
  -1   2   5  312.16    2.58
  -1  -2  -5  323.78    4.12
  -2  -1   5  316.81    2.98
  -1  -2  -6  377.31    5.54
   1   2  -6  380.83    6.90
   1  -2  -6  350.91    4.77
   2   1  -6  354.67    4.78
   2  -1  -6  381.65    6.25
   2  -1   6  345.51    5.74
   2   1   6  383.81    6.02
   1  -2   6  367.51    7.81
  -1  -2  -6  367.07    4.74
  -2  -1  -6  360.92    7.19
   1  -2  -6  360.53    4.68
  -2   1  -6  365.38    5.48
   2  -1  -6  372.82    4.43
  -1   2  -6  351.36    6.78
   1   2  -6  381.33    7.29
   2   1  -6  358.88    5.57
  -1  -2   6  348.26    3.16
  -1   2   6  374.28    3.08
  -1  -2  -6  367.58    3.34
  -2  -1   6  387.02    3.21
  -2  -1  -6  364.76    3.53
  -1  -2  -7  567.37   12.26
   1   2  -7  555.97    9.95
   2   1  -7  558.44   12.23
   2  -1  -7  563.34   10.66
   2  -1   7  576.89   11.03
   2   1   7  542.69    9.48
  -1  -2  -7  568.91   11.05
  -2  -1  -7  570.13   12.16
   1  -2  -7  578.75   11.20
  -2   1  -7  561.63   10.17
   2  -1  -7  577.68   11.65
  -1   2  -7  563.23   10.86
   1   2  -7  552.91   10.95
   2   1  -7  559.50   11.50
  -2   1   7  547.74    7.80
  -2  -1   7  558.54    8.21
  -1   2   7  551.61    7.97
  -2  -1  -7  583.25    9.10
  -1  -2  -8  239.90   12.70
   1   2  -8  241.75   12.61
   1  -2  -8  263.50   14.25
   2   1  -8  246.33   12.51
   2  -1  -8  246.23   12.71
   2  -1   8  263.73   14.00
   2   1   8  237.52   12.40
  -1  -2  -8  238.33   12.81
  -2  -1  -8  255.94   13.19
   1  -2  -8  267.85   14.85
  -2   1  -8  254.69   13.09
   2  -1  -8  241.93   12.95
  -1   2  -8  263.06   13.45
   1   2  -8  244.48   13.58
   2   1  -8  268.33   14.35
  -2  -1   8  244.47   11.77
  -2  -1  -8  240.81   11.80
  -1  -2  -9 1113.99   25.26
   1  -2  -9 1141.70   25.40
   2   1  -9 1153.84   26.17
   2  -1  -9 1076.95   27.26
   2  -1   9 1162.29   26.61
   2   1   9 1076.66   24.85
  -1  -2  -9 1127.10   25.12
  -2  -1  -9 1099.36   25.04
   1  -2  -9 1138.11   25.64
  -2   1  -9 1100.02   25.00
   2  -1  -9 1067.77   24.45
  -1   2  -9 1130.67   29.31
   2   1  -9 1165.04   27.39
   1   2  -9 1080.49   25.50
  -1  -2 -10  492.82   16.73
   1   2 -10  499.55   17.90
   1  -2 -10  489.01   19.49
   2   1 -10  487.23   16.85
   2  -1 -10  501.68   16.99
   2  -1  10  489.11   20.14
   2   1  10  497.91   14.78
   1  -2  10  508.15   21.56
  -1  -2 -10  491.06   13.71
  -2  -1 -10  481.57   13.79
   1  -2 -10  479.38   16.24
  -2   1 -10  519.83   15.52
   2  -1 -10  485.56   13.98
  -1   2 -10  489.87   16.25
   2   1 -10  481.11   14.77
   1   2 -10  488.91   14.25
  -1  -2 -11   53.38   11.14
   1   2 -11   47.07   11.05
   1  -2 -11   57.39   14.36
   2   1 -11   67.25   16.52
   2  -1 -11   52.93   15.39
   2  -1  11   58.11    9.24
   2   1  11   42.96   11.66
   1  -2  11   50.19   12.27
  -1  -2 -11   63.49   14.03
  -2  -1 -11   47.23   11.62
   1  -2 -11   38.93    5.83
  -2   1 -11   47.09    7.65
   2  -1 -11   55.10   13.48
  -1   2 -11   51.52    7.45
   2   1 -11   49.01    9.64
   1   2 -11   64.91   11.15
  -2  -1 -11   31.60    3.64
  -1  -2 -12   71.19   15.28
   1   2 -12   62.00    5.60
   1  -2 -12   62.13   13.95
   2   1 -12   71.98   14.17
   2  -1 -12   70.41   14.55
   2  -1  12   59.66   12.56
   2   1  12   66.15   12.77
   1  -2  12   68.01    8.26
  -1  -2 -12   71.31   12.32
  -2  -1 -12   62.83   12.90
   1  -2 -12   61.56    9.61
  -2   1 -12   63.17   12.44
   2  -1 -12   67.15   13.92
  -1   2 -12   67.21    6.06
   2   1 -12   69.86   13.11
   1   2 -12   73.44   15.19
   1   2 -13  531.20   15.55
   1  -2 -13  510.86   21.43
   2   1 -13  498.76   18.62
   2  -1  13  493.88   14.97
   2   1  13  522.32   14.43
   1  -2  13  528.36   15.34
  -1  -2 -13  526.46   14.12
  -2  -1 -13  507.33   13.05
   1  -2 -13  507.49   11.91
   2  -1 -13  514.32   12.54
  -1   2 -13  487.79   17.09
   2   1 -13  528.10   14.20
   1   2 -13  525.17   19.46
   1   2 -14  111.46   21.12
   1  -2 -14  117.28   22.30
   2   1 -14  108.99    8.86
   2  -1 -14  104.65   18.28
   2  -1  14  134.83   24.54
   2   1  14  109.07   10.60
   1  -2  14  110.38   22.11
   1   2  14  123.86   10.38
  -1  -2 -14  110.71   13.95
  -2  -1 -14  122.51   10.02
   1  -2 -14  132.37   15.41
  -2   1 -14   99.86   12.03
   2  -1 -14  109.21   15.44
  -1   2 -14  122.27   14.29
   2   1 -14  118.69   17.76
   1   2 -14  105.94    7.13
   1   2 -15   93.41    7.91
   1  -2 -15   92.92   18.75
   2   1 -15   93.28   17.13
   2  -1 -15   91.82   15.81
   2  -1  15   95.10    9.33
   2   1  15   85.68   18.70
   1  -2  15   79.73   15.90
   1   2  15   86.94   12.60
  -1  -2 -15   92.16   17.00
  -2  -1 -15   80.84   20.16
   1  -2 -15   87.58   13.49
  -2   1 -15   86.04    8.55
   2  -1 -15  102.52   18.39
  -1   2 -15   91.92   16.15
   2   1 -15   82.46   13.49
   1   2 -15   85.07    9.83
   1   2 -16   28.36    8.89
   1  -2 -16   36.10    8.22
   2   1 -16   29.52    5.17
   2  -1 -16   27.16    6.70
   2  -1  16   39.01    8.22
   2   1  16   34.23    7.72
   1  -2  16   31.88    6.58
   1   2  16   35.64    8.15
  -1  -2 -16   30.22    7.73
  -2  -1 -16   42.17    6.64
   1  -2 -16   22.04    5.96
  -2   1 -16   26.89    7.41
   2  -1 -16   30.83    6.91
  -1   2 -16   35.54    6.07
   2   1 -16   28.25    8.77
   1   2 -16   30.31    7.85
   1  -2 -17   10.07    6.90
   2   1 -17   28.86    6.59
   2  -1 -17   15.11    5.34
   2  -1  17   41.76   13.46
   2   1  17   20.53    6.26
   1  -2  17   13.70    4.32
   1   2  17   13.93    5.15
  -1  -2 -17   17.75    5.46
  -2  -1 -17   19.50    4.74
   1  -2 -17   12.90    3.61
  -2   1 -17   14.70    5.42
   2  -1 -17   17.89    5.59
  -1   2 -17   43.35   12.20
   1   2 -17   18.91    5.19
   2   1 -18   57.03   11.17
   2  -1 -18   72.18   12.67
   2  -1  18   67.76   15.03
   2   1  18  132.40   34.46
   1  -2  18   69.65   15.56
   1   2  18   55.04   16.33
  -1  -2  18   63.54   10.88
  -1  -2 -18   51.58   14.44
  -2  -1 -18   46.51    9.23
   1  -2 -18   52.29   10.24
  -2   1 -18   50.97   14.64
   2  -1 -18   49.27   12.38
  -1   2 -18   65.43   10.64
   2   1 -18   62.90   16.57
   1   2 -18   49.76   12.11
   2   1 -19   88.15   25.13
   2  -1 -19  110.55   14.46
   2  -1  19  116.98   14.90
   2   1  19  110.77   15.45
   1  -2  19  121.31   15.82
   1   2  19  109.89   13.08
  -1  -2  19  108.41   24.24
  -1   2  19   94.28   23.88
  -1  -2 -19  130.46   17.76
  -2  -1 -19  116.26   11.60
   1  -2 -19   80.88   20.96
  -2   1 -19   93.33   21.72
   2  -1 -19   85.09   19.77
  -1   2 -19   98.19   20.33
   2   1 -19   83.19   18.55
   1   2 -19  274.67   66.11
   2  -1  20   33.52    9.11
   2   1  20   21.70   11.26
   1  -2  20   15.25    7.02
   1   2  20   32.38    7.44
  -1  -2  20   25.38    5.75
  -1   2  20   18.95    7.57
  -2  -1  20   30.24    8.42
  -1  -2 -20   24.37    3.75
  -2  -1 -20   32.19    6.85
   1  -2 -20   20.60    6.39
  -2   1 -20   21.10    6.64
   2  -1 -20   24.04    6.42
  -1   2 -20   23.62    8.38
   2   1 -20   27.14    7.55
   1   2 -20   21.12    6.50
   2  -1  21   24.53   11.48
   2   1  21   28.67    9.80
   1  -2  21   26.92   13.42
   1   2  21   26.95    8.33
  -1  -2  21   26.87    5.43
  -1   2  21   22.19    8.47
  -2  -1  21   29.34    8.06
  -2   1  21   22.27    8.68
  -1  -2 -21   33.65    8.57
  -2  -1 -21   26.50    5.83
   1  -2 -21   29.58    7.44
   2  -1 -21   24.92    9.05
  -2   1 -21   23.65    9.59
  -1   2 -21   25.26   10.66
   2   1 -21   26.45    6.27
   1   2 -21   15.51    8.51
   2  -1  22   -0.30    2.48
   1  -2  22   -7.62    4.43
   1   2  22    2.27    2.45
  -1  -2  22    4.65    3.41
  -2  -1  22   -5.39    3.95
  -2   1  22    3.91    5.88
  -1  -2 -22   -0.27    3.17
  -2  -1 -22   14.70    4.74
  -2   1 -22    4.14    4.90
  -1   2 -22    8.92    4.93
   2   1 -22    2.12    1.31
   1   2 -22    4.31    3.33
  -1  -2 -23    9.77    3.61
   2   1 -23    3.87    4.14
   2  -2   1 3461.88   47.09
   2   2   1 3323.67   45.05
  -2  -2  -1 3231.82   44.12
  -2   2  -1 3268.47   44.32
  -2  -2   1 3273.53   45.09
  -2  -2  -1 3281.35   45.09
   2   2  -2 1517.37   21.59
   2  -2  -2 1495.31   21.46
   2  -2   2 1526.63   21.92
   2   2   2 1505.14   21.13
  -2  -2  -2 1493.49   21.22
  -2   2  -2 1542.75   22.47
  -2   2   2 1505.63   20.33
   2   2  -2 1556.06   22.42
  -2  -2   2 1518.59   22.07
  -2  -2  -2 1488.89   20.96
   2   2  -3  419.40   20.31
   2  -2  -3  411.80   20.18
   2  -2   3  369.20    4.10
   2   2   3  373.94    5.05
  -2  -2  -3  408.98   19.72
  -2   2  -3  375.31    7.60
  -2   2   3  376.95    3.39
   2   2  -3  379.83    9.04
  -2  -2   3  395.36    3.89
  -2  -2  -3  386.67    5.27
   2   2  -4  394.39    6.54
   2  -2  -4  402.34   20.31
   2  -2   4  396.57    4.69
   2   2   4  419.92   21.66
  -2  -2  -4  406.92   19.94
   2  -2  -4  395.24    3.64
  -2   2  -4  386.44    4.55
   2   2  -4  391.02    5.49
  -2  -2   4  398.00    3.85
  -2  -2  -4  402.95   19.39
   2   2  -5  144.85    6.29
   2  -2  -5  123.33    5.51
   2  -2   5  130.67    4.19
   2   2   5  121.23    4.76
  -2  -2  -5  125.47    5.38
   2  -2  -5  122.94    4.53
  -2   2  -5  120.09    3.43
   2   2  -5  136.55    7.84
  -2  -2   5  129.04    5.51
  -2  -2  -5  121.10    4.41
   2   2  -6  281.38    5.16
   2  -2  -6  284.52    6.71
   2   2   6  294.67    6.71
  -2  -2  -6  279.08    5.17
   2  -2  -6  298.62    3.61
  -2   2  -6  300.19    5.85
   2   2  -6  306.32    6.74
  -2  -2   6  301.95    4.57
  -2  -2  -6  295.96    5.39
   2   2  -7  817.65   13.40
   2  -2  -7  837.66   13.36
   2  -2   7  824.81   13.66
   2   2   7  827.52   13.44
  -2  -2  -7  844.57   13.49
   2  -2  -7  834.83   13.15
  -2   2  -7  789.03   13.96
   2   2  -7  862.45   14.17
  -2  -2   7  809.29   12.08
  -2  -2  -7  804.25   12.17
   2   2  -8   62.95    7.40
   2  -2  -8   60.48    6.05
   2  -2   8   64.20    5.39
   2   2   8   64.33    8.07
  -2  -2  -8   63.43    6.21
   2  -2  -8   65.13    7.06
  -2   2  -8   53.06    5.45
   2   2  -8   70.35    7.73
  -2  -2   8   58.67    3.90
  -2   2   8   55.82    3.20
  -2  -2  -8   71.46    4.96
   2   2  -9   58.15    5.26
   2  -2  -9   51.69    7.45
   2  -2   9   57.54    5.64
   2   2   9   55.43   11.59
  -2  -2  -9   61.24    7.81
   2  -2  -9   58.53    6.52
  -2   2  -9   60.85    6.05
   2   2  -9   68.27   11.24
  -2  -2  -9   51.48    4.19
   2   2 -10    2.89    2.04
   2  -2 -10    4.59    3.06
   2  -2  10    3.76    2.69
   2   2  10    2.20    1.82
  -2  -2 -10   -0.43    2.83
   2  -2 -10   -1.26    2.38
  -2   2 -10    4.05    4.34
   2   2 -10   13.27    5.56
   2   2 -11  257.58    8.90
   2  -2 -11  250.57    7.99
   2  -2  11  256.51    9.45
   2   2  11  258.99   10.05
  -2  -2 -11  262.73    8.13
  -2   2 -11  261.16    8.91
   2   2 -11  246.71   18.99
   2   2 -12  997.86   48.48
   2  -2 -12  850.38   35.06
   2  -2  12  810.51   33.90
   2   2  12  819.48   34.76
  -2  -2 -12  780.00   30.74
   2  -2 -12  810.28   32.67
  -2   2 -12  846.65   33.25
   2   2 -12  818.04   33.16
   2   2 -13  404.84   21.90
   2  -2  13  437.84   14.16
   2   2  13  386.36   15.96
  -2  -2 -13  413.86   11.64
   2  -2 -13  399.22   15.84
  -2   2 -13  441.98   12.78
   2   2 -13  390.46   11.98
   2   2 -14  132.83   11.93
   2  -2 -14  154.15   12.30
   2  -2  14  140.07    9.84
   2   2  14  129.06    8.76
  -2  -2 -14  146.87   17.22
   2  -2 -14  132.82   14.23
  -2   2 -14  147.27   13.87
   2   2 -14  131.14   15.75
   2   2 -15  109.18    7.64
   2  -2 -15   91.61   20.39
   2  -2  15  109.36    9.61
   2   2  15   98.25   10.55
  -2  -2 -15  102.80   11.39
   2  -2 -15   94.64   14.97
  -2   2 -15  117.37   25.54
   2   2 -15   97.16    8.42
   2   2 -16  397.64   10.99
   2  -2 -16  351.74   11.67
   2   2  16  424.79   12.46
  -2  -2 -16  395.73   15.18
   2  -2 -16  383.57    8.61
  -2   2 -16  364.13   10.41
   2   2 -16  374.85   12.34
   2   2 -17   10.04    3.55
   2  -2 -17   12.88    5.54
   2  -2  17   11.30    2.77
   2   2  17    9.16    3.53
  -2  -2 -17   24.49    4.76
   2  -2 -17   14.66    4.59
  -2   2 -17   16.46    4.43
   2   2 -17   14.32    5.17
   2   2 -18   11.57    6.66
   2  -2 -18    8.58    3.89
   2  -2  18   16.30    6.63
   2   2  18   26.62    8.36
  -2  -2 -18   12.42    3.19
   2  -2 -18    5.35    3.25
  -2   2 -18    8.14    5.84
   2   2 -18   11.07    3.29
   2  -2 -19   -0.41    4.52
   2  -2  19    7.51    5.64
   2   2  19    0.94    7.64
   2  -2 -19    3.29    1.94
  -2   2 -19    7.60    6.22
   2   2 -19   -0.69    3.70
   2  -2  20    9.50    4.49
   2   2  20    7.30    4.41
  -2  -2  20    0.96    3.97
  -2  -2 -20    5.35    2.87
   2  -2 -20    6.05    3.67
  -2   2 -20    3.72    2.39
   2   2 -20   16.74    8.74
   2  -2  21    3.22    2.47
   2   2  21    9.50    3.03
  -2  -2  21    3.85    4.61
  -2   2  21    2.94    4.31
  -2  -2 -21    8.04    3.55
  -2   2 -21    5.32    5.01
   2   2 -21    5.70    3.35
   2  -2  22    6.83    5.79
  -2  -2  22    2.13    4.45
  -2  -2 -22   11.58    4.07
  -2   2 -22    4.26    5.02
   2   2 -22    4.90    2.56
   3   0   0    2.04    2.94
  -3   0   0    1.96    1.24
   0  -3   0    5.36    2.56
   3   0  -1  291.05    8.06
   3   0   1  290.39    4.80
  -3   0  -1  295.87    4.18
   0   3  -1  300.93    6.80
   0  -3   1  282.95    4.12
   0  -3  -1  291.87    5.75
   0  -3   2  585.78    8.84
   0  -3  -2  602.74    9.40
   3   0  -2  580.32   13.06
   3   0   2  589.96   12.45
   0  -3   2  561.08    8.49
   0  -3  -2  575.86    8.95
  -3   0  -2  590.83   10.79
   0   3  -2  620.32   10.80
   0  -3   2  550.40   10.90
   0  -3  -2  555.54    8.60
   0   3  -3  638.51   10.13
   0  -3  -3  616.95    9.24
   3   0  -3  590.40   11.21
   3   0   3  588.89    9.87
   0  -3  -3  593.15    9.44
  -3   0  -3  625.22   11.45
   0   3  -3  594.68   14.13
   3   0  -3  590.98    9.19
   0  -3   3  592.82   10.79
   0  -3  -3  601.18    9.09
   0   3  -4  822.67   13.22
   0  -3  -4  811.09   12.12
   3   0  -4  899.55   13.96
   3   0   4  839.47   12.99
   0  -3  -4  808.90   12.66
  -3   0  -4  780.43   12.19
   0   3  -4  795.04   12.50
   3   0  -4  795.83   13.06
   0  -3   4  806.12   11.95
   0  -3  -4  803.42   12.40
   0   3  -5 1775.44   25.86
   3   0  -5 2027.70   29.06
   3   0   5 1808.92   26.05
   0  -3  -5 1818.97   25.52
  -3   0  -5 1824.06   26.14
   0   3  -5 1794.37   25.99
   3   0  -5 1818.35   25.69
   0  -3  -5 1823.24   25.32
   0   3  -6  625.72   10.33
   0  -3  -6  654.62   12.40
   3   0  -6  648.86   11.48
   3   0   6  634.59   11.11
   0  -3  -6  639.83   10.14
  -3   0  -6  656.98   11.20
   0   3  -6  626.01   12.42
   3   0  -6  619.29    9.97
   0  -3  -6  645.28   10.24
   0   3  -7  904.37   14.96
   3   0  -7  896.42   18.54
   3   0   7  948.36   16.71
   0  -3  -7  913.54   15.37
  -3   0  -7  916.39   15.40
   3   0  -7  918.15   14.98
   0   3  -7  917.99   15.17
  -3   0   7  929.27   13.26
   0   3  -8   23.06    4.19
   0  -3  -8   14.89    3.78
   3   0  -8   20.81    4.61
   3   0   8   22.97    5.84
   0  -3  -8   24.23    4.31
  -3   0  -8   15.98    3.31
   3   0  -8   24.21    4.15
   0   3  -8   23.88    3.69
  -3   0   8   18.10    1.86
   0   3  -9  227.30   15.56
   0  -3  -9  236.96   14.19
   3   0  -9  221.61   16.33
   3   0   9  214.33   11.45
   0  -3  -9  231.51   13.64
  -3   0  -9  223.00   12.06
   3   0  -9  226.68   11.94
   0   3  -9  216.88   12.37
  -3   0   9  216.64   10.34
   0   3 -10  775.58   27.93
   0  -3 -10  753.83   24.82
   3   0 -10  773.59   23.80
   3   0  10  884.74   27.27
   0  -3 -10  755.51   20.17
  -3   0 -10  757.27   21.18
   3   0 -10  804.08   21.37
   0   3 -10  754.14   21.59
   0   3 -11  225.88   21.41
   0  -3 -11  218.46   19.19
   3   0 -11  264.02   21.66
   3   0  11  251.69   10.44
   0  -3 -11  205.36   17.21
  -3   0 -11  205.47   22.46
   3   0 -11  229.13    7.79
   0   3 -11  229.07   15.12
  -3   0 -11  212.70   17.16
   0   3 -12   45.82   10.32
   0  -3 -12   43.08    7.03
   3   0 -12   33.60    7.57
   3   0  12   55.68   14.65
   0  -3 -12   42.03    7.82
  -3   0 -12   45.40   10.07
   3   0 -12   38.96    7.05
   0   3 -12   41.97    7.31
   0  -3 -13    8.05    4.42
   3   0 -13    8.06    4.18
   3   0  13   16.35    5.89
   0  -3 -13   17.14    3.25
  -3   0 -13    7.67    3.30
   3   0 -13   14.20    4.92
   0   3 -13    6.98    3.88
   0  -3 -14  192.98   11.22
   3   0 -14  207.35   12.08
   3   0  14  185.80   15.83
   0  -3  14  166.72   14.22
   0  -3 -14  184.04   10.12
  -3   0 -14  194.07   18.22
   3   0 -14  189.56   11.04
   0   3 -14  167.93   13.60
   0  -3 -15    2.98    3.51
   3   0 -15    4.29    3.09
   3   0  15    6.14    4.52
   0  -3 -15    6.92    2.59
  -3   0 -15   -0.58    4.94
   3   0 -15   14.13    6.54
   3   0 -16   48.73    6.31
   3   0  16   38.44    8.19
   0  -3  16   42.54    9.76
   0  -3 -16   30.62    6.23
  -3   0 -16   37.91   10.78
   3   0 -16   32.09    7.66
   0   3 -16   44.87    9.59
   3   0 -17   21.12    5.42
   3   0  17   37.20    6.73
   0  -3  17   29.87   14.27
   0   3  17   26.38    7.11
   0  -3 -17   32.46    5.83
  -3   0 -17   25.97    6.21
   3   0 -17   15.55    8.37
   0   3 -17   20.68    6.90
   3   0 -18  253.29   23.43
   3   0  18  275.28   19.75
   0  -3  18  265.82   34.48
   0   3  18  258.05   26.07
   0  -3 -18  261.44   21.70
  -3   0 -18  258.85   29.90
   3   0 -18  347.89   12.25
   0   3 -18  255.94   22.18
   3   0 -19   65.47   10.59
   3   0  19   47.40   16.98
   0  -3  19   56.41   12.15
   0   3  19   41.07   13.71
   0  -3 -19   56.84    6.39
  -3   0 -19   43.25   11.51
   3   0 -19   36.60   10.56
   0   3 -19   50.89   11.65
   3   0 -20   10.93    4.35
   3   0  20    3.68    3.06
   0  -3  20   -1.57    4.61
   0   3  20    4.96    4.36
   0  -3 -20   -0.84    3.02
  -3   0 -20    7.50    3.57
   3   0 -20   -1.36    3.27
   0   3 -20    8.56    3.89
   3   0  21   31.22   10.02
   0  -3  21   59.22   27.11
   0   3  21   28.96    7.00
  -3   0 -21   39.86    7.00
   3   0 -21   16.81    9.93
   0   3 -21   25.59    7.08
   0  -3  22    5.40    4.91
   0   3  22    1.83    3.62
   0  -3 -22    5.44    2.73
  -3   0 -22    0.78    2.98
   0   3 -22    8.38    5.66
   1   3   0 1378.62   18.63
   3  -1   0 1399.15   20.43
   3   1   0 1409.68   22.09
  -1   3   0 1433.30   19.72
  -1  -3   0 1443.31   19.50
  -3   1   0 1427.40   19.62
   3  -1   0 1437.58   19.73
  -1   3   0 1416.90   20.35
  -1  -3   0 1408.99   20.25
   1   3   1  529.93    7.95
   1  -3  -1  540.92    9.81
  -1  -3   1  561.59    8.35
   3   1  -1  544.83    9.81
   3  -1   1  532.14    9.89
   3   1   1  647.99   12.75
   1  -3   1  603.39    9.39
   1   3   1  528.26    7.68
  -3   1  -1  623.96   10.19
  -1   3  -1  561.46   10.05
  -1  -3   1  533.51    8.68
  -1  -3  -1  640.71   10.32
   1   3  -2 2226.98   30.31
   1  -3  -2 2179.20   30.08
  -1  -3   2 2216.60   30.24
   3   1  -2 2163.13   30.19
   3  -1  -2 2183.18   30.71
   3  -1   2 2097.65   29.39
   3   1   2 2060.15   28.75
   1  -3   2 2127.66   29.24
   1   3   2 2209.75   30.27
  -1  -3  -2 2146.36   30.00
  -1   3   2 2082.97   28.27
  -3  -1  -2 2255.44   31.58
  -3   1  -2 2132.93   29.39
  -1   3  -2 2301.93   32.40
   1   3  -2 2141.52   31.38
  -1  -3   2 2131.07   29.52
  -1  -3  -2 2007.08   27.86
   1   3  -3  790.97   12.07
   1  -3  -3  777.48   12.22
   3   1  -3  756.99   12.61
   3  -1  -3  817.58   13.18
   3  -1   3  746.32   11.80
   3   1   3  788.17   12.04
   1  -3   3  794.18   12.98
  -1  -3  -3  785.66   11.87
   1  -3  -3  743.42   11.04
  -3  -1  -3  761.46   11.67
  -3   1  -3  776.32   12.44
  -1   3  -3  736.81   12.50
   3  -1  -3  774.09   12.21
   1   3  -3  776.36   12.22
   3   1  -3  741.77   13.74
  -1  -3   3  774.83   12.00
  -1  -3  -3  764.49   11.50
  -1  -3  -4  566.29   11.07
   1   3  -4  546.32    8.72
   1  -3  -4  561.40   10.12
   3   1  -4  547.65    9.13
   3  -1  -4  539.40   10.95
   3  -1   4  547.44    9.70
   3   1   4  533.18   11.67
   1  -3   4  563.07   10.96
  -1  -3  -4  564.88    9.32
   1  -3  -4  574.12    8.74
  -3  -1  -4  562.59    9.03
  -3   1  -4  560.21    9.31
  -1   3  -4  564.40   11.24
   3  -1  -4  543.98    8.89
   1   3  -4  536.49    9.46
  -1  -3   4  588.02    9.89
  -1  -3  -4  533.24    8.30
  -3  -1   4  537.98    8.62
  -1  -3  -5 1343.55   19.87
   1   3  -5 1241.52   19.04
   1  -3  -5 1435.41   21.58
   3   1  -5 1411.76   21.37
   3  -1  -5 1384.27   20.59
   3  -1   5 1413.58   21.80
   3   1   5 1298.17   19.45
   1  -3   5 1277.19   18.80
  -1  -3  -5 1290.61   19.42
   1  -3  -5 1426.19   21.16
  -3  -1  -5 1410.70   22.50
   3  -1  -5 1295.21   18.54
  -1   3  -5 1435.27   21.20
   1   3  -5 1327.64   21.19
   3   1  -5 1400.85   20.65
  -1  -3   5 1426.44   20.39
  -1  -3  -5 1296.50   18.81
  -3  -1   5 1365.22   19.73
  -1  -3  -6 1481.64   21.63
   1   3  -6 1505.88   23.81
   1  -3  -6 1383.73   21.30
   3   1  -6 1366.06   23.06
   3  -1  -6 1426.14   24.98
   3  -1   6 1442.57   22.78
   3   1   6 1450.36   22.40
   1  -3   6 1467.71   21.54
  -1  -3  -6 1503.89   23.43
   1  -3  -6 1377.98   20.06
  -3  -1  -6 1410.97   22.33
  -3   1  -6 1440.15   22.21
   3  -1  -6 1473.15   21.01
  -1   3  -6 1445.53   22.03
   3   1  -6 1420.81   20.94
  -1  -3   6 1374.26   20.54
  -1  -3  -6 1434.15   20.36
  -3  -1   6 1430.71   20.00
  -1  -3  -7  155.10    8.67
   1   3  -7  147.11   11.06
   1  -3  -7  121.13    7.87
   3   1  -7  100.71    6.92
   3  -1  -7  154.26    8.76
   3  -1   7  106.80    7.71
   3   1   7  148.87    8.06
   1  -3   7  150.55    8.64
  -1  -3  -7  144.47   10.34
  -3  -1  -7  106.23    8.86
   1  -3  -7  105.36    7.52
  -3   1  -7  179.72   10.04
   3  -1  -7  142.10    8.74
  -1   3  -7  103.21    6.60
   1   3  -7  165.14    9.58
   3   1  -7  106.87    6.91
  -1  -3   7  102.72    6.32
  -1  -3  -7  151.53    7.83
  -3  -1   7  149.08    7.50
  -1  -3  -8   62.47    9.43
   1   3  -8   73.17   11.60
   1  -3  -8   27.10    7.70
   3   1  -8   29.01    6.30
   3  -1  -8   60.09   13.34
   3  -1   8   41.31    7.16
   3   1   8   52.27    4.35
   1  -3   8   61.88    5.02
  -1  -3  -8   54.73    6.63
  -3  -1  -8   38.34    5.81
   1  -3  -8   34.75    3.77
  -3   1  -8   63.06    7.16
   3  -1  -8   50.68    6.92
  -1   3  -8   38.89    9.72
   3   1  -8   32.85    5.53
   1   3  -8   62.50    7.14
  -1  -3  -8   53.39    3.94
  -3  -1   8   54.53    4.30
  -3  -1  -8   31.63    5.11
  -1  -3  -9   19.61    3.29
   1   3  -9   13.59    3.12
   1  -3  -9   23.05    6.57
   3   1  -9   16.37    5.93
   3  -1  -9   17.21    5.38
   3  -1   9   25.66    5.74
   3   1   9   16.83    8.96
   1  -3   9   16.38    4.28
  -1  -3  -9   11.04    4.31
  -3  -1  -9   23.52    4.47
   1  -3  -9   23.86    3.81
  -3   1  -9   17.37    3.70
   3  -1  -9   22.09    4.13
  -1   3  -9   20.55    4.60
   3   1  -9   24.48    4.24
   1   3  -9   19.49    4.48
  -3   1   9   13.35    1.91
  -3  -1   9   12.29    1.88
  -3   1   9   16.48    2.07
  -1   3   9   13.56    2.02
  -3  -1  -9   25.45    3.50
  -1  -3 -10  472.66   16.55
   1   3 -10  438.51   14.94
   1  -3 -10  456.63   14.37
   3   1 -10  429.87   14.60
   3  -1 -10  474.53   15.25
   3  -1  10  453.33   13.96
   1  -3  10  469.83   14.00
  -1  -3 -10  458.84   12.73
  -3  -1 -10  481.15   15.25
   1  -3 -10  455.59   14.40
  -3   1 -10  547.21   16.72
   3  -1 -10  469.62   14.22
  -1   3 -10  451.91   15.00
   3   1 -10  474.74   17.00
   1   3 -10  452.82   20.00
  -3  -1 -10  486.13   12.73
  -1  -3 -11  762.06   16.62
   1   3 -11  747.26   14.63
   3   1 -11  746.55   21.84
   3  -1 -11  717.82   17.72
   3  -1  11  734.35   17.20
   1  -3  11  732.16   17.49
  -1  -3 -11  729.76   22.01
  -3  -1 -11  727.49   15.02
   1  -3 -11  765.68   15.53
  -3   1 -11  722.37   14.44
   3  -1 -11  739.38   12.90
  -1   3 -11  746.24   20.57
   3   1 -11  758.66   17.18
   1   3 -11  735.92   21.43
  -1  -3 -12  368.45   17.75
   1   3 -12  381.92   16.19
   1  -3 -12  319.82   15.11
   3   1 -12  321.91   14.96
   3  -1 -12  374.48   16.93
   3  -1  12  343.69   15.48
   1  -3  12  373.95   17.33
  -1  -3 -12  376.04   16.42
  -3  -1 -12  350.49   15.11
   1  -3 -12  331.61   15.71
  -3   1 -12  348.02   20.17
   3  -1 -12  357.88   15.12
  -1   3 -12  327.04   16.89
   3   1 -12  332.37   14.58
   1   3 -12  346.20   17.55
   1   3 -13   17.16    3.64
   1  -3 -13   29.35    5.70
   3   1 -13   25.46    6.19
   3  -1 -13   20.32    4.97
   3  -1  13   35.91    5.24
   3   1  13   28.90    7.79
   1  -3  13   12.08    3.49
  -1  -3 -13   16.15    4.84
  -3  -1 -13   30.44    7.99
   1  -3 -13   29.54    4.81
  -3   1 -13   11.75    5.12
   3  -1 -13   16.81    4.71
  -1   3 -13   18.65    4.28
   3   1 -13   26.51    7.12
   1   3 -13    7.24    4.57
   1   3 -14   34.63    6.15
   1  -3 -14   37.72    9.96
   3   1 -14   41.08    6.43
   3  -1 -14   41.69    9.53
   3  -1  14   32.44    6.94
   3   1  14   46.52   10.85
   1  -3  14   33.91    6.31
   1   3  14   35.78    7.19
  -1  -3 -14   35.34    7.69
  -3  -1 -14   42.19    6.89
   1  -3 -14   31.92    8.49
  -3   1 -14   34.11   11.25
   3  -1 -14   32.63    6.31
  -1   3 -14   41.80    7.97
   3   1 -14   28.89    7.28
   1   3 -14   27.90    7.85
   1   3 -15  157.50   14.55
   1  -3 -15  169.21   16.28
   3   1 -15  155.19   13.86
   3  -1 -15  171.98   13.33
   3  -1  15  163.02   14.03
   3   1  15  145.50    9.78
   1  -3  15  153.48    8.36
   1   3  15  172.37   10.57
  -1  -3 -15  139.42   17.28
  -3  -1 -15  151.10    8.44
   1  -3 -15  162.66   10.64
  -3   1 -15  145.19   16.76
   3  -1 -15  131.80   19.67
  -1   3 -15  136.12   25.90
   3   1 -15  171.67   13.77
   1   3 -15  142.25   14.44
   1   3 -16   64.14   12.79
   1  -3 -16   68.28   14.75
   3   1 -16   95.98   13.42
   3  -1 -16   75.72   13.06
   3  -1  16   91.11   10.44
   3   1  16   85.16   14.67
   1  -3  16   79.02   15.79
   1   3  16   69.65   18.19
  -1  -3 -16   61.18    9.99
  -3  -1 -16   82.52   15.39
   1  -3 -16   71.53   12.92
  -3   1 -16   71.89   13.60
   3  -1 -16   69.24   11.07
  -1   3 -16   77.75   19.50
   3   1 -16   77.56   14.84
   1   3 -16   57.13   10.40
   1  -3 -17  122.94   17.28
   3   1 -17  136.44   14.97
   3  -1 -17  128.10   21.10
   3  -1  17  126.95   31.40
   3   1  17  140.86   14.07
   1  -3  17  130.96   16.80
   1   3  17  120.54   27.45
  -1  -3  17  142.45   23.86
  -1  -3 -17  132.73   20.48
  -3  -1 -17  129.87   19.11
   1  -3 -17  131.95   20.32
  -3   1 -17  132.87   20.26
   3  -1 -17  121.47   15.30
  -1   3 -17  134.34   19.21
   3   1 -17  156.32   15.23
   1   3 -17  125.68   18.13
   3   1 -18   49.43   11.37
   3  -1 -18   50.43    8.90
   3  -1  18   35.42    7.60
   3   1  18   46.67   11.87
   1  -3  18   53.32   12.61
   1   3  18   40.45   12.55
  -1  -3  18   33.81   10.50
  -1  -3 -18   48.29    8.99
   1  -3 -18   46.20   10.53
  -3  -1 -18   35.16    6.70
  -3   1 -18   39.70   10.28
   3  -1 -18   39.48    9.99
  -1   3 -18   33.49   11.82
   3   1 -18   47.12    8.49
   1   3 -18   32.66    8.65
   3   1 -19   -1.57    4.94
   3  -1 -19    7.15    4.96
   3  -1  19    4.21    4.73
   3   1  19    3.50    3.25
   1  -3  19    4.60    2.85
   1   3  19    2.60    4.50
  -1  -3  19    0.55    3.64
  -1   3  19    5.88    3.35
  -1  -3 -19    2.01    1.53
   1  -3 -19    2.46    1.42
  -3  -1 -19    0.74    2.34
  -3   1 -19    1.94    4.81
   3  -1 -19    0.26    3.87
  -1   3 -19    4.23    2.52
   3   1 -19    3.50    3.73
   1   3 -19    2.18    4.29
   3   1 -20    8.64    4.83
   3  -1  20   12.22    7.13
   3   1  20    9.71    3.56
   1  -3  20   28.26   10.10
   1   3  20    9.64    3.58
  -1  -3  20   16.84    7.04
  -1   3  20   13.91    7.42
  -1  -3 -20   22.49    5.28
   1  -3 -20   14.14    5.06
  -3  -1 -20   19.96    5.31
  -3   1 -20    9.87    5.14
   3  -1 -20   16.18    6.03
  -1   3 -20   15.22    6.80
   3   1 -20    6.86    2.83
   1   3 -20   27.23    8.08
   3  -1 -21   13.70    7.53
   3  -1  21   27.48    7.57
   3   1  21   27.91    9.18
   1  -3  21   30.54   11.86
   1   3  21   19.17   10.55
  -1  -3  21   26.10    6.26
  -1   3  21   18.53    7.90
  -1  -3 -21   34.36    7.23
  -3  -1 -21   24.09    9.94
  -3   1 -21   33.22    8.12
  -1   3 -21   29.10    8.83
   3   1 -21   32.56    7.49
   1   3 -21   11.25    3.62
   1  -3  22   31.67   10.15
  -1  -3  22   41.69   13.25
  -1   3  22   27.82    9.15
  -1  -3 -22   38.72    8.32
  -3  -1 -22   55.60   13.43
  -3   1 -22   56.52   13.41
  -1   3 -22   28.30   13.31
   3   1 -22   40.31   10.04
   1   3 -22   34.69   14.53
   2  -3   0  100.84    3.61
   2   3   0  107.30    4.22
   3  -2   0  101.57    3.38
   3   2   0  104.53    6.72
  -2  -3   0  109.16    1.92
  -3   2   0  108.71    3.49
   3  -2   0  106.08    2.21
  -2   3   0  109.72    4.03
   2  -3   0  100.43    2.43
  -2  -3   0  111.39    5.30
  -3  -2   0  103.93    5.13
   3  -2  -1 4611.21   62.67
   3  -2   1 5009.99  236.34
   3   2   1 4685.58   63.48
  -3  -2  -1 4918.53  232.02
  -2   3  -1 5121.93  241.53
  -2  -3   1 5234.67  246.95
  -2  -3  -1 4667.26   63.53
  -3  -2   1 4792.77   65.13
  -3  -2  -1 4878.17   66.50
   2   3  -2 1568.42   22.09
   2  -3  -2 1643.60   22.94
   3   2  -2 1697.99   23.87
   3  -2  -2 1623.23   22.95
   3  -2   2 1588.73   23.47
   2  -3   2 1578.91   22.05
   3   2   2 1598.39   22.44
   2   3   2 1611.75   22.29
  -2  -3  -2 1538.06   21.92
  -3  -2  -2 1580.62   23.74
  -2   3   2 1596.09   21.57
  -3   2  -2 1552.58   21.82
  -2   3  -2 1567.34   23.02
   2   3  -2 1557.93   23.62
  -2  -3   2 1600.64   22.90
  -2  -3  -2 1628.81   23.44
  -3  -2   2 1625.41   23.79
  -3  -2  -2 1587.57   22.42
   2   3  -3  835.98   13.82
   2  -3  -3  927.96   13.78
   3   2  -3  904.16   13.74
   3  -2  -3  806.78   12.32
   3  -2   3  879.13   13.66
   3   2   3  826.45   12.90
   2  -3   3  827.08   14.02
   2   3   3  906.05   14.19
  -2  -3  -3  825.88   14.33
  -2   3   3  811.77   11.27
  -3   2  -3  839.37   13.93
  -2   3  -3  897.79   13.65
   2   3  -3  835.75   13.43
   3   2  -3  889.58   13.74
  -3   2   3  890.56   12.36
  -2  -3   3  892.82   14.14
  -2  -3  -3  832.61   13.17
  -3  -2   3  810.00   12.36
  -3  -2  -3  949.39   14.17
   2   3  -4 2672.69   36.82
   2  -3  -4 2437.92   35.05
   3   2  -4 2463.16   34.59
   3  -2  -4 2633.77   37.07
   3  -2   4 2533.62   35.52
   3   2   4 2616.50   36.49
   2  -3   4 2696.75   37.62
   2   3   4 2669.84   37.06
  -2  -3  -4 2475.19   34.77
  -3  -2  -4 2561.02   35.93
   2  -3  -4 2533.33   34.54
  -3   2  -4 2629.16   36.97
  -2   3  -4 2583.72   36.29
   2   3  -4 2715.63   39.03
   3   2  -4 2522.42   35.25
  -2  -3   4 2562.76   35.75
  -2  -3  -4 2618.13   36.13
  -3  -2   4 2590.36   35.94
  -3  -2  -4 2543.37   35.38
   2   3  -5  826.38   13.96
   2  -3  -5  757.09   13.64
   3   2  -5  748.94   12.29
   3  -2   5  780.05   12.53
   3   2   5  774.31   12.24
   2  -3   5  781.75   12.22
   2   3   5  763.09   13.46
  -2  -3  -5  810.52   14.56
  -3  -2  -5  795.56   14.85
   2  -3  -5  771.44   11.57
  -3   2  -5  795.13   12.72
   3  -2  -5  810.77   11.77
  -2   3  -5  739.18   12.46
   2   3  -5  773.61   15.12
   3   2  -5  761.82   12.34
  -2  -3   5  785.52   12.24
  -2  -3  -5  793.91   11.96
  -3  -2   5  777.11   12.10
  -3  -2  -5  769.52   11.83
   2   3  -6  671.35   11.16
   2  -3  -6  686.71   11.48
   3   2  -6  705.88   12.48
   3  -2  -6  689.07   11.57
   3  -2   6  693.20   12.49
   3   2   6  685.63   12.09
   2  -3   6  682.60   11.57
   2   3   6  694.65   13.74
  -2  -3  -6  689.63   13.10
  -3  -2  -6  711.61   13.77
   2  -3  -6  708.77   10.90
  -3   2  -6  687.27   11.99
   3  -2  -6  684.27   10.55
  -2   3  -6  688.05   12.75
   2   3  -6  693.29   13.92
   3   2  -6  679.35   14.63
  -2  -3   6  700.00   11.45
  -2  -3  -6  700.32   10.85
  -3  -2   6  696.74   11.36
  -3  -2  -6  714.28   11.27
   2   3  -7  420.97    5.39
   2  -3  -7  421.03    8.62
   3   2  -7  417.23    7.93
   3  -2  -7  399.82   19.66
   3  -2   7  408.79   20.26
   3   2   7  411.12   22.36
   2  -3   7  424.26    8.56
   2   3   7  419.43    6.02
  -2  -3  -7  414.93    7.12
  -3  -2  -7  399.25   19.59
   2  -3  -7  412.09   20.05
  -3   2  -7  419.86    6.58
   3  -2  -7  405.32   20.09
  -2   3  -7  413.81   21.58
   2   3  -7  416.32    9.87
   3   2  -7  425.85    6.74
  -2  -3   7  408.66   19.79
  -3  -2   7  410.18   19.76
  -2  -3  -7  418.17    4.28
  -3  -2  -7  431.26    5.33
   2   3  -8 1394.63   32.64
   2  -3  -8 1398.13   30.84
   3   2  -8 1432.46   32.80
   3  -2  -8 1344.09   30.02
   3  -2   8 1501.21   36.21
   3   2   8 1526.97   33.70
   2  -3   8 1618.40   36.11
   2   3   8 1406.29   30.89
  -2  -3  -8 1434.42   32.42
  -3  -2  -8 1378.98   32.29
   2  -3  -8 1439.85   30.52
  -3   2  -8 1406.61   34.13
   3  -2  -8 1390.18   29.61
  -2   3  -8 1413.19   31.83
   2   3  -8 1464.33   32.82
   3   2  -8 1496.89   34.05
  -2  -3   8 1415.11   30.32
  -3  -2   8 1433.30   30.30
  -2  -3  -8 1380.00   29.39
  -3  -2  -8 1442.39   30.87
   2   3  -9  339.95   11.01
   2  -3  -9  297.72   11.86
   3   2  -9  309.35   10.81
   3  -2  -9  335.30   11.56
   3  -2   9  304.57   10.44
   2  -3   9  352.38   12.30
   2   3   9  315.62   11.81
  -2  -3  -9  342.33   10.70
  -3  -2  -9  293.92    9.90
   2  -3  -9  301.55    9.80
  -3   2  -9  333.08   10.58
   3  -2  -9  347.28    9.78
   2   3  -9  352.87   15.36
   3   2  -9  330.24   12.58
  -2  -3   9  312.53   10.10
  -3  -2   9  325.79    9.16
  -2  -3  -9  338.08   10.20
  -3  -2  -9  308.72    9.56
   2   3 -10    8.48    4.56
   2  -3 -10   10.18    6.31
   3   2 -10   13.83    4.17
   3  -2 -10    7.14    3.13
   3  -2  10   10.68    5.46
   3   2  10    9.57    3.71
   2  -3  10   11.50    3.91
   2   3  10    9.06    4.50
  -2  -3 -10   10.29    3.83
  -3  -2 -10    7.69    3.62
   2  -3 -10    7.51    2.39
  -3   2 -10    9.13    5.71
   3  -2 -10    3.00    2.52
  -2   3 -10    9.10    5.70
   2   3 -10   14.21    5.43
   3   2 -10   10.82    4.67
  -3  -2  10    9.26    1.68
  -2  -3 -10   10.69    1.91
  -3  -2 -10    8.32    1.81
  -2   3  10    6.99    1.10
   2   3 -11  473.85   93.36
   2  -3 -11   60.10   11.46
   3   2 -11   72.17   13.42
   3  -2 -11   71.98   16.11
   3  -2  11   62.97   13.65
   3   2  11   88.63   10.94
   2  -3  11   70.61    9.38
   2   3  11   51.87   12.28
  -2  -3 -11   75.63   19.06
  -3  -2 -11   56.93   12.78
   2  -3 -11   65.49   10.89
  -3   2 -11   67.03    8.20
   3  -2 -11   74.52   13.24
  -2   3 -11   55.85    7.69
   2   3 -11   81.25   15.86
   3   2 -11   62.12   13.89
   2   3 -12  441.59   19.33
   2  -3 -12  405.66   17.56
   3   2 -12  402.10   17.43
   3  -2 -12  434.09   19.93
   3  -2  12  386.85   18.32
   3   2  12  523.39   24.95
   2  -3  12  424.17   20.24
   2   3  12  370.75   18.23
  -2  -3 -12  417.61   19.63
  -3  -2 -12  412.02   18.69
   2  -3 -12  396.85   16.98
   3  -2 -12  441.74   18.98
  -3   2 -12  451.59   20.27
  -2   3 -12  396.76   22.67
   3   2 -12  406.29   17.65
   2   3 -12  441.02   22.84
   2   3 -13  103.91    9.11
   3   2 -13  125.92   10.79
   3  -2 -13   96.38   11.08
   3  -2  13  122.63    9.64
   3   2  13  227.02   20.93
   2  -3  13   99.11    9.95
   2   3  13  124.15   11.73
  -2  -3 -13  101.19    9.29
  -3  -2 -13  116.41    6.55
   2  -3 -13  123.47   13.43
   3  -2 -13  128.78   16.52
  -3   2 -13  122.83   22.16
  -2   3 -13  129.63   12.66
   3   2 -13  126.37   15.70
   2   3 -13  103.91   11.03
   2   3 -14   12.73    5.31
   2  -3 -14    5.61    3.57
   3   2 -14   21.81    7.19
   3  -2 -14    3.58    1.59
   3  -2  14   26.34    8.27
   3   2  14    9.08    3.34
   2  -3  14   13.61    4.88
   2   3  14    6.86    6.63
  -2  -3 -14   15.42    3.74
  -3  -2 -14    3.89    3.33
   2  -3 -14   13.51    4.08
   3  -2 -14    7.20    3.13
  -3   2 -14   13.89    5.37
  -2   3 -14   13.42    6.01
   3   2 -14   17.90    7.28
   2   3 -14   10.39    4.21
   2   3 -15  185.01   16.68
   2  -3 -15  214.59    8.77
   3   2 -15  189.87   17.15
   3  -2 -15  236.19   28.91
   3  -2  15  206.13   11.49
   3   2  15  190.23   13.05
   2  -3  15  213.27    9.75
   2   3  15  170.09   11.70
  -2  -3 -15  188.47    8.61
  -3  -2 -15  201.99   20.84
   2  -3 -15  200.62    7.88
   3  -2 -15  174.78   13.73
  -3   2 -15  170.82   12.04
  -2   3 -15  205.01   10.86
   3   2 -15  213.61   12.50
   2   3 -15  163.85   17.06
   2   3 -16  126.19   21.60
   2  -3 -16   97.65   16.50
   3   2 -16  131.67   20.25
   3  -2 -16  118.69   12.38
   3  -2  16  106.77   22.92
   3   2  16  115.57   13.79
   2  -3  16  102.00    8.45
   2   3  16  105.56    8.40
  -2  -3 -16  126.58   17.49
  -3  -2 -16  113.74    8.51
   2  -3 -16   89.16   16.75
   3  -2 -16  113.89   15.62
  -3   2 -16  114.74   19.70
  -2   3 -16  104.65   18.47
   3   2 -16  111.13    7.30
   2   3 -16  111.49   11.27
   2   3 -17   35.95    8.18
   2  -3 -17   40.42    7.01
   3   2 -17   35.00    7.04
   3  -2 -17   40.82    7.53
   3  -2  17   42.33    8.78
   3   2  17   41.52   10.44
   2  -3  17   35.72    7.85
   2   3  17   25.77    6.93
  -2  -3 -17   38.18    6.58
  -3  -2 -17   45.78    7.47
   2  -3 -17   37.10    8.67
   3  -2 -17   29.24    5.32
  -3   2 -17   45.09    8.58
  -2   3 -17   47.23   11.76
   3   2 -17   34.22    8.76
   2   3 -17   41.09    6.36
   2   3 -18    7.13    4.48
   2  -3 -18    4.23    2.59
   3   2 -18    4.56    3.90
   3  -2 -18    4.75    4.81
   3  -2  18    4.01    4.06
   3   2  18    5.02    4.60
   2  -3  18    3.10    4.98
   2   3  18   14.67    9.02
  -2  -3 -18   -1.05    3.41
  -3  -2 -18   11.84    4.26
   2  -3 -18    4.30    2.84
   3  -2 -18    1.19    2.88
  -3   2 -18    4.91    4.73
  -2   3 -18    2.64    3.73
   3   2 -18    2.20    3.13
   2   3 -18    6.63    4.88
   2  -3 -19    7.63    4.60
   3   2 -19    3.28    3.92
   3  -2 -19    6.98    4.54
   3  -2  19   21.35    6.59
   3   2  19    2.15    2.82
   2  -3  19    3.75    3.51
   2   3  19    1.30    4.15
  -2  -3  19    6.28    2.61
  -2  -3 -19    6.43    2.12
  -3  -2 -19    9.05    3.30
   2  -3 -19    4.61    2.06
   3  -2 -19    2.78    2.85
  -3   2 -19    4.27    5.14
  -2   3 -19    5.14    3.66
   3   2 -19    7.64    3.93
   2   3 -19    1.73    3.59
   3   2 -20   88.93   23.77
   3  -2 -20   77.46   19.57
   3  -2  20   94.93   22.35
   3   2  20   97.25   11.93
   2  -3  20  106.96   10.37
   2   3  20   89.70   16.11
  -2  -3  20   86.07   23.84
  -2  -3 -20  104.29   21.08
  -3  -2 -20  122.32   15.86
  -3   2 -20   79.23   21.28
  -2   3 -20  124.26   11.86
   3   2 -20  103.54   14.35
   2   3 -20   83.04   19.94
   3  -2 -21    8.93    3.32
   3  -2  21    7.61    5.22
   3   2  21    7.05    4.66
   2  -3  21    6.44    3.44
   2   3  21   12.20    8.70
  -2  -3  21   11.88    5.59
  -2   3  21   17.16    5.96
  -3  -2  21   11.01    4.65
  -2  -3 -21   14.37    5.61
  -3  -2 -21    7.33    6.62
  -3   2 -21    9.57    4.59
   3   2 -21    9.70    5.26
   2   3 -21   40.91   19.87
   2  -3  22    3.64    5.55
  -2  -3  22    3.65    4.78
  -2   3  22    6.87    4.87
  -2  -3 -22   -0.54    3.26
  -3  -2 -22    9.55    4.23
  -3   2 -22    3.58    2.55
  -2   3 -22    5.17    2.24
   3   2 -22    4.78    2.88
   2   3 -22    2.79    2.28
   3   3  -1  712.99   11.73
   3  -3  -1  696.69   10.80
   3  -3   1  711.71   11.44
   3   3   1  720.61   11.23
  -3   3   1  745.62   10.27
  -3   3  -1  720.68   11.79
   3  -3  -1  731.82   10.11
  -3  -3   1  693.72   10.88
  -3  -3  -1  702.46   11.08
   3   3  -2  194.60    3.12
   3  -3  -2  188.65    3.98
   3  -3   2  192.52    4.26
   3   3   2  196.50    3.89
  -3  -3  -2  187.51    3.87
  -3   3  -2  193.94    6.14
  -3  -3   2  194.28    4.02
  -3  -3  -2  189.07    3.70
   3   3  -3   46.99    3.96
   3  -3  -3   41.54    3.11
   3  -3   3   48.70    7.38
   3   3   3   44.42    6.02
   3  -3  -3   52.57    1.25
  -3  -3  -3   42.18    3.93
  -3   3  -3   45.48    5.37
  -3   3   3   39.67    1.50
   3   3  -3   46.63    8.73
  -3  -3   3   40.78    3.41
  -3  -3  -3   54.26    9.24
   3   3  -4  164.00    3.86
   3  -3  -4  170.36    4.49
   3  -3   4  169.43    7.90
   3   3   4  153.93    6.16
  -3  -3  -4  152.14    4.05
  -3   3  -4  156.04   11.19
  -3   3   4  157.11    2.29
   3   3  -4  163.71   10.63
  -3  -3   4  152.07    3.56
  -3  -3  -4  163.83    4.71
   3   3  -5 2002.28   29.18
   3  -3   5 2014.76   29.03
   3   3   5 2001.05   28.46
  -3  -3  -5 2085.43   30.73
   3  -3  -5 2032.61   27.91
  -3   3  -5 2066.49   31.24
  -3  -3   5 2033.12   29.67
  -3  -3  -5 2023.83   28.49
   3   3  -6   95.05    7.84
   3  -3  -6  104.58    3.87
   3  -3   6  107.56    4.12
   3   3   6   99.09    4.44
  -3  -3  -6  104.38    3.85
   3  -3  -6  106.42    3.79
  -3   3  -6  105.51    6.54
   3   3  -6  107.16    5.20
  -3  -3   6  102.30    4.78
  -3  -3  -6  106.01    3.67
   3   3  -7 1493.52   34.30
   3  -3  -7 1395.83   30.93
   3  -3   7 1458.87   32.54
   3   3   7 1472.41   32.42
  -3  -3  -7 1462.78   32.10
   3  -3  -7 1485.35   31.80
  -3   3  -7 1397.72   31.16
   3   3  -7 1493.54   34.23
  -3  -3   7 1512.90   32.32
  -3  -3  -7 1417.30   29.89
   3   3  -8  215.26   14.89
   3  -3  -8  232.57   12.55
   3  -3   8  207.08   11.18
   3   3   8  219.19   11.76
  -3  -3  -8  217.55   11.63
   3  -3  -8  219.90   11.01
  -3   3  -8  216.92   12.17
   3   3  -8  227.76   13.41
  -3  -3   8  222.59   12.03
  -3  -3  -8  222.39   11.83
   3   3  -9  267.05    9.12
   3  -3  -9  269.79    9.71
   3  -3   9  261.84    9.45
  -3  -3  -9  289.72    9.90
   3  -3  -9  280.10    8.19
  -3   3  -9  284.60   12.59
   3   3  -9  301.54   11.96
  -3  -3   9  269.62    8.38
  -3  -3  -9  273.69    8.76
   3   3 -10   80.57    5.62
   3  -3 -10   83.17    7.30
   3  -3  10   84.11    5.52
   3   3  10   95.54   12.99
  -3  -3 -10   73.85    7.33
   3  -3 -10   91.55    6.64
  -3   3 -10   91.62   12.81
   3   3 -10   96.37   19.82
  -3  -3  10   78.59    3.43
  -3  -3 -10   72.76    4.40
   3   3 -11  140.00   15.29
   3  -3 -11  121.04   13.41
   3  -3  11  142.14   15.01
   3   3  11  158.19   16.09
  -3  -3 -11  136.68   16.80
   3  -3 -11  144.64   16.79
  -3   3 -11  152.76   20.58
   3   3 -11  143.58   22.76
  -3  -3 -11  140.98   12.65
   3   3 -12  614.21   26.35
   3  -3 -12  573.98   25.57
   3  -3  12  597.25   25.14
   3   3  12  652.53   29.67
  -3  -3 -12  540.31   23.79
   3  -3 -12  592.35   24.24
  -3   3 -12  582.47   24.27
   3   3 -12  569.20   26.74
   3   3 -13   16.80    3.44
   3  -3 -13   16.91    5.94
   3  -3  13   15.86    5.30
   3   3  13   11.56   10.75
  -3  -3 -13   15.46    4.51
   3  -3 -13   11.81    3.82
  -3   3 -13    8.28    4.54
   3   3 -13   18.06    4.73
   3   3 -14    6.47    2.38
   3  -3 -14    3.92    5.49
   3  -3  14    2.08    2.60
   3   3  14   -1.65    5.11
  -3  -3 -14    4.80    1.84
   3  -3 -14    4.18    2.50
  -3   3 -14    0.14    3.37
   3   3 -14    4.58    3.79
   3   3 -15   15.95    4.91
   3  -3 -15   24.68    6.37
   3  -3  15   23.72    5.00
   3   3  15   27.69    6.71
  -3  -3 -15   17.06    5.79
   3  -3 -15   14.00    4.80
  -3   3 -15   14.98    5.07
   3   3 -15   12.93    4.47
   3   3 -16  136.25   20.58
   3  -3 -16  129.93   20.94
   3  -3  16  135.52   12.12
   3   3  16  135.85   15.18
  -3  -3 -16  155.62   22.82
   3  -3 -16  117.69   19.59
  -3   3 -16  169.12   13.65
   3   3 -16  130.94   18.52
   3   3 -17   60.88   13.06
   3  -3 -17   61.79   12.56
   3  -3  17   53.25   14.09
   3   3  17   58.88   14.46
  -3  -3 -17   69.70   12.67
   3  -3 -17   45.17    9.31
  -3   3 -17   54.89   12.21
   3   3 -17   57.06   11.44
   3   3 -18    1.40    5.30
   3  -3 -18    7.25    5.30
   3  -3  18    6.34    5.23
   3   3  18    3.92    3.37
  -3  -3 -18    5.44    2.49
   3  -3 -18    1.70    1.91
  -3   3 -18    4.18    3.72
   3   3 -18   -4.10    3.57
   3   3 -19   33.11    8.42
   3  -3 -19   29.08    8.68
   3  -3  19   27.58   10.35
   3   3  19   29.09    7.77
  -3  -3 -19   16.85    4.90
  -3   3 -19   20.51    8.11
   3   3 -19   18.21    7.72
   3  -3 -20   10.60    4.20
   3  -3  20    3.05    4.82
   3   3  20    6.38    4.13
  -3  -3 -20    2.47    3.80
  -3   3 -20    4.80    2.72
   3   3 -20    4.28    2.01
   3  -3 -21   23.26    7.86
   3  -3  21   26.60    8.30
   3   3  21   28.87   10.24
  -3  -3  21   17.73   10.51
  -3  -3 -21   30.08    7.35
  -3   3 -21    9.95    3.63
   3   3 -21   17.44    6.24
  -3  -3 -22    8.51    3.41
   3   3 -22   13.02    5.57
   4   0   0  186.66    4.20
  -4   0   0  182.08    5.04
   0  -4   0  197.20    3.88
   0  -4   1 1954.84   26.35
   0   4   1 1837.45   24.89
   4   0  -1 1893.27   26.77
   4   0   1 1842.17   26.95
  -4   0  -1 1846.80   25.65
   0   4  -1 1878.81   26.42
   0  -4   1 1828.28   27.37
   0  -4  -1 1830.58   25.86
   0  -4   2  206.28    3.27
   0  -4  -2  217.18    3.67
   4   0  -2  203.11    5.88
   4   0   2  197.82    4.41
  -4   0  -2  200.98    5.57
   0   4  -2  195.89    7.13
   0  -4   2  190.06    6.91
   0  -4  -2  201.56    5.31
   0  -4  -3 1191.78   16.91
   4   0  -3 1136.81   16.77
   4   0   3 1202.66   19.11
   0  -4   3 1154.81   16.49
   0  -4  -3 1244.55   17.97
  -4   0  -3 1138.33   17.31
   0   4  -3 1170.46   17.58
   4   0  -3 1161.22   16.61
   0  -4   3 1148.67   17.89
   0  -4  -3 1130.65   16.41
   0   4  -4  189.69    3.84
   0  -4  -4  199.77    4.51
   4   0  -4  195.86    4.19
   4   0   4  186.93    4.69
   0  -4  -4  202.96    3.62
  -4   0  -4  185.33    4.67
   0   4  -4  192.00    6.17
   4   0  -4  193.77    7.42
   0  -4   4  237.36    6.64
   0  -4  -4  200.58    4.09
   0   4  -5  252.27    4.32
   0  -4  -5  277.61    7.02
   4   0  -5  257.74    5.30
   4   0   5  264.12    5.36
   0  -4  -5  264.91    5.80
  -4   0  -5  256.85    4.05
   0   4  -5  246.90    5.89
   4   0  -5  261.36    6.80
   0  -4   5  247.77    4.63
   0  -4  -5  263.21    4.99
   0   4  -6  626.68   10.51
   4   0  -6  708.70   12.36
   4   0   6  661.88   12.01
   0  -4  -6  645.00   10.61
  -4   0  -6  640.82   11.07
   0   4  -6  638.18   15.19
   4   0  -6  639.79   10.88
   0  -4  -6  636.24   10.67
   0   4  -7  182.95    9.81
   0  -4  -7  218.09   12.64
   4   0  -7  168.70    9.34
   4   0   7  179.38    9.93
   0  -4  -7  181.34   10.95
  -4   0  -7  183.38   10.29
   0   4  -7  168.56   10.51
   4   0  -7  169.15    9.18
   0  -4  -7  172.33   10.01
   0   4  -8   74.39    8.27
   0  -4  -8   67.44    4.59
   4   0  -8   75.93   11.92
   4   0   8   68.89   11.70
   0  -4  -8   72.11    4.78
  -4   0  -8   76.73   10.97
   0   4  -8   70.35    6.22
   4   0  -8   74.25    9.75
   0  -4  -8   62.10    4.86
  -4   0   8   79.24    5.35
   0   4  -9    7.58    4.85
   0  -4  -9    7.15    3.62
   4   0  -9   15.76    4.76
   4   0   9   11.26    5.93
   0  -4  -9    6.27    1.46
  -4   0  -9    7.95    4.45
   4   0  -9   10.85    3.86
   0   4  -9   16.04    3.82
  -4   0   9    9.52    1.49
   0   4 -10   -0.71    2.38
   0  -4 -10   -0.75    3.39
   4   0 -10    6.25    5.22
   4   0  10    0.40    2.71
   0  -4 -10    3.21    1.08
  -4   0 -10   -1.66    3.71
   4   0 -10    2.16    1.89
   0   4 -10   -4.05    4.92
   0   4 -11  680.17   18.64
   0  -4 -11  662.05   12.89
   4   0 -11  655.43   18.57
   4   0  11  690.54   15.35
   0  -4 -11  673.07   13.04
  -4   0 -11  679.65   13.32
   4   0 -11  688.14   13.58
   0   4 -11  663.97   16.74
   0  -4 -12  182.39   10.04
   4   0 -12  184.03   15.36
   4   0  12  177.34    9.21
   0  -4 -12  181.52    9.35
  -4   0 -12  196.66    9.88
   4   0 -12  190.65    9.36
   0   4 -12  199.58   11.13
  -4   0 -12  176.52    8.05
   0  -4 -13  116.63   17.88
   4   0 -13  101.66   15.18
   4   0  13  114.24   12.17
   0  -4  13  102.55    7.89
   0  -4 -13  107.22   13.29
  -4   0 -13  111.26   13.56
   4   0 -13  105.86   11.54
   0   4 -13   91.32   13.72
   0  -4 -14    9.42    3.36
   4   0 -14    9.67    5.43
   4   0  14    9.22    6.04
   0  -4  14   12.56    6.47
   0  -4 -14   20.95    4.71
  -4   0 -14    9.24    5.99
   4   0 -14   17.14    4.16
   0   4 -14   10.05    4.90
   0  -4 -15  244.76   20.29
   4   0 -15  269.38   16.16
   4   0  15  255.39   17.06
   0  -4  15  281.25   15.03
   0  -4 -15  268.33   12.46
  -4   0 -15  230.48   21.84
   4   0 -15  262.77    8.23
   0   4 -15  234.23   13.79
   4   0  16  250.22   18.24
   0  -4  16  234.27   19.94
   0  -4 -16  234.67    9.40
  -4   0 -16  273.27    9.20
   4   0 -16  288.53    8.42
   0   4 -16  284.68   11.32
   4   0 -17   78.62   15.74
   4   0  17   80.84   20.99
   0  -4  17   95.70   14.50
   0   4  17   83.71   13.58
   0  -4 -17   84.73   13.97
  -4   0 -17   73.86   16.33
   4   0 -17   75.59   16.38
   0   4 -17   69.26   18.68
   4   0 -18    3.24    3.55
   4   0  18    0.85    3.68
   0  -4  18   -1.94    3.89
   0   4  18    3.77    4.57
   0  -4 -18    4.92    2.23
  -4   0 -18   -1.01    3.97
   4   0 -18    0.02    2.45
   0   4 -18    3.90    4.59
   4   0 -19   13.00    5.22
   4   0  19   31.96    9.69
   0  -4  19   30.84    7.04
   0   4  19   25.04    5.99
   0  -4 -19   29.88    4.44
  -4   0 -19   23.68    5.77
   4   0 -19   18.39    4.23
   0   4 -19   28.30    8.52
   4   0  20   17.02    7.96
   0  -4  20   68.14   22.03
   0   4  20   26.50    9.46
   0  -4 -20   29.55    5.15
  -4   0 -20   22.86    4.41
   4   0 -20   27.46    7.77
   0   4 -20   33.23    9.88
   4   0 -21   17.85    5.18
   4   0  21    9.60    6.32
   0  -4  21   12.83    5.82
   0   4  21   11.57    5.99
  -4   0 -21   11.82    4.47
   0   4 -21   11.47    4.40
   0  -4  22    4.70    7.15
  -4   0 -22   16.75    6.16
   0   4 -22   27.09    6.86
   4  -1   0   13.78    4.51
   4   1   0    7.76    3.66
  -1   4   0    9.33    1.67
  -4   1   0   10.80    2.04
  -1   4   0    6.67    2.03
   1  -4   0    5.69    2.18
  -1  -4   0   11.81    2.65
   1   4   1 1078.04   14.81
   1   4  -1 1127.99   15.32
   1  -4  -1 1116.66   16.06
  -1  -4   1 1109.55   15.06
  -1   4   1 1084.46   15.12
   4   1  -1 1164.02   18.53
   4  -1  -1 1122.17   16.92
   4  -1   1 1095.66   17.24
   4   1   1 1084.07   18.09
  -1   4  -1 1105.72   15.36
   1   4   1 1117.62   15.30
  -4   1  -1 1144.79   16.82
  -1   4  -1 1113.25   16.77
   1  -4  -1 1126.96   17.31
  -1  -4   1 1124.76   16.78
  -1  -4  -1 1107.02   17.31
   1   4  -2 1030.49   14.55
   1  -4  -2 1131.65   16.04
  -1  -4   2 1065.23   14.98
   4   1  -2 1089.75   17.23
   4  -1  -2 1016.57   15.18
   4  -1   2 1049.32   15.63
   4   1   2  978.32   15.56
   1  -4   2  992.86   14.41
   1   4   2 1022.41   14.34
  -4  -1  -2 1013.17   16.26
  -4   1  -2  991.36   14.73
  -1   4  -2 1040.24   15.50
   1   4  -2 1028.86   15.74
   1  -4  -2 1036.04   16.85
  -1  -4   2 1016.60   16.27
  -1  -4  -2 1000.85   14.72
   1   4  -3  887.37   12.92
   1  -4  -3  815.74   12.99
   4   1  -3  808.37   12.95
   4  -1  -3  890.28   13.83
   4  -1   3  796.98   14.05
   4   1   3  851.81   13.04
   1  -4   3  869.95   12.73
   1  -4  -3  812.92   12.36
  -1  -4  -3  897.41   14.16
  -4  -1  -3  812.74   12.72
  -4   1  -3  881.84   13.47
  -1   4  -3  800.23   12.70
   1   4  -3  856.38   14.30
   4  -1  -3  894.03   13.34
   4   1  -3  792.80   12.25
   1  -4  -3  820.93   13.55
  -1  -4   3  825.97   13.18
  -1  -4  -3  895.69   13.36
  -1  -4  -4  344.53    6.65
   1  -4  -4  354.38    5.76
   4   1  -4  357.53    8.49
   4  -1  -4  342.48    6.21
   4  -1   4  360.90    5.47
   4   1   4  337.67    7.68
   1  -4   4  360.56    5.04
  -1  -4  -4  338.44    5.04
   1  -4  -4  359.32    3.91
  -4  -1  -4  357.82    6.71
  -4   1  -4  346.76    8.32
  -1   4  -4  382.27    6.69
   4  -1  -4  347.82    3.98
   1   4  -4  355.15    9.11
   4   1  -4  339.38    5.91
  -1  -4   4  343.37    4.70
  -1  -4  -4  337.56    5.89
  -1  -4  -5  464.36    7.84
   1   4  -5  460.99    8.68
   1  -4  -5  422.79   20.54
   4   1  -5  423.20   21.20
   4  -1  -5  462.97   10.51
   4  -1   5  429.49    8.13
   4   1   5  456.59   11.63
  -1  -4  -5  439.41    9.41
   1  -4  -5  443.63    7.79
  -4  -1  -5  453.18    9.63
  -4   1  -5  453.10    8.11
  -1   4  -5  426.91    8.16
   4  -1  -5  483.37    8.12
   1   4  -5  459.09   13.84
   4   1  -5  424.46   21.38
  -1  -4   5  466.89    8.93
  -1  -4  -5  448.33    7.93
  -4  -1   5  431.31    8.13
  -1  -4  -6  263.87    8.82
   1  -4  -6  221.80    5.87
   4   1  -6  266.38    8.41
   4  -1  -6  253.52    5.24
   4  -1   6  231.25    8.55
   4   1   6  252.80    9.44
   1  -4   6  261.53    6.29
  -1  -4  -6  253.11    5.92
   1  -4  -6  233.16    4.08
  -4  -1  -6  231.20    5.90
  -4   1  -6  248.87    4.50
  -1   4  -6  217.89    4.97
   4  -1  -6  264.22    6.68
   1   4  -6  250.30    5.81
   4   1  -6  234.90    5.58
  -1  -4   6  233.59    6.31
  -1  -4  -6  249.97    3.71
  -4  -1   6  262.68    3.85
  -1  -4  -7 1798.63   38.41
   1   4  -7 1712.07   36.69
   1  -4  -7 1721.24   36.81
   4   1  -7 1747.35   38.49
   4  -1  -7 1686.33   36.86
   4  -1   7 1738.06   37.61
   4   1   7 1798.15   39.14
   1  -4   7 1767.67   37.76
  -1  -4  -7 1799.67   38.88
   1  -4  -7 1713.91   36.65
  -4  -1  -7 1706.57   37.64
  -4   1  -7 1696.85   38.50
   4  -1  -7 1777.41   37.41
  -1   4  -7 1711.97   38.34
   1   4  -7 1865.04   40.58
   4   1  -7 1716.97   38.08
  -1  -4  -7 1750.67   36.97
  -4  -1   7 1746.62   36.68
  -1  -4  -8  165.43   11.11
   1   4  -8  158.88    8.75
   1  -4  -8  144.47    8.72
   4   1  -8  139.56   13.65
   4  -1  -8  169.80    9.68
   4  -1   8  137.35    8.28
   4   1   8  195.12   19.17
   1  -4   8  173.09   13.31
  -1  -4  -8  178.30   10.42
   1  -4  -8  146.22    7.80
  -4  -1  -8  155.89   11.82
  -4   1  -8  162.38   13.83
   4  -1  -8  167.18    8.87
  -1   4  -8  154.25   13.46
   1   4  -8  172.24   12.58
   4   1  -8  145.54    9.77
  -1  -4  -8  172.56    9.44
  -4  -1   8  169.87    8.90
  -1  -4  -9  693.67   19.04
   1   4  -9  664.73   20.13
   1  -4  -9  804.07   21.71
   4   1  -9  623.26   18.84
   4  -1  -9  700.94   21.03
   4  -1   9  660.60   21.00
   4   1   9  676.44   19.07
   1  -4   9  701.42   21.10
  -1  -4  -9  700.26   18.82
   1  -4  -9  663.31   17.23
  -4  -1  -9  652.29   18.90
  -4   1  -9  683.04   19.05
   4  -1  -9  701.36   18.19
  -1   4  -9  657.31   20.94
   1   4  -9  679.68   22.91
   4   1  -9  664.30   19.94
  -1  -4  -9  702.48   18.66
  -4  -1   9  697.19   17.51
  -4  -1  -9  653.46   17.48
  -1  -4 -10  291.16   10.18
   1   4 -10  313.71   10.66
   1  -4 -10  316.47   10.66
   4   1 -10  298.27   11.70
   4  -1 -10  297.56   11.28
   4  -1  10  318.62   13.50
   4   1  10  316.41   11.14
   1  -4  10  302.58   12.35
  -1  -4 -10  296.21   11.76
   1  -4 -10  289.17    9.10
  -4  -1 -10  307.87   10.89
  -4   1 -10  299.65   10.23
   4  -1 -10  319.03   11.03
  -1   4 -10  299.51   11.67
   4   1 -10  309.55   10.50
   1   4 -10  297.42   20.96
  -1  -4 -10  307.94    9.11
  -4  -1  10  295.71    7.82
  -4   1  10  307.40    8.14
  -4  -1 -10  302.93    8.46
  -1  -4 -11   65.28   16.49
   1   4 -11   63.39   14.15
   1  -4 -11   73.43    9.72
   4   1 -11   58.22   12.55
   4  -1 -11   59.53   14.52
   4  -1  11   70.39   17.97
   4   1  11   69.39   14.94
   1  -4  11   61.92    7.87
  -1  -4 -11   62.84   13.69
   1  -4 -11   61.50    8.19
  -4  -1 -11   70.03   14.46
  -4   1 -11   66.46    8.82
   4  -1 -11   64.32    7.93
  -1   4 -11   69.52    9.24
   4   1 -11   71.10   13.48
   1   4 -11   59.30   13.49
  -4  -1 -11   67.43    7.89
   1   4 -12   38.59    6.29
   1  -4 -12   59.18   12.59
   4   1 -12   61.66   12.87
   4  -1 -12   36.67    8.62
   4  -1  12   60.13   12.03
   4   1  12   40.83    8.07
   1  -4  12   38.48    7.68
  -1  -4 -12   50.54   11.84
   1  -4 -12   52.85   10.99
  -4  -1 -12   63.72   11.82
  -4   1 -12   47.16    8.08
   4  -1 -12   44.74    5.07
  -1   4 -12   65.20   13.58
   4   1 -12   55.63    6.93
   1   4 -12   46.93    7.35
  -4  -1 -12   58.56    5.32
   1   4 -13   45.57    9.86
   1  -4 -13   49.82    9.63
   4   1 -13   40.31    8.55
   4  -1 -13   42.69    9.52
   4  -1  13   54.16    9.88
   4   1  13   37.93    8.17
   1  -4  13   50.31    7.43
   1   4  13   52.59   10.24
  -1  -4 -13   56.82   10.61
   1  -4 -13   41.94    7.37
  -4  -1 -13   50.46   11.24
  -4   1 -13   50.43    9.35
   4  -1 -13   45.48    8.40
  -1   4 -13   40.73   12.73
   4   1 -13   50.41    8.14
   1   4 -13   44.77    9.25
   1   4 -14   41.46    9.67
   1  -4 -14   29.64    7.06
   4   1 -14   36.11    7.08
   4  -1 -14   32.57   10.33
   4  -1  14   39.07   11.78
   4   1  14   38.56    9.45
   1  -4  14   42.80   12.53
   1   4  14   37.95    7.70
  -1  -4 -14   35.51    7.00
   1  -4 -14   37.25    5.81
  -4  -1 -14   40.86    8.32
  -4   1 -14   41.04    9.58
   4  -1 -14   33.00    6.74
  -1   4 -14   34.61    9.80
   4   1 -14   38.26    6.08
   1   4 -14   44.43    8.08
   1   4 -15   63.34   13.13
   1  -4 -15   59.62   12.69
   4   1 -15   64.66   10.54
   4  -1 -15   85.44   15.36
   4  -1  15   60.39   12.88
   4   1  15   64.50   21.21
   1  -4  15   72.75   16.09
   1   4  15   50.31   14.49
  -1  -4 -15   68.60   10.41
   1  -4 -15   55.57   10.10
  -4  -1 -15   54.79   10.21
  -4   1 -15   63.45   14.72
   4  -1 -15   65.35    7.85
  -1   4 -15   52.15   14.39
   4   1 -15   51.72    8.84
   1   4 -15   61.35   14.17
   1  -4 -16  135.13   15.75
   4   1 -16  190.51   13.24
   4  -1 -16  184.65   24.37
   4  -1  16  141.42   19.47
   4   1  16  156.60   16.90
   1  -4  16  157.26   13.44
   1   4  16  166.32    8.97
  -1  -4  16  137.80   17.65
  -1  -4 -16  162.62   13.43
   1  -4 -16  143.25   18.58
  -4  -1 -16  155.25   13.73
  -4   1 -16  161.07   13.92
   4  -1 -16  140.01   18.45
  -1   4 -16  139.26   16.40
   4   1 -16  140.68   20.85
   1   4 -16  136.53   19.51
   1  -4 -17   41.51    6.93
   4   1 -17   30.23    8.87
   4  -1 -17   32.50    5.44
   4  -1  17   38.24   10.82
   4   1  17   28.01    6.76
   1  -4  17   42.13   13.78
   1   4  17   24.29    8.02
  -1  -4  17   31.84    6.90
  -1  -4 -17   36.82    6.73
   1  -4 -17   29.68    4.68
  -4  -1 -17   36.34    6.56
  -4   1 -17   38.33    6.28
   4  -1 -17   34.17    6.86
  -1   4 -17   26.42    6.54
   4   1 -17   25.51    7.32
   1   4 -17   26.49    7.60
   4   1 -18   19.81    9.93
   4  -1 -18   31.34    8.26
   4  -1  18   25.49   10.46
   4   1  18   23.85    6.74
   1  -4  18   21.39    8.82
   1   4  18   17.81    7.15
  -1  -4  18   18.34    6.07
  -1  -4 -18   18.18    4.60
   1  -4 -18   23.90    4.38
  -4  -1 -18   18.96    4.67
  -4   1 -18   27.22    6.01
   4  -1 -18   24.99    4.07
  -1   4 -18   13.51    5.77
   4   1 -18   32.05    6.65
   1   4 -18   25.61    7.53
   4   1 -19   55.99   11.83
   4  -1 -19   49.40   10.18
   4  -1  19   58.64   15.97
   4   1  19   53.25   13.46
   1  -4  19   51.99   10.93
   1   4  19   55.05   15.02
  -1  -4  19   54.24   16.16
  -1   4  19   36.17   13.36
  -1  -4 -19   66.10    7.51
   1  -4 -19   68.42    8.98
  -4  -1 -19   64.72   15.22
  -4   1 -19   46.55   14.44
   4  -1 -19   37.65   10.68
  -1   4 -19   59.52   16.08
   4   1 -19   35.55   14.72
   1   4 -19   49.30   15.70
   4   1 -20   38.83    9.98
   4  -1 -20   29.39    7.82
   4  -1  20   29.85    9.44
   4   1  20   24.94    6.54
   1  -4  20   28.61    6.23
   1   4  20   31.35    9.96
  -1  -4  20   32.59   11.18
  -1   4  20   22.40    7.59
  -1  -4 -20   29.37    5.37
  -4  -1 -20   32.73    8.06
  -4   1 -20   28.72    6.62
  -1   4 -20   30.07    9.36
   4   1 -20   26.18   10.48
   1   4 -20   23.81    6.50
   4   1 -21   16.23    6.66
   4  -1 -21   24.12    7.26
   4  -1  21   18.73    5.59
   4   1  21   24.53    8.88
   1  -4  21   16.60    7.97
   1   4  21   21.88    6.76
  -1  -4  21   28.95    5.44
  -1   4  21   26.62    9.42
  -1  -4 -21   24.00    4.32
  -4  -1 -21   27.24    5.91
  -4   1 -21   23.57    4.29
  -1   4 -21   10.98    4.76
   4   1 -21   18.22    7.21
   1   4 -21   25.23    8.58
   1  -4  22    4.97    3.63
  -1  -4  22   27.19   15.49
  -1  -4 -22    3.26    2.26
  -4  -1 -22    6.27    3.17
  -4   1 -22    8.19    4.13
   1   4 -22    3.79    3.19
   2  -4   0 1139.14   16.62
   2   4   0 1187.49   16.45
   4  -2   0 1172.17   17.70
   4   2   0 1155.19   19.24
  -2  -4   0 1185.11   16.25
  -4   2   0 1213.34   16.83
  -2   4   0 1203.93   17.52
  -2  -4   0 1214.08   17.81
  -4  -2   0 1167.07   18.91
   2   4  -1  108.71    2.56
   2  -4  -1   98.87    3.20
   4   2  -1   95.06    3.32
   4  -2  -1  105.87    3.91
  -2  -4   1   94.40    2.58
   4  -2   1  106.96    6.63
   2  -4   1  115.36    2.92
   4   2   1  104.12    4.58
   2   4   1  109.00    4.58
  -2  -4  -1  108.89    2.01
  -4  -2  -1   99.27    7.12
  -4   2   1  102.58    2.13
  -4   2  -1  118.82    3.59
   4  -2  -1  110.92    2.45
  -2   4  -1   97.00    3.75
  -2   4   1  105.65    2.89
  -2  -4   1   96.66    4.34
  -2  -4  -1  112.30    4.62
  -4  -2   1  107.37    5.56
  -4  -2  -1   92.98    3.22
   4   2  -2  302.59    9.45
   4  -2  -2  372.06    5.19
   4   2   2  373.08    5.47
   2  -4   2  371.85    5.34
  -2   4   2  350.23    2.53
  -4   2  -2  360.46    4.15
  -2   4  -2  306.69    6.66
   2   4  -2  345.35    5.53
  -2  -4  -2  364.08    4.84
  -4  -2   2  359.70    5.27
   2   4  -3  490.01    8.51
   2  -4  -3  556.17    9.39
   4   2  -3  538.32   10.12
   4  -2  -3  488.28   10.94
   4  -2   3  546.33    9.59
   4   2   3  493.25    9.12
   2  -4   3  487.33    8.39
   2   4   3  553.23    8.78
  -2  -4  -3  478.26   10.31
  -4  -2  -3  545.83    9.81
  -4   2  -3  492.46    8.74
  -2   4  -3  557.88   12.95
   2   4  -3  495.86   11.25
   4   2  -3  531.22    8.85
  -2  -4   3  549.47   10.24
  -2  -4  -3  490.61   10.37
  -4  -2   3  484.89    8.80
  -4  -2  -3  521.77    9.17
   2   4  -4 1363.14   20.04
   2  -4  -4 1290.24   19.86
   4   2  -4 1304.66   20.18
   4  -2  -4 1352.13   20.04
   4  -2   4 1320.46   20.41
   4   2   4 1349.28   20.66
   2  -4   4 1359.80   20.43
   2   4   4 1356.79   19.71
   2  -4  -4 1309.50   18.38
  -2  -4  -4 1377.57   21.40
  -4  -2  -4 1348.14   20.57
  -4   2  -4 1359.27   22.30
  -2   4  -4 1357.63   21.03
   2   4  -4 1360.36   20.68
   4   2  -4 1332.77   20.41
  -2  -4   4 1357.51   20.18
  -2  -4  -4 1346.53   20.25
  -4  -2  -4 1293.76   18.82
   2   4  -5  880.47   13.99
   2  -4  -5  848.14   13.89
   4   2  -5  868.01   14.56
   4  -2  -5  882.76   15.78
   4  -2   5  886.82   17.19
   4   2   5  875.12   14.76
   2  -4   5  878.75   13.76
   2   4   5  845.13   14.03
  -2  -4  -5  869.24   13.50
   2  -4  -5  890.53   12.83
  -4  -2  -5  858.77   13.73
   4  -2  -5  915.31   13.30
  -2   4  -5  882.04   14.98
   2   4  -5  889.38   16.20
   4   2  -5  872.37   14.52
  -2  -4   5  850.19   13.34
  -2  -4  -5  875.27   14.05
  -4  -2   5  865.49   13.73
  -4  -2  -5  871.10   15.23
   2   4  -6 2509.37   35.85
   2  -4  -6 2615.44   38.62
   4   2  -6 2553.65   37.91
   4  -2  -6 2583.04   38.53
   4  -2   6 2519.30   37.24
   4   2   6 2567.41   36.50
   2  -4   6 2630.47   37.43
   2   4   6 2699.24   38.13
  -2  -4  -6 2536.65   38.27
  -4  -2  -6 2628.64   39.61
   2  -4  -6 2785.73   39.06
  -4   2  -6 2558.71   36.52
   4  -2  -6 2509.10   34.90
  -2   4  -6 2562.73   36.56
   2   4  -6 2571.60   39.72
   4   2  -6 2556.91   37.29
  -2  -4   6 2567.11   36.26
  -2  -4  -6 2544.67   35.86
  -4  -2   6 2498.11   35.04
  -4  -2  -6 2546.71   35.70
   2   4  -7  326.74   16.55
   2  -4  -7  410.30   20.73
   4   2  -7  397.22   20.66
   4  -2  -7  321.33   16.61
   4  -2   7  411.73   20.45
   4   2   7  322.24   16.75
   2  -4   7  330.77   16.78
   2   4   7  378.50   18.68
  -2  -4  -7  314.62   15.62
  -4  -2  -7  395.21   20.14
   2  -4  -7  404.02   19.85
  -4   2  -7  332.16   16.80
   4  -2  -7  320.01   15.70
  -2   4  -7  392.34   19.99
   2   4  -7  327.67   19.99
   4   2  -7  386.30   19.28
  -2  -4   7  378.41   18.93
  -2  -4  -7  302.32   15.85
  -4  -2   7  311.53   15.13
  -4  -2  -7  382.25   18.61
   2   4  -8  347.02   17.55
   2  -4  -8  365.76   18.26
   4   2  -8  360.82   19.21
   4  -2  -8  328.38   18.67
   4  -2   8  386.52   20.22
   4   2   8  333.03   17.14
   2  -4   8  337.04   16.87
   2   4   8  390.51   19.84
  -2  -4  -8  351.90   18.01
  -4  -2  -8  377.42   19.17
   2  -4  -8  382.46   19.04
  -4   2  -8  332.23   19.26
   4  -2  -8  348.70   17.24
  -2   4  -8  362.93   19.47
   2   4  -8  517.71   26.24
   4   2  -8  378.65   18.95
  -2  -4   8  383.20   19.08
  -2  -4  -8  352.57   17.50
  -4  -2   8  335.98   16.91
  -4  -2  -8  390.34   19.67
   2   4  -9  223.91   21.55
   2  -4  -9  202.97   16.17
   4   2  -9  208.22   11.86
   4  -2  -9  212.47   16.78
   4  -2   9  200.57   11.86
   4   2   9  204.78    7.26
   2  -4   9  223.79   21.30
   2   4   9  195.68   15.88
  -2  -4  -9  220.78    7.33
  -4  -2  -9  200.00   15.47
   2  -4  -9  203.15    5.45
  -4   2  -9  231.19   10.36
   4  -2  -9  229.02    8.96
  -2   4  -9  200.79    7.00
   2   4  -9  222.61   28.20
   4   2  -9  217.04    7.75
  -2  -4   9  218.52    5.62
  -2  -4  -9  209.64    8.12
  -4  -2   9  210.78    4.88
  -4  -2  -9  202.38    4.69
   2  -4 -10  341.04   10.07
   4   2 -10  334.52   10.27
   4  -2 -10  321.34   13.47
   4  -2  10  338.30    9.48
   4   2  10  292.91    9.07
   2  -4  10  369.58   20.65
   2   4  10  333.38   11.88
  -2  -4 -10  319.61    7.95
  -4  -2 -10  322.19    9.30
   2  -4 -10  329.54    7.71
   4  -2 -10  330.20    7.37
  -2   4 -10  339.81   12.63
   2   4 -10  324.55   10.60
   4   2 -10  324.87    8.91
  -2  -4 -10  305.60    9.22
  -4  -2  10  318.31    5.82
  -4  -2 -10  325.13   10.92
   2   4 -11 1030.88   22.86
   2  -4 -11  988.55   22.11
   4   2 -11  998.99   18.50
   4  -2 -11 1031.04   23.61
   4  -2  11 1004.04   18.85
   4   2  11 1058.81   24.12
   2  -4  11 1200.48   24.75
   2   4  11  989.44   19.32
  -2  -4 -11 1045.51   18.44
  -4  -2 -11 1005.00   19.28
   2  -4 -11 1027.23   17.45
  -4   2 -11 1095.10   21.02
   4  -2 -11 1044.57   17.36
  -2   4 -11 1036.80   19.22
   4   2 -11 1030.72   18.71
   2   4 -11 1055.38   30.51
  -4  -2  11 1047.76   14.75
  -2  -4 -11 1047.75   15.28
  -4  -2 -11 1024.85   14.84
   2   4 -12   87.18   13.94
   2  -4 -12   95.11   14.66
   4   2 -12  103.91    8.74
   4  -2 -12   73.30   12.54
   4  -2  12   96.78    6.34
   4   2  12   76.17   14.66
   2  -4  12   80.09   17.29
   2   4  12   84.35    6.73
  -2  -4 -12   69.74   13.05
  -4  -2 -12   81.89    6.76
   2  -4 -12   97.85   11.38
  -4   2 -12   88.12   10.74
   4  -2 -12   79.85   10.37
  -2   4 -12  107.68   17.61
   4   2 -12   96.85   12.74
   2   4 -12   82.43   15.57
  -4  -2 -12   96.14    3.14
   2   4 -13   20.51    4.44
   2  -4 -13  124.99   32.43
   4   2 -13   11.99    5.38
   4  -2 -13   25.65    5.64
   4  -2  13   31.80    8.29
   4   2  13   20.86    4.83
   2  -4  13   30.10    7.54
   2   4  13   24.95    6.12
  -2  -4 -13   23.80    4.20
  -4  -2 -13   24.17    6.36
   2  -4 -13   19.99    4.24
  -4   2 -13   19.24    5.26
   4  -2 -13   20.36    3.70
  -2   4 -13   29.91    5.53
   4   2 -13   21.10    4.73
   2   4 -13   26.17    6.54
   2   4 -14   21.87    5.18
   2  -4 -14   29.28    5.50
   4   2 -14   33.17   13.48
   4  -2 -14   24.28    9.84
   4  -2  14   23.16    9.02
   4   2  14   23.40    5.20
   2  -4  14   25.98    7.10
   2   4  14   22.06    7.05
  -2  -4 -14   28.99    5.77
  -4  -2 -14   34.33    8.07
   2  -4 -14   24.89    5.09
  -4   2 -14   23.11    6.49
   4  -2 -14   66.19   13.69
  -2   4 -14   25.48    7.39
   4   2 -14   17.90    7.55
   2   4 -14   19.11    4.42
   2   4 -15   13.95    5.73
   2  -4 -15   25.57    7.34
   4   2 -15   12.17    4.88
   4  -2 -15   35.70    8.94
   4  -2  15   10.99    4.90
   4   2  15   32.11    5.97
   2  -4  15   27.85    6.71
   2   4  15   11.88    5.90
  -2  -4 -15   27.11    4.48
  -4  -2 -15   14.47    4.96
   2  -4 -15   23.71    3.66
  -4   2 -15   18.38    5.43
   4  -2 -15   22.57    4.12
  -2   4 -15    5.88    2.92
   4   2 -15   17.73    4.08
   2   4 -15   22.40    6.49
   2   4 -16    2.49    3.27
   2  -4 -16   12.63    5.28
   4   2 -16    9.61    2.94
   4  -2 -16   12.73    5.91
   4  -2  16    8.49    4.05
   4   2  16    4.51    3.64
   2  -4  16    2.30    2.06
   2   4  16    4.83    2.65
  -2  -4 -16   10.64    2.99
  -4  -2 -16    9.17    3.52
   2  -4 -16   12.94    4.05
  -4   2 -16    3.35    4.14
   4  -2 -16    2.39    1.93
  -2   4 -16   23.38   10.33
   4   2 -16    8.27    3.56
   2   4 -16   12.15    5.54
   2   4 -17   59.39   12.36
   2  -4 -17   60.62   12.42
   4   2 -17   65.16   12.94
   4  -2 -17   53.54   10.67
   4  -2  17   58.12   14.16
   4   2  17   64.20   13.59
   2  -4  17   56.96   12.24
   2   4  17   57.91   11.40
  -2  -4 -17   59.84    9.73
  -4  -2 -17   64.55   11.43
   2  -4 -17   55.67    9.43
  -4   2 -17   54.59   11.51
   4  -2 -17   53.43   11.42
  -2   4 -17   59.77    9.16
   4   2 -17   58.57    9.87
   2   4 -17   59.21    6.59
   4   2 -18   39.90    9.44
   4  -2 -18   30.55    6.56
   4  -2  18   29.97    7.23
   4   2  18   24.16    9.06
   2  -4  18   25.61    7.12
   2   4  18   80.92   24.05
  -2  -4  18   36.08    7.82
  -2  -4 -18   31.51    5.43
  -4  -2 -18   19.84    4.96
   2  -4 -18   39.11    6.56
  -4   2 -18   17.09    6.64
   4  -2 -18   17.19    4.74
  -2   4 -18   21.65    7.21
   4   2 -18   24.82    8.83
   2   4 -18   14.45    6.10
   2  -4 -19   18.17    6.72
   4   2 -19   10.92    3.54
   4  -2 -19   10.96    5.45
   4  -2  19   12.43    6.34
   4   2  19   15.12    6.76
   2  -4  19   11.40    4.78
   2   4  19   15.62    5.60
  -2  -4  19   19.23    9.53
  -2  -4 -19   22.72    4.38
  -4  -2 -19   12.04    4.59
  -4   2 -19   14.44    4.57
  -2   4 -19   17.59    5.93
   4   2 -19   15.33    6.06
   2   4 -19   18.15    4.37
   4   2 -20    4.04    1.71
   4  -2 -20   -1.23    4.06
   4  -2  20    8.67    3.41
   2  -4  20   16.14    6.51
   2   4  20    5.70    4.86
  -2  -4  20    2.64    4.11
  -2  -4 -20    2.81    2.31
  -4  -2 -20    5.17    1.85
  -4   2 -20    6.35    4.84
  -2   4 -20   -0.50    4.86
   4   2 -20    3.29    3.29
   2   4 -20    1.79    4.35
   4   2 -21   11.32    5.38
   4  -2  21   19.18    8.73
   4   2  21   16.47    8.33
   2  -4  21   19.23    7.38
   2   4  21    6.31    3.74
  -2  -4  21   12.92    5.27
  -2   4  21    6.97    3.96
  -2  -4 -21   26.52    5.87
  -4  -2 -21   12.40    4.75
  -4   2 -21   13.73    4.79
  -2   4 -21   13.72    6.72
   4   2 -21   23.86    6.79
   2   4 -21   31.05   10.11
  -2  -4 -22   34.72    8.68
  -4  -2 -22   44.03   11.51
   4   2 -22   29.80   10.07
   2   4 -22   78.65   36.52
   3  -4   0 2480.70   34.25
   3   4   0 2367.46   32.40
   4  -3   0 2368.63   33.12
   4   3   0 2428.05   33.83
  -4   3   0 2409.48   32.74
  -3   4   0 2587.92   35.30
  -3  -4   0 2456.26   34.60
  -4  -3   0 2305.19   32.55
   3   4  -1  864.25   12.84
   3  -4  -1  953.02   15.63
   4   3  -1  961.30   14.18
   4  -3  -1  848.48   14.70
   3  -4   1  831.59   14.17
   4  -3   1  948.35   15.43
   4   3   1  838.94   12.68
   3   4   1  952.27   13.69
  -4   3   1  950.58   13.00
  -3   4  -1  983.22   15.46
   4  -3  -1  867.14   12.01
  -3   4   1  843.13   12.18
  -3  -4   1  948.51   14.35
  -3  -4  -1  853.86   13.47
  -4  -3   1  832.27   13.13
  -4  -3  -1  942.83   14.39
   3   4  -2 1913.73   26.98
   3  -4  -2 2161.14   30.61
   4   3  -2 2072.32   29.24
   4  -3  -2 1875.16   26.70
   4  -3   2 2146.01   31.88
   3  -4   2 1945.63   27.91
   4   3   2 1845.49   25.96
   3   4   2 2155.08   29.94
  -4   3  -2 1887.96   26.36
  -3   4  -2 2086.66   29.86
  -3   4   2 1879.79   25.37
  -3  -4   2 2110.82   30.21
  -3  -4  -2 1904.27   27.97
  -4  -3   2 1884.12   28.02
   3   4  -3 2238.17   31.02
   3  -4  -3 2287.02   32.19
   4   3  -3 2419.76   34.37
   4  -3  -3 2355.73   33.33
   4  -3   3 2305.00   32.55
   3  -4   3 2289.84   32.64
   4   3   3 2189.55   31.09
   3   4   3 2162.82   30.14
  -3  -4  -3 2232.02   32.70
  -4  -3  -3 2250.33   34.06
  -4   3  -3 2265.73   31.66
  -3   4   3 2155.85   29.03
  -3   4  -3 2244.75   32.21
   3   4  -3 2315.13   33.30
   4   3  -3 2213.29   31.51
  -3  -4   3 2299.12   32.91
  -3  -4  -3 2222.68   31.33
  -4  -3   3 2170.44   31.52
  -4  -3  -3 2483.82   35.56
   3   4  -4  364.50    8.82
   3  -4  -4  332.87    4.33
   4   3  -4  342.37    5.03
   4  -3  -4  391.48    5.45
   4  -3   4  353.82    6.86
   3  -4   4  357.89    8.92
   4   3   4  366.56    9.45
   3   4   4  349.66    6.58
  -3  -4  -4  386.48    7.72
  -4  -3  -4  337.62    5.34
  -4   3  -4  380.72    7.45
  -3   4   4  366.16    2.40
  -3   4  -4  345.87    9.91
   3   4  -4  383.75   12.04
   4   3  -4  345.18    8.90
  -3  -4   4  359.97    5.39
  -3  -4  -4  401.16   19.78
  -4  -3   4  367.74    5.18
  -4  -3  -4  354.92    5.52
   4  -3   5  290.03    6.93
   3  -4   5  299.70    8.76
   4   3   5  276.44    6.57
  -3  -4  -5  287.34    5.35
  -4  -3  -5  276.73    6.54
  -4   3  -5  299.53   10.75
  -3   4  -5  296.12    6.13
   3   4  -5  300.83    7.68
   4   3  -5  284.64    8.36
  -3  -4   5  290.31    5.16
  -3  -4  -5  278.27    5.61
  -4  -3   5  271.05    4.96
   3   4  -6 1339.07   29.63
   3  -4  -6 1285.31   28.55
   4   3  -6 1272.67   29.60
   4  -3  -6 1350.72   29.39
   4  -3   6 1319.09   30.20
   3  -4   6 1324.53   28.75
   4   3   6 1359.12   31.10
   3   4   6 1323.82   28.52
  -3  -4  -6 1275.64   28.10
  -4  -3  -6 1386.52   32.46
   3  -4  -6 1319.11   27.88
   4  -3  -6 1339.27   28.24
  -4   3  -6 1380.95   31.27
  -3   4  -6 1265.39   28.38
   3   4  -6 1323.71   30.09
   4   3  -6 1339.99   31.05
  -3  -4   6 1351.52   29.57
  -3  -4  -6 1300.08   28.55
  -4  -3   6 1320.90   28.89
  -4  -3  -6 1304.73   28.58
   3   4  -7  417.34    9.93
   3  -4  -7  419.84    6.72
   4   3  -7  463.63   21.05
   4  -3  -7  421.18    7.77
   4  -3   7  446.75   14.83
   3  -4   7  419.72    7.94
   4   3   7  423.42   10.06
   3   4   7  426.75    6.89
  -3  -4  -7  422.32    6.52
  -4  -3  -7  429.77    6.14
   3  -4  -7  424.29    4.36
   4  -3  -7  430.93    4.77
  -4   3  -7  417.84    8.31
  -3   4  -7  437.21    7.98
   3   4  -7  402.93   23.57
   4   3  -7  434.94    7.32
  -3  -4   7  426.39    5.15
  -4  -3   7  399.08   20.12
  -3  -4  -7  399.75   19.54
  -4  -3  -7  431.64    6.51
   3   4  -8  123.08    4.11
   3  -4  -8  114.33    5.13
   4   3  -8  124.98    5.47
   4  -3  -8  122.97    6.19
   4  -3   8  113.46    6.65
   3  -4   8  142.49    8.68
   4   3   8  136.76    6.13
   3   4   8  113.02    5.33
  -3  -4  -8  133.11    4.98
  -4  -3  -8  127.52    5.97
   3  -4  -8  115.80    3.70
   4  -3  -8  128.59    4.40
  -4   3  -8  117.68    5.14
  -3   4  -8  119.60    8.16
   3   4  -8  136.47   15.55
   4   3  -8  127.96    5.92
  -3  -4   8  114.69    5.13
  -4  -3   8  124.94    4.40
  -3  -4  -8  141.22    6.39
  -4  -3  -8  114.38    7.16
   3   4  -9  452.14   15.77
   3  -4  -9  368.33   12.43
   4   3  -9  387.20   20.42
   4  -3  -9  363.79   12.66
   4  -3   9  418.24   14.45
   3  -4   9  392.00   16.80
   4   3   9  327.35   11.23
   3   4   9  400.70   12.69
  -3  -4  -9  395.96   12.39
  -4  -3  -9  394.02   14.99
   3  -4  -9  373.87   11.10
  -4   3  -9  382.97   12.92
  -3   4  -9  383.62   13.41
   4   3  -9  409.02   14.35
  -3  -4   9  380.06   12.57
  -4  -3   9  396.73   11.04
  -3  -4  -9  381.11   11.26
  -4  -3  -9  365.79   11.37
   3   4 -10  587.46   16.91
   3  -4 -10  565.62   18.42
   4   3 -10  567.27   13.30
   4  -3 -10  615.26   14.62
   4  -3  10  606.96   15.74
   3  -4  10  593.29   21.30
   4   3  10  595.08   14.72
  -3  -4 -10  607.22   14.83
  -4  -3 -10  566.48   15.76
   3  -4 -10  595.93   10.30
   4  -3 -10  631.43   13.40
  -4   3 -10  606.23   12.31
  -3   4 -10  563.07   11.42
   3   4 -10  653.09   17.15
   4   3 -10  628.87   14.74
  -3  -4  10  577.89   12.30
  -4  -3  10  615.08   10.06
  -3  -4 -10  590.03   12.63
  -4  -3 -10  587.14   13.98
   3   4 -11   86.53   14.57
   3  -4 -11   66.71   15.51
   4   3 -11   59.24   11.93
   4  -3 -11   56.95   12.09
   4  -3  11   58.79   11.56
   3  -4  11   71.78   17.19
   4   3  11   61.81   12.17
   3   4  11  139.16   26.80
  -3  -4 -11   69.01   15.06
  -4  -3 -11   62.67   13.89
   3  -4 -11   64.19    8.88
   4  -3 -11   61.33    8.67
  -4   3 -11   65.29    6.38
  -3   4 -11   64.40    9.04
   3   4 -11   78.70   15.48
   4   3 -11   71.67   13.07
  -3  -4  11   49.85    5.58
  -4  -3  11   48.83    6.53
  -3  -4 -11   56.76    6.14
  -4  -3 -11   49.44    5.38
   3   4 -12   84.46    9.04
   3  -4 -12   84.22   19.05
   4   3 -12   79.67   14.53
   4  -3 -12   82.09   16.13
   4  -3  12   85.37   20.82
   3  -4  12   90.67    9.06
   4   3  12   90.26   19.18
   3   4  12  194.94   18.26
  -3  -4 -12   96.05   11.16
  -4  -3 -12   89.88   16.43
   3  -4 -12   80.72   11.28
   4  -3 -12   75.94   10.63
  -4   3 -12   95.86   18.82
  -3   4 -12   78.02    9.91
   3   4 -12   90.68   17.37
   4   3 -12   74.36   14.95
  -4  -3 -12   76.57    7.49
   3   4 -13  667.09   16.58
   3  -4 -13  634.10   24.63
   4   3 -13  605.61   25.15
   4  -3 -13  688.23   17.68
   4  -3  13  666.51   18.92
   3  -4  13  632.33   27.66
   4   3  13  619.88   29.74
   3   4  13  697.10   20.34
  -3  -4 -13  641.12   25.79
  -4  -3 -13  627.61   26.47
   3  -4 -13  627.06   24.27
   4  -3 -13  623.51   23.90
  -4   3 -13  724.92   14.73
  -3   4 -13  634.98   26.61
   4   3 -13  625.84   28.01
   3   4 -13  653.71   14.13
   3   4 -14  316.00   10.98
   3  -4 -14  325.23   12.10
   4   3 -14  312.35   20.50
   4  -3 -14  324.30   12.81
   4  -3  14  301.94   21.06
   3  -4  14  303.77   12.67
   4   3  14  323.40   14.09
   3   4  14  354.33   29.04
  -3  -4 -14  307.87   11.37
  -4  -3 -14  327.83   12.51
   3  -4 -14  320.82   13.17
   4  -3 -14  319.87   16.80
  -4   3 -14  312.16   10.37
  -3   4 -14  342.55   13.19
   4   3 -14  299.49   20.78
   3   4 -14  314.24   11.44
   3   4 -15  464.32   12.62
   3  -4 -15  577.85   19.51
   4  -3 -15  556.27   18.60
   4  -3  15  449.19   17.10
   3  -4  15  449.03   17.45
   4   3  15  443.17   19.44
   3   4  15  453.63   15.19
  -3  -4 -15  480.46   13.92
  -4  -3 -15  467.74   14.68
   3  -4 -15  454.64   12.49
   4  -3 -15  444.39   12.17
  -4   3 -15  459.27   18.10
  -3   4 -15  441.46   23.96
   4   3 -15  486.96   10.80
   3   4 -15  455.78   12.20
   3   4 -16   14.80    3.94
   3  -4 -16   14.47    3.81
   4   3 -16   18.39    5.49
   4  -3 -16   28.06    6.63
   4  -3  16    7.25    5.23
   3  -4  16   14.14    6.18
   4   3  16   13.00    4.70
  -3  -4 -16   33.04   12.09
  -4  -3 -16   12.32    3.55
   3  -4 -16    4.69    2.59
   4  -3 -16   10.32    4.44
  -4   3 -16   18.98    6.15
  -3   4 -16    5.08    2.42
   4   3 -16   13.99    4.71
   3   4 -16   13.86    3.84
   3   4 -17   36.64    7.22
   3  -4 -17   15.10    7.12
   4   3 -17   17.39    8.02
   4  -3 -17   15.61    6.98
   4  -3  17   28.93    6.89
   3  -4  17   31.57    8.94
   4   3  17   19.27    5.61
   3   4  17   16.28    5.88
  -3  -4 -17   27.36    4.64
  -4  -3 -17   16.13    4.37
   3  -4 -17   23.67    5.31
  -4   3 -17   23.37    5.04
  -3   4 -17   21.99   12.17
   4   3 -17   20.14    5.04
   3   4 -17   13.71    6.07
   3   4 -18   32.84    5.64
   4   3 -18   27.46    5.90
   3  -4 -18   26.60    9.14
   4  -3 -18   23.72    8.99
   4  -3  18   31.08   13.56
   3  -4  18   31.97    9.35
   4   3  18   13.31    5.92
   3   4  18   15.24    6.88
  -3  -4 -18   34.44    6.66
  -4  -3 -18   26.26    4.19
  -4   3 -18   31.31    6.64
  -3   4 -18   25.78    6.69
   4   3 -18   22.22    4.33
   3   4 -18   33.96    6.48
   3   4 -19   49.00   13.44
   3  -4 -19   49.19   12.61
   4   3 -19   64.23   10.46
   4  -3 -19   59.89   10.92
   4  -3  19   70.44   13.13
   3  -4  19   39.00   16.96
   4   3  19   44.75   12.67
   3   4  19   52.13   12.69
  -3  -4 -19   56.64   11.05
  -4  -3 -19   61.38   12.85
  -4   3 -19   54.67    9.82
  -3   4 -19   69.16    9.80
   4   3 -19   33.60    9.75
   3   4 -19   67.09    8.84
   4   3 -20    2.32    4.57
   3  -4 -20    3.09    4.35
   4  -3 -20    6.39    2.69
   4  -3  20   -1.78    4.86
   3  -4  20    1.00    3.12
   4   3  20   -3.02    4.95
   3   4  20    5.10    4.15
  -3  -4  20    0.22    3.62
  -3  -4 -20    0.73    2.08
  -4  -3 -20    6.55    4.36
  -4   3 -20    0.47    2.92
  -3   4 -20    2.11    4.54
   4   3 -20    1.15    2.76
   3   4 -20    0.42    4.84
   4   3 -21   28.37    7.20
   3  -4 -21   11.17    4.88
   4  -3 -21   30.49    7.30
   4  -3  21   12.62    6.01
   3  -4  21   21.82    6.95
   4   3  21   19.27    8.50
   3   4  21   23.40    6.71
  -3  -4  21   12.49    6.61
  -3  -4 -21   12.78    5.22
  -4  -3 -21   23.60    6.56
  -4   3 -21    8.19    4.36
  -3   4 -21   10.21    3.35
   4   3 -21   25.10    6.40
   3   4 -21   19.13    8.64
  -3  -4 -22   16.23    5.94
  -4  -3 -22    7.98    2.84
   4   3 -22   15.15    4.98
   3   4 -22   12.62    6.02
   4  -4   0  101.32    3.57
   4   4   0   96.20    3.73
  -4   4   0  100.19    3.17
  -4  -4   0   90.63    4.44
  -4  -4  -1 8311.12  392.06
   4   4  -2  720.48   12.45
   4  -4  -2  730.66   11.92
   4  -4   2  682.12   13.80
   4   4   2  701.25   11.93
  -4   4  -2  709.08   12.65
  -4  -4   2  676.53   11.16
  -4  -4  -2  673.86   11.40
   4   4  -3  149.63    5.97
   4  -4  -3  137.88    4.34
   4  -4   3  136.36    4.40
   4   4   3  145.37    5.64
  -4  -4  -3  148.20    4.46
  -4   4  -3  142.03    4.72
   4   4  -3  132.95    5.87
  -4  -4   3  138.02    3.95
  -4  -4  -3  131.96    3.70
   4   4  -4  917.06   15.46
   4  -4  -4  911.78   16.63
   4  -4   4  955.26   18.22
   4   4   4  945.18   14.43
  -4  -4  -4  983.00   15.87
  -4   4  -4  955.18   18.20
   4   4  -4  952.13   16.66
  -4  -4   4  918.65   15.32
  -4  -4  -4  933.73   14.48
   4   4  -5  850.69   20.50
   4  -4  -5  813.32   18.61
   4  -4   5  855.88   19.61
   4   4   5  907.99   21.55
  -4  -4  -5  821.09   19.64
  -4   4  -5  863.81   22.88
  -4   4   5  851.37   17.90
   4   4  -5  816.49   18.64
  -4  -4   5  815.46   17.98
  -4  -4  -5  850.46   19.92
   4   4  -6  428.15    7.65
   4  -4   6  446.99   12.11
   4   4   6  446.99   13.13
  -4  -4  -6  457.05   12.53
  -4   4  -6  441.84    7.52
   4   4  -6  578.85   18.26
  -4  -4   6  449.43   11.70
  -4  -4  -6  445.31   11.27
   4   4  -7  658.84   19.46
   4  -4  -7  644.27   17.52
   4  -4   7  692.07   17.27
   4   4   7  642.47   17.66
  -4  -4  -7  668.75   16.16
   4  -4  -7  651.99   14.27
  -4   4  -7  634.54   16.25
   4   4  -7  662.02   16.37
  -4  -4   7  670.28   16.60
  -4  -4  -7  633.32   14.47
   4   4  -8    3.61    1.66
   4  -4  -8    2.71    3.50
   4  -4   8   -0.32    2.93
   4   4   8    5.04    2.52
  -4  -4  -8    3.44    3.65
   4  -4  -8    4.46    1.38
  -4   4  -8   30.17    3.50
   4   4  -8    1.09    4.00
  -4  -4   8    6.72    1.84
  -4  -4  -8    8.06    2.69
   4   4  -9   89.35    7.70
   4  -4  -9   77.82    6.94
   4  -4   9   94.30    7.74
   4   4   9   78.58    9.02
  -4  -4  -9   81.96    7.92
   4  -4  -9   82.17    5.21
  -4   4  -9   80.36    7.79
   4   4  -9  102.36   13.37
  -4  -4   9   83.50    6.14
  -4  -4  -9   84.30    5.37
   4   4 -10   93.44   12.04
   4  -4 -10  103.19   14.22
   4  -4  10  109.30   16.78
   4   4  10   99.19   12.21
  -4  -4 -10   94.40   11.08
   4  -4 -10   94.83    8.57
  -4   4 -10  101.88   10.67
   4   4 -10  104.66   22.66
  -4  -4  10   93.66    8.76
  -4  -4 -10   97.62    9.83
   4   4 -11  604.90   24.60
   4  -4 -11  593.82   27.33
   4  -4  11  593.45   24.33
   4   4  11  617.14   25.80
  -4  -4 -11  585.90   28.59
   4  -4 -11  614.56   23.82
  -4   4 -11  609.73   28.67
   4   4 -11  559.39   28.66
  -4  -4  11  636.69   25.57
  -4  -4 -11  595.14   24.59
   4   4 -12   34.85    9.04
   4  -4 -12   34.79    8.39
   4  -4  12   38.17    8.41
   4   4  12   36.47    7.42
  -4  -4 -12   41.85    8.32
   4  -4 -12   36.21    5.26
  -4   4 -12   39.84    7.69
   4   4 -12   38.62    7.37
  -4  -4 -12   30.92    5.56
   4   4 -13  184.17   12.89
   4  -4 -13  151.10   13.19
   4  -4  13  144.13   15.81
   4   4  13  131.73   15.55
  -4  -4 -13  135.39    8.02
   4  -4 -13  138.76    9.91
  -4   4 -13  155.55   13.01
   4   4 -13  131.66   15.05
   4   4 -14  342.56   23.53
   4  -4 -14  287.91   10.14
   4  -4  14  246.07   23.01
   4   4  14  282.94   13.61
  -4  -4 -14  274.84   11.21
   4  -4 -14  265.69    7.71
  -4   4 -14  240.75   15.49
   4   4 -14  269.59   12.51
   4   4 -15   37.96    4.83
   4  -4 -15   56.01   11.15
   4  -4  15   35.14   10.51
   4   4  15   35.33    9.62
  -4  -4 -15   49.25    9.54
   4  -4 -15   40.24    8.68
  -4   4 -15   42.23    9.24
   4   4 -15   43.30    8.80
   4   4 -16   32.82    5.83
   4  -4 -16   37.52    8.60
   4  -4  16   34.04    9.18
   4   4  16   32.27    7.79
  -4  -4 -16   49.85    8.17
  -4   4 -16   39.90    7.73
   4   4 -16   34.45    6.50
   4   4 -17  174.73   16.89
   4  -4 -17  164.05   23.70
   4  -4  17  153.35   22.18
   4   4  17  158.34   24.40
  -4  -4 -17  175.61   23.42
  -4   4 -17  179.53   22.16
   4   4 -17  158.49   29.49
   4   4 -18   14.44    4.35
   4  -4 -18   13.53    5.45
   4  -4  18   13.22    7.49
   4   4  18   17.41    4.33
  -4  -4 -18   27.23    5.46
  -4   4 -18   16.31    5.81
   4   4 -18    9.10    5.77
   4   4 -19    6.41    3.82
   4  -4 -19    3.50    3.76
   4  -4  19    7.07    3.47
   4   4  19    3.22    2.50
  -4  -4 -19   10.62    4.21
  -4   4 -19    5.97    3.47
   4   4 -19    4.19    3.96
   4   4 -20    3.66    3.40
   4  -4 -20    4.17    2.95
   4  -4  20    2.09    3.55
   4   4  20    5.04    2.12
  -4  -4 -20    3.49    4.35
  -4   4 -20    0.08    2.66
   4   4 -20    1.16    4.63
   4  -4 -21   -1.96    3.82
   4  -4  21    5.71    4.12
   4   4  21   -5.32    4.49
  -4  -4 -21    3.48    3.16
  -4   4 -21    6.44    5.80
   4   4 -21    2.81    2.76
  -4  -4 -22   -2.40    3.41
   4   4 -22    7.22    3.60
   5   0   0    3.92    2.73
  -5   0   0    0.58    0.87
   0  -5   0    2.86    2.21
   0  -5   1   32.93    1.29
   0   5   1   28.68    1.81
   5   0  -1   37.83    8.42
   0  -5   1   34.58    1.62
   5   0   1   37.82    7.77
  -5   0  -1   32.67    3.47
   0   5  -1   32.18    3.40
   0  -5   1   41.10    7.91
   0  -5  -1   33.75    5.42
   0  -5  -2  118.77    3.08
   0  -5   2  124.66    2.44
   5   0  -2  124.67    3.93
   5   0   2  125.13    4.20
  -5   0  -2  131.76    4.26
   0   5  -2  123.77    5.39
   0  -5   2  123.62    3.92
   0  -5  -2  129.90    5.75
   0  -5  -3 1534.33   21.62
   5   0  -3 1433.70   21.38
   5   0   3 1536.03   23.82
   0  -5   3 1457.87   20.25
  -5   0  -3 1463.37   23.42
   0   5  -3 1497.88   24.81
   0  -5   3 1469.53   23.33
   0  -5  -3 1456.27   21.57
   0  -5  -4 1720.32   24.20
   5   0  -4 1709.13   27.06
   5   0   4 1713.68   25.84
   0  -5   4 1685.49   23.58
  -5   0  -4 1704.16   25.89
   0   5  -4 1761.32   25.96
   5   0  -4 1777.33   25.15
   0  -5  -4 1743.47   25.16
   0  -5  -5  249.63    6.07
   5   0  -5  243.75    6.05
   5   0   5  241.10    7.13
   0  -5   5  238.28    4.50
   0  -5  -5  238.85    4.61
  -5   0  -5  232.72    7.30
   0   5  -5  257.63   11.78
   5   0  -5  244.46    6.16
   0  -5   5  227.18    4.94
   0  -5  -5  232.13    4.62
   0  -5  -6  150.91   11.53
   5   0  -6  124.18   10.66
   5   0   6  124.36    8.18
   0  -5   6  126.48    7.44
   0  -5  -6  114.69    7.01
  -5   0  -6  113.64    7.53
   0   5  -6  126.42    9.76
   5   0  -6  117.40    7.20
   0  -5  -6  114.10    8.34
   0  -5  -7   18.77    3.65
   5   0  -7   18.30    4.58
   5   0   7   22.33    4.85
   0  -5  -7   16.78    3.24
  -5   0  -7   24.14    4.70
   0   5  -7   24.14    4.90
   5   0  -7   16.49    2.95
   0  -5  -7   21.61    3.96
   0  -5  -8 1911.96   47.04
   5   0  -8 1854.54   49.51
   5   0   8 2044.51   52.51
   0  -5  -8 1900.25   47.17
  -5   0  -8 1910.78   49.43
   0   5  -8 1938.21   53.22
   5   0  -8 1913.78   46.89
   0  -5  -8 1920.43   47.41
  -5   0   8 1906.75   46.63
   0  -5  -9    9.97    4.04
   5   0  -9   12.01    6.42
   5   0   9   19.54    5.67
   0  -5  -9   15.27    2.96
  -5   0  -9   26.91    4.94
   5   0  -9   15.26    2.79
   0   5  -9   23.98    6.18
  -5   0   9   14.63    2.23
   0  -5 -10  182.21   17.05
   5   0 -10  183.86   18.60
   5   0  10  182.78   16.39
   0  -5  10  155.95   13.87
   0  -5 -10  171.73   14.72
  -5   0 -10  166.01   17.47
   5   0 -10  160.02   13.90
   0   5 -10  170.01   19.02
  -5   0  10  162.21   13.52
   0  -5 -11   12.24    4.76
   5   0 -11   13.44    4.72
   5   0  11   21.58    7.76
   0  -5  11   22.22    7.87
   0  -5 -11   22.90    4.53
  -5   0 -11   25.10    4.46
   5   0 -11   24.99    5.06
   0   5 -11   31.12    6.54
  -5   0  11   11.66    2.56
   0  -5 -12    6.86    4.01
   5   0 -12   -1.17    3.34
   5   0  12    6.76    4.69
   0  -5  12    6.30    3.05
   0  -5 -12    6.35    2.40
  -5   0 -12    5.98    2.75
   5   0 -12    6.64    3.80
   0   5 -12    5.70    2.95
   0  -5 -13    4.03    2.28
   5   0 -13   -0.68    3.86
   5   0  13    1.34    2.56
   0  -5  13    5.16    3.43
   0  -5 -13    1.75    1.51
  -5   0 -13    1.76    2.14
   5   0 -13   -0.25    2.19
   0   5 -13    4.54    3.68
   0  -5 -14   49.21    9.75
   5   0 -14   66.32   11.56
   5   0  14   57.36   15.07
   0  -5  14   53.50   18.78
   0  -5 -14   48.08    6.99
  -5   0 -14   56.05   12.68
   5   0 -14   45.27    7.69
   0   5 -14   50.68   12.75
   0  -5 -15  122.07   16.22
   5   0 -15  127.64   24.58
   5   0  15  126.79   24.04
   0  -5  15  118.45   23.41
   0  -5 -15  140.69   11.25
  -5   0 -15  136.24   11.04
   5   0 -15  125.41    8.95
   0   5 -15  110.24   22.01
   5   0 -16   17.88    5.03
   5   0  16   14.48    3.52
   0  -5  16   13.65    6.93
   0   5  16    3.25    3.15
   0  -5 -16    9.48    2.99
  -5   0 -16    6.51    4.10
   5   0 -16    7.54    3.64
   0   5 -16   20.59    6.65
   5   0 -17   49.43   11.11
   5   0  17   34.95   11.36
   0  -5  17   35.05    6.39
   0   5  17   25.12    6.76
   0  -5 -17   30.19    5.66
  -5   0 -17   38.22    6.94
   5   0 -17   29.67    7.49
   0   5 -17   33.96    8.48
   5   0 -18    7.29    3.28
   5   0  18   18.22    7.22
   0  -5  18    8.41    4.13
   0   5  18    5.45    4.33
   0  -5 -18   11.31    3.55
  -5   0 -18   10.28    4.74
   5   0 -18   14.31    4.19
   0   5 -18    5.23    6.75
   5   0 -19    6.20    1.97
   5   0  19   -2.19    4.96
   0  -5  19   17.58    8.71
   0   5  19    7.66    3.66
   0  -5 -19    6.73    3.36
  -5   0 -19    3.86    3.11
   5   0 -19   20.32   12.10
   0   5 -19    2.84    4.63
   5   0 -20   77.75   18.88
   5   0  20   65.07   19.30
   0  -5  20   61.24   21.85
   0   5  20   61.34   12.98
  -5   0 -20   99.98   14.37
   0   5 -20   59.12   16.38
   5   0 -21   16.79    7.96
   5   0  21   14.32    8.77
   0  -5  21   19.61    4.95
   0   5  21   12.11    3.96
  -5   0 -21   17.58    4.85
   0   5 -21   11.70    3.99
   5  -1   0  151.47    4.47
   5   1   0  177.02    4.69
  -1   5   0  162.11    1.93
  -5   1   0  167.72    3.96
  -1   5   0  164.67    5.82
   1  -5   0  176.73    7.87
  -1  -5   0  163.91    7.40
   1   5   1  187.47    2.28
   5   1  -1  202.76    8.56
   5  -1  -1  173.54    8.05
   5  -1   1  204.19    6.31
   5   1   1  174.19    4.33
   1   5   1  192.42    2.01
  -5  -1  -1  189.86    3.93
  -1   5  -1  192.04    4.61
   1  -5   1  187.68   10.49
   1  -5  -1  205.84    8.11
  -1  -5   1  196.42    5.20
  -1  -5  -1  171.35    8.38
   1  -5  -2  243.74    3.65
   5   1  -2  232.34    5.76
   5  -1  -2  192.60    5.36
   5  -1   2  241.22    4.91
   5   1   2  196.94    4.69
   1  -5   2  200.31    3.34
  -5  -1  -2  233.80    5.58
  -5   1  -2  194.30    8.63
  -1   5  -2  241.24    7.20
   1   5  -2  197.49    6.41
   1  -5  -2  228.03    5.22
  -1  -5   2  238.53    4.20
  -1  -5  -2  197.23    5.44
   1   5  -3  288.81    3.96
   1  -5  -3  291.04    4.67
   5   1  -3  310.56    5.70
   5  -1  -3  297.79    7.73
   5  -1   3  284.55    6.95
   5   1   3  265.82    4.73
   1  -5   3  292.41    3.47
   1   5   3  298.45    4.43
  -5  -1  -3  282.29    5.63
  -5   1  -3  273.28    6.12
  -1   5  -3  298.92   11.98
   1   5  -3  278.15    5.18
   5  -1  -3  292.71    6.11
   1  -5  -3  291.47    6.76
  -1  -5   3  301.41    8.08
  -1  -5  -3  285.36    5.12
   1   5  -4 1188.06   17.33
   1  -5  -4 1123.45   17.71
   5   1  -4 1121.21   17.31
   5  -1  -4 1203.95   18.98
   5  -1   4 1116.75   19.22
   5   1   4 1218.96   18.52
   1  -5   4 1213.93   17.89
   1  -5  -4 1131.27   17.12
  -1  -5  -4 1232.09   19.68
  -5  -1  -4 1081.47   16.91
  -5   1  -4 1236.30   19.36
  -1   5  -4 1123.79   19.16
   1   5  -4 1314.50   21.89
   5  -1  -4 1249.19   17.85
   5   1  -4 1148.14   17.82
   1  -5  -4 1102.47   16.79
  -1  -5   4 1118.59   18.52
  -1  -5  -4 1228.23   19.57
  -1  -5  -5 1733.72   25.04
   1   5  -5 1619.19   23.57
   1  -5  -5 1669.22   25.53
   5   1  -5 1590.37   23.34
   5  -1  -5 1668.63   24.86
   5  -1   5 1661.50   27.81
   5   1   5 1665.79   25.02
   1  -5   5 1687.52   24.28
   1  -5  -5 1710.71   25.69
  -1  -5  -5 1691.41   25.00
  -5  -1  -5 1696.76   26.46
  -5   1  -5 1631.22   24.82
  -1   5  -5 1716.23   28.12
   5  -1  -5 1698.49   23.96
   1   5  -5 1674.39   25.56
   5   1  -5 1651.08   24.07
  -1  -5   5 1701.32   25.34
  -1  -5  -5 1691.21   24.75
  -1  -5  -6  608.96   14.91
   1   5  -6  596.91   15.08
   1  -5  -6  607.23   13.93
   5   1  -6  595.04   14.02
   5  -1  -6  617.54   17.02
   5  -1   6  616.63   14.83
   5   1   6  583.69   14.81
   1  -5   6  593.55   14.37
  -1  -5  -6  583.42   13.61
   1  -5  -6  589.32   13.98
  -5  -1  -6  595.60   16.77
  -5   1  -6  639.74   15.12
  -1   5  -6  594.85   14.29
   5  -1  -6  647.41   14.62
   1   5  -6  594.33   14.61
   5   1  -6  600.58   15.84
  -1  -5   6  610.87   14.96
  -1  -5  -6  601.44   15.26
  -5  -1   6  593.24   13.61
  -1  -5  -7  627.98   16.33
   1   5  -7  605.90   14.85
   1  -5  -7  599.00   15.01
   5   1  -7  707.73   19.80
   5  -1  -7  632.45   15.65
   5  -1   7  635.91   17.01
   5   1   7  614.58   15.08
   1  -5   7  624.12   15.12
  -1  -5  -7  622.43   14.81
   1  -5  -7  610.86   13.93
  -5  -1  -7  605.88   14.82
  -5   1  -7  619.98   17.39
  -1   5  -7  624.98   15.52
   5  -1  -7  650.95   15.92
   1   5  -7  620.39   15.66
   5   1  -7  593.46   15.38
  -1  -5  -7  622.73   15.45
  -5  -1   7  636.28   14.71
  -1  -5  -8  595.86   16.53
   1   5  -8  580.55   15.97
   1  -5  -8  623.34   17.55
   5   1  -8  616.30   18.78
   5  -1  -8  560.97   17.45
   5  -1   8  604.69   22.39
   5   1   8  632.21   18.98
   1  -5   8  557.01   15.30
  -1  -5  -8  593.68   15.79
   1  -5  -8  649.39   16.95
  -5  -1  -8  649.81   21.14
  -5   1  -8  566.87   18.12
   5  -1  -8  581.72   15.41
  -1   5  -8  635.57   22.08
   1   5  -8  562.98   16.66
   5   1  -8  640.38   18.94
  -1  -5   8  615.24   17.65
  -1  -5  -8  559.64   17.02
  -5  -1   8  577.81   14.94
  -1  -5  -9   68.79    7.86
   1   5  -9   71.84    5.46
   1  -5  -9   74.57    9.61
   5   1  -9   67.93    7.30
   5  -1  -9   72.67    6.59
   5  -1   9   79.52    7.88
   5   1   9   84.71   18.58
   1  -5   9   70.94    6.73
  -1  -5  -9   72.18    9.40
   1  -5  -9   67.92    6.65
  -5  -1  -9   56.21   14.03
  -5   1  -9   74.29   14.56
   5  -1  -9   70.98   11.03
  -1   5  -9   91.68   11.47
   1   5  -9   88.76   12.94
   5   1  -9   76.93   12.11
  -1  -5  -9   63.87    4.45
  -5  -1   9   59.42    5.87
  -1  -5 -10  355.23   13.46
   1   5 -10  348.36    9.52
   1  -5 -10  443.33   13.58
   5   1 -10  359.72    9.89
   5  -1 -10  369.25   12.25
   5  -1  10  362.43    9.67
   5   1  10  376.01   10.77
   1  -5  10  360.43   10.18
  -1  -5 -10  356.96   13.15
   1  -5 -10  369.03    8.67
  -5  -1 -10  373.08   11.34
  -5   1 -10  353.52    9.73
   5  -1 -10  369.66    8.20
  -1   5 -10  372.68   11.87
   1   5 -10  358.17   12.38
   5   1 -10  364.97   11.74
  -1  -5 -10  357.43    9.54
  -5  -1  10  358.36    7.00
  -5   1  10  367.52    5.85
  -5  -1 -10  356.71    7.65
  -1  -5 -11  158.09   17.57
   1   5 -11  160.22   10.74
   1  -5 -11  167.44    9.61
   5   1 -11  176.99   18.62
   5  -1 -11  142.00   13.54
   5  -1  11  171.08   10.28
   5   1  11  138.62   11.57
   1  -5  11  147.85   16.06
  -1  -5 -11  150.63   14.50
   1  -5 -11  164.03    9.70
  -5  -1 -11  172.27   17.91
  -5   1 -11  143.15   16.08
   5  -1 -11  141.18   12.80
  -1   5 -11  175.94   15.92
   5   1 -11  169.43    9.16
   1   5 -11  154.08   10.32
  -1  -5 -11  142.00   13.28
  -5  -1  11  139.94   10.12
  -5  -1 -11  167.96   10.63
   1   5 -12  305.66   10.02
   1  -5 -12  278.94   13.97
   5   1 -12  270.34   15.34
   5  -1 -12  325.64   10.93
   5  -1  12  267.44   18.48
   5   1  12  294.97   10.07
   1  -5  12  305.12   10.26
  -1  -5 -12  312.74   10.19
   1  -5 -12  279.05    7.87
  -5  -1 -12  282.75    9.57
  -5   1 -12  318.97   11.27
   5  -1 -12  311.94    9.27
  -1   5 -12  261.89   19.51
   5   1 -12  272.84   11.82
   1   5 -12  296.57   12.01
  -5  -1 -12  281.73    7.85
   1   5 -13   19.48    5.14
   1  -5 -13   15.33    5.36
   5   1 -13   15.18    3.58
   5  -1 -13   17.01    6.40
   5  -1  13   16.41    3.80
   5   1  13   20.83    4.70
   1  -5  13   33.70    6.06
   1   5  13   10.92    5.52
  -1  -5 -13   15.67    4.15
   1  -5 -13    8.48    2.95
  -5  -1 -13    7.81    3.06
  -5   1 -13   22.07    5.30
   5  -1 -13   15.10    5.19
  -1   5 -13   10.42    5.10
   5   1 -13   13.29    2.87
   1   5 -13   14.40    5.46
   1  -5 -14  104.20   21.24
   5   1 -14   91.54   18.73
   5  -1 -14  103.99   20.89
   5  -1  14  116.58    7.48
   5   1  14   93.79   12.82
   1  -5  14   86.74    9.84
   1   5  14  120.56   21.61
  -1  -5 -14   98.18    9.16
   1  -5 -14  108.82   16.30
  -5  -1 -14  112.42   10.00
  -5   1 -14   92.84   20.26
   5  -1 -14   86.81   15.97
  -1   5 -14  122.66   13.24
   5   1 -14  103.37   14.31
   1   5 -14   99.13   16.65
   1  -5 -15    7.74    5.23
   5   1 -15   12.38    3.26
   5  -1 -15   35.59    6.14
   5  -1  15   14.58    4.00
   5   1  15   19.35    5.51
   1  -5  15   20.60    5.54
   1   5  15   11.32    4.44
  -1  -5  15   21.41    5.23
  -1  -5 -15   20.59    4.20
   1  -5 -15   21.10    5.23
  -5  -1 -15    9.81    3.80
  -5   1 -15   24.10    7.45
   5  -1 -15   18.52    4.12
  -1   5 -15   14.35    5.98
   5   1 -15   14.38    3.27
   1   5 -15   10.00    2.56
   1  -5 -16  188.30   24.31
   5   1 -16  183.64   18.43
   5  -1 -16  159.98   23.61
   5  -1  16  195.78   22.95
   5   1  16  168.15   26.95
   1  -5  16  376.46   30.83
   1   5  16  173.79   25.13
  -1  -5  16  192.93   25.69
  -1  -5 -16  189.81   17.46
   1  -5 -16  183.63   17.00
  -5  -1 -16  198.88   21.86
  -5   1 -16  160.47   15.76
   5  -1 -16  173.85   15.60
  -1   5 -16  176.28   23.68
   5   1 -16  187.04   23.98
   1   5 -16  153.42   32.00
   1  -5 -17   32.44    7.35
   5   1 -17  197.48   39.51
   5  -1 -17   28.81    6.09
   5  -1  17   34.11    7.67
   5   1  17    8.48    7.61
   1  -5  17   37.88    9.15
   1   5  17   31.71   11.12
  -1  -5  17   20.51    9.14
  -1  -5 -17   37.12    6.25
   1  -5 -17   26.94    6.89
  -5  -1 -17   40.18    7.40
  -5   1 -17   33.44    8.24
   5  -1 -17   24.59    6.27
  -1   5 -17   27.95    8.20
   5   1 -17   41.50    6.95
   1   5 -17   26.06    8.94
   5   1 -18   30.86    6.89
   5  -1 -18   51.70   10.85
   5  -1  18   27.74    3.76
   5   1  18   27.32    7.04
   1  -5  18   40.14   11.47
   1   5  18   29.85    8.49
  -1  -5  18   26.93   10.06
  -1  -5 -18   56.10    7.72
   1  -5 -18   34.54    5.69
  -5  -1 -18   35.35    7.20
  -5   1 -18   46.40   11.04
   5  -1 -18   31.15    8.56
  -1   5 -18   33.81    9.78
   5   1 -18   23.11    7.66
   1   5 -18   32.76    9.92
   5   1 -19    4.03    4.29
   5  -1 -19    5.48    2.45
   5  -1  19    4.07    4.79
   5   1  19    9.95    5.10
   1  -5  19    8.52    6.49
   1   5  19    2.39    2.23
  -1  -5  19    4.97    2.86
  -1   5  19    5.58    4.60
  -1  -5 -19    1.67    2.14
  -5  -1 -19    4.36    3.31
  -5   1 -19    3.31    3.93
  -1   5 -19    4.04    3.29
   5   1 -19    5.64    1.93
   1   5 -19    2.84    3.25
   5   1 -20   58.66   11.37
   5  -1 -20   45.26    9.43
   5  -1  20   43.21   11.75
   5   1  20   52.45   13.84
   1  -5  20   37.38   14.20
   1   5  20   57.61   11.70
  -1  -5  20   36.12   14.82
  -1   5  20   40.63   11.70
  -1  -5 -20   44.45    8.11
  -5  -1 -20   56.69   10.58
  -5   1 -20   59.16   18.98
   5   1 -20   39.93   11.18
  -1   5 -20   32.97   15.21
   1   5 -20   41.15   15.55
   5   1 -21    7.37    4.41
   5  -1 -21    2.90    2.82
   5  -1  21   14.13    5.64
   5   1  21    3.77    4.35
   1  -5  21    0.95    3.27
   1   5  21    3.58    4.88
  -1  -5  21    4.40    3.59
  -1   5  21    4.70    1.89
  -1  -5 -21   10.66    4.80
  -5  -1 -21   10.25    3.92
  -5   1 -21    7.23    3.12
  -1   5 -21    3.36    3.44
   1   5 -21    2.17    4.38
  -1  -5  22   11.82    6.22
   2   5   0  402.15   19.11
   2  -5   0  397.26    4.54
   5  -2   0  383.05    5.40
   5   2   0  409.22   21.01
  -2  -5   0  422.02   20.02
  -5   2   0  402.64   19.36
  -2   5   0  455.42    9.37
  -2  -5   0  414.29   20.65
   2  -5  -1  390.36    5.03
   5   2  -1  389.26    4.88
   5  -2  -1  481.42   12.91
   5  -2   1  388.53    6.65
   5   2   1  459.98    9.43
  -2  -5   1  394.86    3.42
   2   5   1  387.96    4.51
  -2  -5  -1  433.59    6.43
  -5  -2  -1  397.72    5.78
  -5   2   1  385.96    3.24
  -5   2  -1  449.35    7.49
  -2   5  -1  377.98    5.87
  -2   5   1  467.12    9.08
  -2  -5   1  388.19    5.96
  -2  -5  -1  445.26    9.30
   2   5  -2 3319.78   44.93
   2  -5  -2 3278.54   44.77
   5   2  -2 3239.00   44.96
   5  -2  -2 3149.55   44.45
   5  -2   2 3236.70   45.08
   5   2   2 3398.91   47.14
   2   5   2 3311.45   44.95
   5  -2  -2 3318.88   44.79
  -5   2  -2 3238.15   44.35
  -2   5  -2 3335.68   46.52
   2   5  -2 3283.72   46.10
  -2  -5   2 3217.80   44.69
  -2  -5  -2 3280.15   45.63
  -5  -2   2 3285.32   45.49
   2   5  -3  265.50    4.86
   2  -5  -3  235.47    3.54
   5   2  -3  236.99    9.51
   5  -2  -3  246.85    5.38
   5  -2   3  246.18    7.16
   5   2   3  257.95    5.99
   2  -5   3  239.63    3.49
   2   5   3  245.60    4.15
   5  -2  -3  233.88    2.25
  -5  -2  -3  227.15    4.19
  -5   2  -3  246.70    6.11
  -2   5  -3  246.35    5.08
   2   5  -3  255.17    5.14
  -2  -5   3  264.32    8.62
  -2  -5  -3  255.16    5.51
  -5  -2   3  233.46    5.39
   2   5  -4  136.31    5.75
   2  -5  -4  138.69    3.33
   5   2  -4  146.15    6.30
   5  -2  -4  135.46   11.27
   5  -2   4  139.96    4.52
   5   2   4  147.00    5.46
   2  -5   4  143.49    5.58
   2   5   4  141.92    3.44
  -2  -5  -4  132.46    3.96
  -5  -2  -4  148.82    4.00
  -5   2  -4  143.76    4.17
  -2   5  -4  151.19    4.64
   2   5  -4  137.35    5.55
   5   2  -4  143.05   11.35
  -2  -5   4  137.97    4.18
  -2  -5  -4  135.60    3.88
  -5  -2   4  129.01    5.28
   2   5  -5 1770.16   37.94
   2  -5  -5 1541.17   23.96
   5   2  -5 1535.02   25.42
   5  -2  -5 1495.28   32.33
   5  -2   5 1584.51   27.22
   5   2   5 1512.24   24.31
   2  -5   5 1510.84   32.25
   2   5   5 1610.54   24.04
  -2  -5  -5 1496.54   32.77
  -5  -2  -5 1722.52   25.96
  -5   2  -5 1543.60   35.08
  -2   5  -5 1623.56   27.71
   5  -2  -5 1497.54   21.08
   2   5  -5 1557.14   26.59
   5   2  -5 1577.49   23.48
  -2  -5   5 1574.47   23.28
  -2  -5  -5 1546.29   33.46
  -5  -2   5 1482.93   23.59
   2   5  -6  559.56   13.93
   2  -5  -6  502.93   11.79
   5   2  -6  508.76   14.05
   5  -2  -6  532.18   12.97
   5  -2   6  538.31   17.99
   5   2   6  550.30   14.05
   2  -5   6  564.39   13.37
   2   5   6  509.19   16.23
  -2  -5  -6  531.38   12.64
   2  -5  -6  512.80   11.57
  -5  -2  -6  519.07   13.77
  -5   2  -6  550.64   16.30
   5  -2  -6  549.14   12.13
  -2   5  -6  515.93   13.77
   2   5  -6  538.46   13.52
   5   2  -6  520.16   15.13
  -2  -5   6  510.65   12.65
  -2  -5  -6  579.86   14.78
  -5  -2   6  549.55   12.85
  -5  -2  -6  499.23   11.93
   2   5  -7  243.97   12.77
   2  -5  -7  222.54   11.87
   5   2  -7  221.05   11.90
   5  -2  -7  250.14   14.18
   5  -2   7  227.95   18.36
   5   2   7  235.97   12.71
   2  -5   7  238.21   12.94
   2   5   7  215.96   11.73
  -2  -5  -7  233.28   12.33
   2  -5  -7  219.08   11.56
  -5  -2  -7  214.90   11.65
  -5   2  -7  220.24   11.67
   5  -2  -7  239.25   11.96
  -2   5  -7  234.16   12.78
   2   5  -7  232.19   13.87
   5   2  -7  205.87   11.25
  -2  -5   7  236.44   12.78
  -2  -5  -7  220.83   11.25
  -5  -2   7  220.24   11.31
  -5  -2  -7  206.83   11.34
   2   5  -8  121.12    4.56
   2  -5  -8  148.45    7.68
   5   2  -8  131.78   10.46
   5  -2  -8  117.29   16.96
   5  -2   8  141.72   11.39
   5   2   8  125.47    6.40
   2  -5   8  124.73    5.70
   2   5   8  147.84   11.19
  -2  -5  -8  111.90    4.28
   2  -5  -8  155.23    6.99
  -5  -2  -8  150.72   15.82
  -5   2  -8  109.44    9.71
   5  -2  -8  124.94    4.93
  -2   5  -8  159.89   12.73
   2   5  -8  133.12   24.33
   5   2  -8  154.59   14.71
  -2  -5   8  141.03    4.61
  -2  -5  -8  121.75    5.13
  -5  -2   8  126.30    5.67
  -5  -2  -8  151.03    4.60
   2   5  -9   73.41   11.00
   2  -5  -9   73.85   15.66
   5   2  -9   64.15    5.42
   5  -2  -9   44.64   12.02
   5  -2   9   67.91   14.08
   5   2   9   55.88   10.95
   2  -5   9   56.94   11.21
   2   5   9   59.41   13.20
  -2  -5  -9   48.32   10.95
   2  -5  -9   64.18    5.68
  -5  -2  -9   58.79   12.86
  -5   2  -9   46.46   13.97
   5  -2  -9   46.35    8.50
  -2   5  -9   61.93    6.71
   2   5  -9   62.89   12.26
   5   2  -9   77.06   10.49
  -2  -5   9   64.48    3.61
  -2  -5  -9   48.93    2.97
  -5  -2   9   43.95    5.59
  -5  -2  -9   63.37    6.28
   2   5 -10  792.21   17.27
   2  -5 -10  822.34   14.94
   5   2 -10  870.41   18.54
   5  -2 -10  854.16   18.77
   5  -2  10  817.85   17.32
   5   2  10  877.34   18.28
   2  -5  10  834.13   15.46
   2   5  10  816.60   18.88
  -2  -5 -10  821.29   15.25
   2  -5 -10  845.22   14.11
  -5  -2 -10  851.99   19.80
  -5   2 -10  821.38   20.05
   5  -2 -10  859.63   14.33
  -2   5 -10  816.13   19.94
   2   5 -10  862.73   18.35
   5   2 -10  842.53   26.49
  -2  -5 -10  831.52   12.76
  -5  -2  10  849.85   13.79
  -5  -2 -10  942.33   15.22
   2   5 -11  251.12   12.83
   2  -5 -11  299.95   16.07
   5   2 -11  302.09   13.55
   5  -2 -11  237.78   11.92
   5  -2  11  307.72   14.25
   5   2  11  256.08   13.15
   2  -5  11  244.59   16.14
   2   5  11  297.21   14.43
  -2  -5 -11  242.40   11.76
   2  -5 -11  306.75   12.84
  -5  -2 -11  308.48   14.18
  -5   2 -11  264.62   17.77
   5  -2 -11  243.36   14.15
  -2   5 -11  287.73   19.43
   5   2 -11  294.00   17.14
   2   5 -11  244.51   18.00
  -2  -5 -11  244.23   10.83
  -5  -2  11  251.06   10.86
  -5  -2 -11  292.25   12.13
   2   5 -12   60.52   11.75
   2  -5 -12   66.67   13.84
   5   2 -12   67.80   12.69
   5  -2 -12   50.27   12.30
   5  -2  12   72.68    8.13
   5   2  12   52.16   10.58
   2  -5  12   63.46   12.86
   2   5  12   66.56   14.26
  -2  -5 -12   60.52   11.22
   2  -5 -12   74.78   10.52
  -5  -2 -12   73.10   14.50
  -5   2 -12   55.33   13.26
   5  -2 -12   53.35    9.49
  -2   5 -12   79.17   16.25
   2   5 -12   61.85   16.61
   5   2 -12   73.45   14.36
  -5  -2 -12   60.47    7.36
   2   5 -13   45.44    5.54
   2  -5 -13   36.58    6.46
   5   2 -13   39.20    7.41
   5  -2 -13   32.71    9.01
   5  -2  13   50.94   11.63
   5   2  13   46.34   11.45
   2  -5  13   43.94   10.55
   2   5  13   21.31    4.87
  -2  -5 -13   44.47    7.13
   2  -5 -13   25.35    5.33
  -5  -2 -13   36.66    9.14
  -5   2 -13   47.94   10.12
   5  -2 -13   38.57    7.23
  -2   5 -13   30.78    9.14
   5   2 -13   29.14    5.34
   2   5 -13   42.40    7.67
   2   5 -14  422.47   13.61
   2  -5 -14  396.53   14.35
   5   2 -14  454.42   16.09
   5  -2 -14  438.25   19.02
   5  -2  14  452.18   15.95
   5   2  14  390.34   26.52
   2  -5  14  423.40   14.98
   2   5  14  437.06   18.32
  -2  -5 -14  412.49   12.82
   2  -5 -14  437.58   12.05
  -5  -2 -14  430.42   12.55
  -5   2 -14  411.72   13.67
   5  -2 -14  420.98   14.13
  -2   5 -14  440.46   13.41
   5   2 -14  432.00   12.00
   2   5 -14  434.33   15.97
   2   5 -15   41.53    7.65
   2  -5 -15   37.02    8.11
   5   2 -15   32.90    7.03
   5  -2 -15   29.13    6.67
   5  -2  15   25.62    7.17
   5   2  15   38.24    9.70
   2  -5  15   41.34    6.68
   2   5  15   26.46    5.42
  -2  -5 -15   38.07    6.12
   2  -5 -15   33.78    4.90
  -5  -2 -15   31.82    6.57
  -5   2 -15   38.57    8.72
   5  -2 -15   62.81   15.70
  -2   5 -15   20.98    5.54
   5   2 -15   16.48    4.78
   2   5 -15   43.83    8.87
   2   5 -16   32.49   10.42
   2  -5 -16   28.76    7.55
   5   2 -16   38.31    7.35
   5  -2 -16   36.87    6.99
   5  -2  16   28.18    5.33
   5   2  16   29.20    6.97
   2  -5  16   37.07    8.71
   2   5  16   30.19    6.89
  -2  -5 -16   31.92    6.95
   2  -5 -16   29.31    3.90
  -5  -2 -16   33.37    7.62
  -5   2 -16   31.94    7.22
   5  -2 -16   30.08    6.14
  -2   5 -16   29.55    9.94
   5   2 -16   24.14    7.01
   2   5 -16   37.35   10.52
   2  -5 -17   36.86    8.50
   5   2 -17   50.40    9.34
   5  -2 -17   50.94   10.06
   5  -2  17   39.14    8.71
   5   2  17   43.01   12.41
   2  -5  17   44.92   11.27
   2   5  17   37.96   10.64
  -2  -5 -17   54.80    9.14
   2  -5 -17   40.31    6.66
  -5  -2 -17   50.07    6.70
  -5   2 -17   39.02   10.69
  -2   5 -17   29.21    8.36
   5   2 -17   27.41   11.12
   2   5 -17   41.67    8.48
   2  -5 -18   94.67   18.46
   5   2 -18  104.99   17.78
   5  -2 -18  117.10   19.23
   5  -2  18  100.42   21.06
   5   2  18   95.51    9.69
   2  -5  18  123.21   13.61
   2   5  18  112.41   18.22
  -2  -5  18   90.58   22.02
  -2  -5 -18  127.93   18.63
  -5  -2 -18  110.49   18.12
  -5   2 -18  107.36   22.89
  -2   5 -18   96.06   20.13
   5   2 -18  115.40    7.58
   2   5 -18   97.68   22.97
   2  -5 -19    2.72    2.80
   5   2 -19   13.85    3.57
   5  -2 -19   11.11    3.87
   5  -2  19    3.91    3.26
   5   2  19    2.42    2.61
   2  -5  19    6.48    4.62
   2   5  19   15.35    4.55
  -2  -5  19    6.11    4.72
  -2  -5 -19   12.32    3.82
  -5  -2 -19    4.60    4.77
  -5   2 -19    9.30    3.65
  -2   5 -19   11.68    4.58
   5   2 -19    5.52    2.40
   2   5 -19   12.72    5.70
   5   2 -20    2.60    2.81
   5  -2 -20    7.44    4.45
   5  -2  20    3.22    4.31
   5   2  20    7.29    6.62
   2  -5  20    6.76    3.21
   2   5  20    7.65    7.51
  -2  -5  20    4.37    3.94
  -2   5  20    7.15    3.05
  -2  -5 -20    9.56    3.78
  -5  -2 -20   -2.01    3.66
  -5   2 -20    6.67    2.83
  -2   5 -20   -1.01    4.49
   5   2 -20    7.58    4.25
   2   5 -20    5.11    4.73
   5   2 -21   22.37    6.89
   5  -2 -21   11.49    5.40
   5  -2  21    7.51    5.03
   5   2  21    9.80    5.52
   2  -5  21    8.41    4.47
   2   5  21   22.94    7.82
  -2  -5  21   15.63    7.98
  -2   5  21    8.57    5.10
  -2  -5 -21   12.62    4.28
  -5  -2 -21   13.65    5.08
  -5   2 -21    9.20    4.71
  -2   5 -21   16.61    6.41
   5   2 -21   11.54    5.72
   2   5 -21    5.88    5.13
  -2  -5 -22   27.65   12.85
   3  -5   0  256.23    4.11
   3   5   0  248.70    3.34
   5  -3   0  240.54    4.77
   5   3   0  254.65    5.65
  -5   3   0  265.39    2.98
  -3   5   0  262.64    4.19
  -3  -5   0  241.39    4.54
  -5  -3   0  245.53    4.55
   3   5  -1  346.65    3.16
   3  -5  -1  375.27    4.59
   5   3  -1  375.25    5.66
   5  -3  -1  337.29    5.48
   3  -5   1  358.60    4.80
   5  -3   1  371.76    5.62
   5   3   1  328.94    5.15
   3   5   1  389.80    5.51
  -5   3   1  401.66   19.16
  -5   3  -1  340.66    4.26
   5  -3  -1  338.00    3.07
  -3   5  -1  386.01    5.70
  -3   5   1  330.62    4.40
  -3  -5   1  387.76    6.61
  -3  -5  -1  349.23    6.64
  -5  -3   1  346.47    7.60
  -5  -3  -1  361.11    5.38
   3   5  -2  664.13   10.42
   3  -5  -2  637.72   10.53
   5   3  -2  646.16   10.95
   5  -3  -2  643.03   10.88
   5  -3   2  642.06   11.84
   3  -5   2  632.00   11.20
   5   3   2  649.60   11.58
   3   5   2  630.89    9.74
  -5  -3  -2  625.90   11.09
  -5   3  -2  662.05   10.79
   5  -3  -2  664.59    9.20
  -3   5  -2  627.24   11.95
  -3   5   2  646.98    9.71
  -3  -5   2  618.53   11.72
  -3  -5  -2  674.14   11.22
  -5  -3   2  740.52   13.45
  -5  -3  -2  609.97   10.45
   3   5  -3 1059.57   16.37
   3  -5  -3 1119.14   17.05
   5   3  -3 1103.83   17.48
   5  -3  -3 1040.32   16.30
   5  -3   3 1143.91   18.69
   3  -5   3 1055.22   16.61
   5   3   3 1070.26   18.04
   3   5   3 1203.66   18.24
  -3  -5  -3 1049.35   16.05
  -3   5   3 1023.24   14.26
  -5   3  -3 1051.31   16.39
  -3   5  -3 1199.44   19.46
   3   5  -3 1040.25   19.95
  -3  -5   3 1129.65   19.67
  -3  -5  -3 1028.30   15.71
  -5  -3   3 1039.98   16.50
  -5  -3  -3 1105.57   17.64
   3   5  -4  158.41    4.19
   3  -5  -4  133.14    5.23
   5   3  -4  144.66    3.94
   5  -3  -4  171.67    5.02
   5   3   4  169.94    4.15
   3  -5   4  180.23    4.08
   3   5   4  134.31    5.54
  -3  -5  -4  159.04    6.26
  -5  -3  -4  143.55    4.11
  -5   3  -4  163.59    5.78
   5  -3  -4  163.43    1.53
  -3   5  -4  144.36    4.70
   3   5  -4  171.14    6.04
   5   3  -4  149.79    5.48
  -3  -5   4  126.31    6.63
  -3  -5  -4  159.86    4.56
  -5  -3   4  178.23    4.06
  -5  -3  -4  141.35    4.46
   3   5  -5  603.38   14.40
   3  -5  -5  592.80   14.13
   5   3  -5  615.21   14.34
   5  -3  -5  590.67   14.22
   5  -3   5  602.98   16.31
   5   3   5  606.82   14.94
   3  -5   5  579.56   13.48
   3   5   5  618.55   15.56
  -3  -5  -5  635.43   15.82
  -5  -3  -5  594.51   15.95
  -3   5  -5  608.44   15.16
   3   5  -5  595.32   14.63
   5   3  -5  608.11   16.19
  -3  -5   5  634.94   15.31
  -3  -5  -5  592.31   13.58
  -5  -3   5  581.58   14.44
  -5  -3  -5  617.75   15.14
   3   5  -6 2500.81   52.33
   3  -5  -6 2624.42   56.60
   5   3  -6 2740.23   58.56
   5  -3  -6 2427.51   51.97
   5  -3   6 2594.03   56.36
   5   3   6 2624.30   55.83
   3  -5   6 2607.23   56.58
   3   5   6 2608.69   54.60
  -3  -5  -6 2557.56   55.19
   3  -5  -6 2500.51   51.90
  -5  -3  -6 2561.94   55.96
  -5   3  -6 2890.24   61.11
  -3   5  -6 2543.37   55.64
   3   5  -6 2595.23   55.42
   5   3  -6 2607.99   55.36
  -3  -5   6 2562.73   54.77
  -3  -5  -6 2570.40   54.06
  -5  -3   6 2516.26   53.79
  -5  -3  -6 2686.55   56.46
   3   5  -7  206.22   11.64
   3  -5  -7  219.98   11.81
   5   3  -7  215.12   14.08
   5  -3  -7  238.60   13.46
   5  -3   7  218.90   11.88
   5   3   7  208.78   12.42
   3  -5   7  200.97   11.20
   3   5   7  211.76   11.44
  -3  -5  -7  210.06   11.15
   3  -5  -7  225.50   11.96
  -5  -3  -7  247.80   13.49
  -5   3  -7  237.35   12.95
   5  -3  -7  221.81   11.25
  -3   5  -7  207.53   11.67
   3   5  -7  212.78   13.55
   5   3  -7  221.34   12.53
  -3  -5   7  220.36   12.73
  -3  -5  -7  201.92   12.79
  -5  -3   7  191.34   10.05
  -5  -3  -7  217.72   11.21
   3   5  -8  238.10    8.10
   3  -5  -8  183.31    7.40
   5   3  -8  188.76   11.19
   5  -3  -8  206.24    8.63
   5  -3   8  201.16   11.76
   5   3   8  201.34    7.72
   3  -5   8  212.17    5.86
   3   5   8  186.49    5.36
  -3  -5  -8  203.38    9.54
  -5  -3  -8  195.98    6.70
   3  -5  -8  189.52    5.10
  -5   3  -8  250.08   15.40
   5  -3  -8  214.31    4.08
  -3   5  -8  191.39    7.25
   3   5  -8  200.00   19.72
   5   3  -8  190.06    7.40
  -3  -5   8  194.11    5.67
  -3  -5  -8  197.65    5.26
  -5  -3   8  201.81    5.45
  -5  -3  -8  197.11    6.96
   3   5  -9  355.87   15.74
   3  -5  -9  358.84   11.51
   5   3  -9  348.30   12.25
   5  -3  -9  366.14   13.02
   5  -3   9  355.65   13.05
   5   3   9  354.24   11.45
   3  -5   9  359.76   16.49
   3   5   9  354.57   11.38
  -3  -5  -9  379.54   12.74
  -5  -3  -9  376.87   13.53
   3  -5  -9  366.60   12.09
   5  -3  -9  358.91   10.27
  -3   5  -9  359.67   12.98
   3   5  -9  345.96   14.14
   5   3  -9  346.08   13.82
  -3  -5   9  340.94   11.88
  -3  -5  -9  360.58   11.49
  -5  -3   9  357.07   10.79
  -5  -3  -9  368.82   10.73
   3   5 -10  521.15   15.37
   3  -5 -10  533.04   18.58
   5   3 -10  553.55   15.23
   5  -3 -10  513.79   14.75
   5  -3  10  529.43   11.36
   5   3  10  507.86   16.40
   3  -5  10  509.65   14.31
   3   5  10  594.23   18.35
  -3  -5 -10  539.68   11.34
  -5  -3 -10  581.42   14.28
   3  -5 -10  532.18    9.63
  -5   3 -10  586.79   22.17
   5  -3 -10  507.39    9.69
  -3   5 -10  527.97   14.70
   3   5 -10  507.97   15.43
   5   3 -10  555.66   20.14
  -3  -5  10  536.84   14.35
  -3  -5 -10  529.74   12.61
  -5  -3  10  491.24   10.21
  -5  -3 -10  544.58   10.45
   3   5 -11   55.33    8.11
   3  -5 -11   60.25   13.47
   5   3 -11   54.76   10.34
   5  -3 -11   52.26   12.17
   5  -3  11   61.34   11.57
   5   3  11   56.66    9.66
   3  -5  11   63.18   13.52
   3   5  11   61.47   12.99
  -3  -5 -11   53.62    8.40
  -5  -3 -11   52.71   11.10
   3  -5 -11   57.43    7.41
  -5   3 -11   57.57   10.70
   5  -3 -11   59.91    9.15
  -3   5 -11   58.71   11.84
   3   5 -11   68.13   11.72
   5   3 -11   54.39    8.05
  -3  -5  11   57.76    6.57
  -3  -5 -11   50.29    4.31
  -5  -3  11   54.17    5.66
  -5  -3 -11   50.38    7.63
   3   5 -12  131.87    9.80
   3  -5 -12  100.54   17.47
   5   3 -12  114.39   11.78
   5  -3 -12  111.63    9.83
   5  -3  12  112.90    8.43
   5   3  12  131.51   14.80
   3  -5  12  134.55    9.81
   3   5  12  115.82   10.34
  -3  -5 -12  135.30    6.22
  -5  -3 -12  110.09    9.87
   3  -5 -12  111.36    8.69
  -5   3 -12  124.96    9.28
   5  -3 -12  139.33   10.67
  -3   5 -12  119.74    7.46
   3   5 -12  129.29    8.30
   5   3 -12  102.25   13.41
  -5  -3 -12   99.53    6.97
   3   5 -13  236.09   15.66
   3  -5 -13  260.23   22.86
   5   3 -13  273.12   16.50
   5  -3 -13  238.28   25.42
   5  -3  13  272.02   13.63
   5   3  13  262.09   14.94
   3  -5  13  262.85   13.84
   3   5  13  273.43   12.87
  -3  -5 -13  288.17   14.70
  -5  -3 -13  284.62   13.61
   3  -5 -13  253.96   14.24
  -5   3 -13  257.35   15.44
   5  -3 -13  273.13   12.28
  -3   5 -13  274.54   22.96
   5   3 -13  295.02   13.63
   3   5 -13  254.19   22.82
   3   5 -14   19.17    6.02
   3  -5 -14   33.02    7.84
   5   3 -14   21.13    7.57
   5  -3 -14   31.07    9.09
   5  -3  14   20.01    6.12
   5   3  14   29.06    8.28
   3  -5  14   22.69    5.59
   3   5  14   25.86    6.60
  -3  -5 -14   15.65    5.41
  -5  -3 -14   28.99    6.68
   3  -5 -14   25.38    3.70
   5  -3 -14   12.02    3.40
  -5   3 -14   18.44    5.66
  -3   5 -14   12.26    6.21
   5   3 -14   30.09    6.33
   3   5 -14   22.56    5.38
   3   5 -15  174.50    9.88
   3  -5 -15  208.27   23.84
   5   3 -15  298.18   18.96
   5  -3 -15  170.72   15.47
   5  -3  15  208.44   18.94
   5   3  15  173.85   20.72
   3  -5  15  187.90   15.85
   3   5  15  202.46    7.92
  -3  -5 -15  192.59   20.21
  -5  -3 -15  240.47    9.70
   3  -5 -15  218.37   13.65
   5  -3 -15  182.11   10.63
  -5   3 -15  174.53   14.13
  -3   5 -15  206.95   19.55
   5   3 -15  211.03   15.99
   3   5 -15  184.62   20.00
   3   5 -16   10.31    5.64
   3  -5 -16    4.74    2.83
   5   3 -16   15.13    7.22
   5  -3 -16    4.13    3.13
   5  -3  16    7.56    2.87
   5   3  16    1.94    3.10
   3  -5  16    9.91    2.92
   3   5  16    7.18    3.07
  -3  -5 -16    5.64    2.92
  -5  -3 -16   19.17    3.86
  -5   3 -16    2.85    4.67
  -3   5 -16    8.38    4.89
   5   3 -16   16.84    3.89
   3   5 -16    9.88    3.18
   3   5 -17   43.44    9.71
   3  -5 -17   33.71   10.46
   5   3 -17   46.30   12.02
   5  -3 -17   35.73    8.54
   5  -3  17   38.31   10.74
   5   3  17   38.39    9.41
   3  -5  17   36.59    8.70
   3   5  17   39.54    8.43
  -3  -5 -17   50.49    7.38
  -5  -3 -17   51.35   10.86
  -5   3 -17   35.43    8.21
  -3   5 -17   32.81   11.16
   5   3 -17   40.80    8.19
   3   5 -17   36.55    9.15
   3   5 -18   80.00   19.65
   3  -5 -18   95.07   22.63
   5   3 -18   98.03   26.67
   5  -3 -18   93.76   23.62
   5  -3  18  110.14   23.75
   5   3  18   88.23   19.19
   3  -5  18  113.33   15.85
   3   5  18   97.49   22.24
  -3  -5 -18  108.46   13.72
  -5  -3 -18  127.09   20.93
  -5   3 -18  104.96   16.10
  -3   5 -18  102.68   20.08
   5   3 -18   77.29   17.09
   3   5 -18   86.74   21.89
   3  -5 -19    6.95    4.58
   5   3 -19   11.37    5.27
   5  -3 -19    9.72    4.71
   5  -3  19    8.32    3.20
   5   3  19    5.99    6.19
   3  -5  19   11.50    6.68
   3   5  19    4.72    4.25
  -3  -5  19    8.53    4.13
  -3  -5 -19    5.32    1.92
  -5  -3 -19   12.13    6.52
  -5   3 -19    7.12    4.11
  -3   5 -19   11.14    5.02
   5   3 -19    5.98    5.12
   3   5 -19    1.79    5.06
   3  -5 -20   32.52   10.51
   5   3 -20   25.15    8.97
   5  -3 -20   36.08   11.75
   5  -3  20   32.46   12.82
   5   3  20   34.65   10.31
   3  -5  20   24.40   11.85
   3   5  20   41.25    6.57
  -3  -5  20   28.89   11.08
  -3  -5 -20   50.45   11.56
  -5  -3 -20   39.28    6.90
  -5   3 -20   31.29    6.75
  -3   5 -20   49.23    7.44
   5   3 -20   36.88    9.47
   3   5 -20   30.88    7.97
   5   3 -21    4.75    3.21
   5  -3 -21   -3.90    3.97
   5  -3  21    3.58    3.29
   5   3  21   -0.11    5.38
   3  -5  21    0.79    3.51
   3   5  21   -3.56    3.92
  -3  -5  21   -0.44    4.85
  -3  -5 -21   -2.04    3.29
  -5  -3 -21    1.20    3.18
  -5   3 -21    3.44    4.57
  -3   5 -21    1.83    3.97
   5   3 -21    2.40    3.40
   3   5 -21    3.85    3.82
  -3  -5 -22   34.54    6.38
   4  -5   0 3161.41   43.72
   4   5   0 3201.79   44.33
   5  -4   0 3200.83   45.85
   5   4   0 3186.03   44.08
  -5   4   0 3208.26   43.51
  -4   5   0 3259.53   44.32
  -4  -5   0 3272.69   46.74
  -5  -4   0 3262.00   46.03
   4   5  -1  209.46    3.77
   4  -5  -1  213.35    5.14
   5   4  -1  223.48    4.42
   5  -4  -1  247.97    5.73
   4  -5   1  221.75    6.59
   5  -4   1  231.87    9.02
   5   4   1  222.00    7.60
   4   5   1  225.29    3.90
  -5   4   1  228.78    2.13
  -5   4  -1  205.66    3.91
  -4   5   1  207.47    2.60
  -4   5  -1  230.23    4.65
   5  -4  -1  223.29    2.97
  -4  -5   1  215.65    8.38
  -4  -5  -1  229.21    5.01
  -5  -4   1  215.16    4.91
  -5  -4  -1  218.13    5.14
   4   5  -2 1177.32   18.05
   4  -5  -2 1168.54   17.84
   5   4  -2 1174.35   17.77
   5  -4  -2 1208.64   19.75
   5  -4   2 1161.36   21.16
   4  -5   2 1221.70   18.86
   5   4   2 1220.61   18.18
   4   5   2 1168.71   17.40
  -4   5   2 1241.89   16.87
  -5   4  -2 1177.84   17.62
  -4   5   2 1189.98   16.15
  -4   5  -2 1170.20   18.16
  -4  -5   2 1160.09   18.11
  -4  -5  -2 1246.28   18.78
  -5  -4   2 1202.88   18.78
  -5  -4  -2 1186.94   19.74
   4   5  -3  292.06    4.45
   4  -5  -3  316.39    7.23
   5   4  -3  294.23    7.18
   5  -4  -3  319.61    9.52
   5  -4   3  309.03    7.00
   4  -5   3  299.67    8.25
   5   4   3  296.23    5.48
   4   5   3  329.42    6.51
  -4  -5  -3  312.71    6.35
  -5  -4  -3  328.46    7.29
  -5   4  -3  293.56    6.04
  -4   5  -3  305.05    4.84
   4   5  -3  296.11    6.99
  -4  -5   3  316.94    8.54
  -4  -5  -3  320.37    6.13
  -5  -4   3  300.74    6.03
  -5  -4  -3  320.28    5.63
   4   5  -4 1257.30   27.35
   4  -5  -4 1277.66   27.69
   5   4  -4 1284.43   29.26
   5  -4  -4 1229.80   27.20
   5  -4   4 1309.45   31.04
   4  -5   4 1255.18   28.56
   5   4   4 1254.70   27.66
   4   5   4 1329.26   29.08
  -4  -5  -4 1290.55   28.92
  -5  -4  -4 1492.66   33.34
  -5   4  -4 1265.21   28.99
  -4   5  -4 1345.49   30.69
   4   5  -4 1251.82   29.16
   5   4  -4 1288.85   28.77
  -4  -5   4 1265.69   28.87
  -4  -5  -4 1240.00   27.00
  -5  -4   4 1202.74   27.19
  -5  -4  -4 1255.55   28.54
   4   5  -5 1064.40   24.53
   4  -5  -5  976.09   21.66
   5   4  -5  998.93   23.58
   5  -4  -5 1042.32   23.52
   5  -4   5 1034.86   23.44
   4  -5   5 1075.14   24.01
   5   4   5 1028.70   24.84
   4   5   5 1080.04   24.41
  -5  -4  -5 1001.05   22.98
  -5   4  -5 1072.75   25.47
  -4   5  -5 1001.53   23.14
  -4   5   5 1024.50   21.40
   4   5  -5 1041.12   23.61
   5   4  -5 1010.56   23.17
  -4  -5   5 1023.61   22.98
  -4  -5  -5 1060.15   23.57
  -5  -4   5 1020.48   22.47
  -5  -4  -5 1001.73   23.33
   4   5  -6  498.73   12.42
   4  -5  -6  509.57   12.35
   5   4  -6  540.71   13.17
   5  -4  -6  512.63   13.35
   5  -4   6  487.59   12.18
   4  -5   6  509.70   12.50
   5   4   6  517.91   15.59
   4   5   6  482.24   12.90
  -4  -5  -6  501.81   13.92
  -5  -4  -6  471.90   15.10
  -5   4  -6  527.49   13.50
  -4   5  -6  484.70   14.87
   4   5  -6  505.98   17.33
   5   4  -6  475.82   12.83
  -4  -5   6  478.25   11.96
  -4  -5  -6  510.71   12.29
  -5  -4   6  517.37   12.87
  -5  -4  -6  469.63   14.64
   4   5  -7  777.11   21.71
   4  -5  -7  781.50   23.69
   5   4  -7  769.55   23.90
   5  -4   7  800.12   24.29
   4  -5   7  755.46   19.99
   5   4   7  792.44   22.16
   4   5   7  790.13   23.77
  -4  -5  -7  772.58   20.72
  -5  -4  -7  753.53   25.19
   4  -5  -7  747.44   18.89
  -5   4  -7  817.50   23.29
  -4   5  -7  748.66   23.39
   4   5  -7  766.92   21.40
   5   4  -7  746.86   24.62
  -4  -5   7  783.08   21.65
  -5  -4   7  739.52   19.29
  -4  -5  -7  764.68   20.13
  -5  -4  -7  758.86   20.78
   4   5  -8  671.66   22.56
   5   4  -8  706.70   22.40
   4  -5  -8  727.74   19.62
   5  -4  -8  679.21   18.69
   5  -4   8  730.38   20.01
   4  -5   8  698.33   20.23
   5   4   8  679.71   22.55
   4   5   8  732.08   21.52
  -4  -5  -8  669.50   19.51
  -5  -4  -8  717.77   24.27
   4  -5  -8  750.97   19.06
   5  -4  -8  671.85   17.22
  -5   4  -8  694.68   20.57
  -4   5  -8  741.44   20.80
   4   5  -8  683.92   19.73
   5   4  -8  742.33   25.06
  -4  -5   8  734.01   20.39
  -5  -4   8  697.84   19.22
  -4  -5  -8  658.96   19.30
  -5  -4  -8  731.46   20.65
   4   5  -9  191.55   19.11
   5   4  -9  176.25   18.93
   4  -5  -9  181.82   17.46
   5  -4  -9  203.14   23.12
   5  -4   9  188.99   17.19
   4  -5   9  205.54   18.93
   5   4   9  183.77   17.11
   4   5   9  175.98   15.68
  -4  -5  -9  200.96   17.49
  -5  -4  -9  181.50   18.09
   4  -5  -9  168.84   14.53
   5  -4  -9  201.38   16.60
  -5   4  -9  198.26   17.55
  -4   5  -9  180.55   18.15
   4   5  -9  192.20   24.79
   5   4  -9  168.76   22.53
  -4  -5   9  171.82   14.67
  -5  -4   9  192.02   16.76
  -4  -5  -9  203.89   18.79
  -5  -4  -9  182.10   18.81
   4   5 -10   74.06    6.07
   5   4 -10   63.44   10.75
   4  -5 -10   60.80   12.04
   5  -4 -10   62.94   11.28
   5  -4  10   63.44   11.38
   4  -5  10   77.35   13.62
   5   4  10   68.86   12.72
   4   5  10   61.16   11.85
  -4  -5 -10   60.62    9.76
  -5  -4 -10   50.39    9.20
   4  -5 -10   54.83    5.25
   5  -4 -10   55.15    7.44
  -5   4 -10   60.02    6.11
  -4   5 -10   57.58    6.48
   4   5 -10   65.29   12.96
   5   4 -10   53.59    6.83
  -4  -5  10   58.08    8.47
  -5  -4  10   59.03    6.78
  -4  -5 -10   58.54    6.67
  -5  -4 -10   53.40    9.17
   4   5 -11  496.61   12.32
   5   4 -11  464.70   13.87
   4  -5 -11  488.06   18.97
   5  -4 -11  527.32   15.15
   5  -4  11  518.52   15.60
   4  -5  11  520.96   14.69
   5   4  11  546.68   14.73
   4   5  11  518.24   17.01
  -4  -5 -11  543.34   18.92
  -5  -4 -11  498.39   13.31
   4  -5 -11  506.38   13.67
   5  -4 -11  518.62   12.07
  -5   4 -11  531.68   22.22
  -4   5 -11  496.56   23.15
   4   5 -11  513.65   13.56
   5   4 -11  516.99   18.33
  -4  -5  11  485.59   12.37
  -5  -4  11  525.12   13.63
  -4  -5 -11  517.89   11.24
  -5  -4 -11  507.57   11.54
   4   5 -12  346.40   20.40
   5   4 -12  316.25   14.35
   4  -5 -12  307.90   15.13
   5  -4 -12  317.50   24.03
   5  -4  12  316.66   14.34
   4  -5  12  321.89   14.84
   5   4  12  318.27   14.25
   4   5  12  306.09   13.76
  -4  -5 -12  333.08   16.65
  -5  -4 -12  300.65   20.68
   4  -5 -12  313.64   12.24
   5  -4 -12  315.31   14.03
  -5   4 -12  334.46   19.95
  -4   5 -12  299.98   17.84
   4   5 -12  308.97   15.14
   5   4 -12  324.19   14.65
  -4  -5 -12  304.53   12.71
  -5  -4 -12  323.52   12.91
   4   5 -13    4.68    2.62
   5   4 -13    7.51    4.19
   4  -5 -13    2.45    2.45
   5  -4 -13    4.45    2.41
   5  -4  13    3.36    2.15
   4  -5  13    5.08    4.85
   5   4  13    1.13    2.18
   4   5  13    3.46    2.90
  -4  -5 -13    3.87    2.21
  -5  -4 -13   -0.61    3.94
   4  -5 -13    2.74    1.83
   5  -4 -13    4.57    1.95
  -5   4 -13   11.44   14.37
  -4   5 -13    4.92    6.80
   5   4 -13    3.94    4.06
   4   5 -13   -1.89    4.13
   4   5 -14   80.61   14.47
   5   4 -14   94.45   16.33
   4  -5 -14   84.30   17.60
   5  -4 -14   86.12   14.66
   5  -4  14   96.23   19.62
   4  -5  14   72.22   21.52
   5   4  14   68.00   18.92
   4   5  14   85.31    6.85
  -4  -5 -14   87.21   18.28
  -5  -4 -14   93.81   15.63
  -5   4 -14   72.30   14.01
  -4   5 -14   79.03   16.09
   5   4 -14   75.57    6.37
   4   5 -14   85.92    9.77
   4   5 -15   11.79    4.70
   5   4 -15    6.41    4.62
   4  -5 -15   13.90    4.13
   5  -4 -15    5.66    2.14
   5  -4  15    5.35    2.86
   4  -5  15   14.93    6.23
   5   4  15    9.24    4.52
   4   5  15    4.85    3.06
  -4  -5 -15    8.54    3.76
  -5  -4 -15    4.28    2.61
  -5   4 -15   10.13    3.84
  -4   5 -15    4.45    3.20
   5   4 -15    6.54    5.13
   4   5 -15    4.39    4.46
   4   5 -16   39.64    8.76
   5   4 -16   54.77   10.35
   4  -5 -16  263.57   47.02
   5  -4 -16   46.62    7.88
   5  -4  16   43.15   13.30
   4  -5  16   46.74    7.52
   5   4  16   27.08    9.11
   4   5  16   44.55    9.50
  -4  -5 -16   51.04    7.64
  -5  -4 -16   45.06    8.96
  -5   4 -16   30.12   12.60
  -4   5 -16   49.65    8.89
   5   4 -16   47.15    6.97
   4   5 -16   38.40    7.57
   4   5 -17   94.23   23.10
   5   4 -17   99.21   20.69
   4  -5 -17  101.23   23.71
   5  -4 -17  107.61   18.34
   5  -4  17  105.82   14.12
   4  -5  17   84.86   18.32
   5   4  17  105.17   26.26
   4   5  17   76.82   23.80
  -4  -5 -17  108.75   16.98
  -5  -4 -17  113.79   17.50
  -5   4 -17  106.11   28.50
  -4   5 -17  131.15   19.21
   5   4 -17   95.35   18.07
   4   5 -17   97.17   24.22
   4   5 -18    9.25    2.90
   5   4 -18    7.90    6.43
   4  -5 -18   13.70    5.04
   5  -4 -18    8.97    3.73
   5  -4  18   11.26    6.44
   4  -5  18   10.16    5.98
   5   4  18    7.98    6.31
   4   5  18   11.58    6.61
  -5  -4 -18   14.16    5.42
  -5   4 -18   14.35    8.34
  -4   5 -18   12.86    5.71
   5   4 -18   19.07    7.76
   4   5 -18   13.18    6.54
   4   5 -19   46.08   11.63
   5   4 -19   32.65    7.13
   4  -5 -19   30.76    7.15
   5  -4 -19   51.21    9.68
   5  -4  19   31.75    9.42
   4  -5  19   36.61   10.75
   5   4  19   39.96   12.10
   4   5  19   28.87    8.76
  -4  -5 -19   62.21   10.58
  -5  -4 -19   42.32   10.18
  -5   4 -19   44.67   14.06
  -4   5 -19   36.96    9.70
   5   4 -19   38.40    7.48
   4   5 -19   30.43    9.54
   4  -5 -20   20.38    6.76
   5  -4 -20   11.98    6.06
   5  -4  20   19.35    6.29
   4  -5  20    7.95    5.22
   5   4  20   22.02    6.11
   4   5  20   30.30   10.73
  -4  -5 -20   21.44    5.38
  -5  -4 -20   31.13    9.10
  -5   4 -20    9.59    4.00
  -4   5 -20   21.89    7.29
   5   4 -20   20.73    6.80
   4   5 -20   14.34    4.80
   5   4 -21    8.91    5.12
   4  -5 -21   21.69    6.61
   5  -4 -21    9.75    4.57
   5  -4  21   17.83    9.63
   4  -5  21    9.93    6.78
   5   4  21    8.16    4.78
   4   5  21    9.87    5.25
  -4  -5  21   14.66    7.61
  -4  -5 -21   14.72    5.04
  -5  -4 -21    6.11    3.77
  -5   4 -21   19.66    6.90
  -4   5 -21    9.37    4.58
   5   4 -21   13.19    6.46
   4   5 -21    8.57    3.25
   5   4 -22    1.67    3.01
   5  -5   0 3337.92   69.55
   5   5   0 3562.82   14.81
  -5   5   0 3405.40   70.05
  -5  -5   0 3498.57   17.94
   5   5  -1  530.60   13.52
   5  -5  -1  516.34   13.64
   5  -5   1  515.08   15.01
  -5   5   1  522.90   11.02
  -5   5  -1  530.54   12.18
   5  -5  -1  526.14   11.68
  -5  -5   1  496.92   12.01
  -5  -5  -1  510.90   14.98
   5   5  -2   32.42    3.19
   5  -5  -2   32.42    6.36
   5  -5   2   33.15    5.62
   5   5   2   26.83    5.01
  -5   5  -2   31.27    5.71
  -5  -5   2   28.62    5.65
  -5  -5  -2   36.60    5.37
   5   5  -3 1131.28   26.47
   5  -5  -3 1114.66   26.02
   5  -5   3 1133.49   25.39
   5   5   3 1163.07   25.07
  -5   5  -3 1172.35   26.59
  -5  -5   3 1218.19   28.25
  -5  -5  -3 1116.19   26.23
   5   5  -4  257.03   14.35
   5  -5  -4  265.02   13.62
   5  -5   4  275.27   18.36
   5   5   4  262.53   13.57
  -5  -5  -4  268.50   14.59
  -5   5  -4  260.77   13.35
   5   5  -4  267.98   15.96
  -5  -5   4  258.53   13.66
  -5  -5  -4  255.61   13.49
   5   5  -5    7.07    2.93
   5  -5  -5   10.69    2.65
   5  -5   5   11.66    3.11
   5   5   5    4.34    2.86
  -5  -5  -5    4.88    1.40
  -5   5  -5   10.24    2.40
   5   5  -5   13.23    5.59
  -5  -5   5    9.72    3.16
  -5  -5  -5    4.55    2.35
   5   5  -6  123.72    7.93
   5  -5  -6  115.56    4.55
   5  -5   6  123.21   10.82
   5   5   6  119.85    5.19
  -5  -5  -6  125.46   12.17
  -5   5  -6  121.79    9.80
   5   5  -6  120.97   12.27
  -5  -5   6  124.45    5.24
  -5  -5  -6  116.61   10.19
   5   5  -7   57.41   10.91
   5  -5  -7   67.32   12.31
   5  -5   7   50.47    5.18
   5   5   7   59.74   12.65
  -5  -5  -7   52.13    9.80
  -5   5  -7   59.45    6.16
   5   5  -7   68.60    9.09
  -5  -5   7   61.15    4.76
  -5  -5  -7   56.68    6.20
   5   5  -8   24.40    6.42
   5  -5  -8   22.44    5.50
   5  -5   8   19.40    5.18
   5   5   8   18.12    5.92
  -5  -5  -8   19.74    4.38
   5  -5  -8   19.77    2.97
  -5   5  -8   30.58    5.96
   5   5  -8   19.65    6.56
  -5  -5   8   25.50    4.72
  -5  -5  -8   25.11    5.21
   5   5  -9  319.60   11.26
   5  -5  -9  289.84   10.04
   5  -5   9  282.83    9.41
   5   5   9  300.06    9.55
  -5  -5  -9  304.07   16.90
   5  -5  -9  283.25    5.86
  -5   5  -9  303.91   11.68
   5   5  -9  282.37   24.81
  -5  -5   9  305.54    9.17
  -5  -5  -9  279.90    7.91
   5   5 -10  217.14   10.85
   5  -5 -10  213.29   19.50
   5  -5  10  235.73   20.95
   5   5  10  218.16   12.09
  -5  -5 -10  219.47   10.62
   5  -5 -10  207.19    9.32
  -5   5 -10  199.43   13.94
   5   5 -10  229.83   12.18
  -5  -5  10  208.78   10.53
  -5  -5 -10  211.16   11.38
   5   5 -11    7.27    3.21
   5  -5 -11    4.26    1.84
   5  -5  11    2.87    2.14
   5   5  11    4.40    2.26
  -5  -5 -11   -0.74    2.11
   5  -5 -11   -0.37    1.24
  -5   5 -11   -3.12    4.07
   5   5 -11    0.90    3.19
  -5  -5  11    1.31    0.79
  -5  -5 -11    0.16    1.84
   5   5 -12  371.86   16.51
   5  -5 -12  390.28   20.03
   5  -5  12  377.63   16.14
   5   5  12  360.25   19.22
  -5  -5 -12  384.99   24.23
  -5   5 -12  354.46   15.48
   5   5 -12  396.80   18.97
  -5  -5 -12  378.74   18.84
   5   5 -13  125.35   20.26
   5  -5 -13  118.17   12.16
   5  -5  13  117.97   13.10
   5   5  13  127.50   10.73
  -5  -5 -13  144.26   15.69
  -5   5 -13  129.71    8.93
   5   5 -13  117.88   18.56
   5   5 -14   62.02   12.06
   5  -5 -14   56.83   11.36
   5  -5  14   53.10   14.30
   5   5  14   57.31   11.76
  -5  -5 -14   62.04   10.97
  -5   5 -14   66.01   12.50
   5   5 -14   63.98   14.52
   5   5 -15  378.54   56.00
   5  -5 -15   63.68   12.47
   5  -5  15   55.43   12.91
   5   5  15   50.42   13.89
  -5  -5 -15   78.88   14.13
  -5   5 -15   83.75   16.36
   5   5 -15   55.83   12.22
   5   5 -16  195.21   18.35
   5  -5 -16  275.05   33.29
   5  -5  16  194.23   13.08
   5   5  16  191.74   13.31
  -5  -5 -16  216.10   15.57
  -5   5 -16  182.69   20.16
   5   5 -16  174.94   29.87
   5   5 -17    8.70    4.73
   5  -5 -17   23.30    7.28
   5  -5  17   14.46    5.61
   5   5  17    8.11    9.25
  -5  -5 -17    8.29    2.83
  -5   5 -17   16.74    7.37
   5   5 -17   18.10    4.33
   5   5 -18   -0.60    3.48
   5  -5 -18    4.61    5.09
   5  -5  18   -2.73    4.30
   5   5  18   -2.57    4.39
  -5  -5 -18    3.38    2.38
  -5   5 -18    5.16    3.15
   5   5 -18    4.06    4.62
   5   5 -19   17.91    4.88
   5  -5 -19   11.82    7.38
   5  -5  19   21.39    7.35
   5   5  19   15.94    7.45
  -5  -5 -19   22.05    4.69
  -5   5 -19   15.83    4.83
   5   5 -19   11.13    4.06
   5   5 -20   -1.29    3.86
   5  -5 -20    3.28    4.29
   5  -5  20    3.63    2.21
   5   5  20   -3.17    3.85
  -5  -5 -20    5.37    2.18
  -5   5 -20    4.02    2.30
   5   5 -20    3.99    3.28
   5   5 -21    8.43    4.69
   5  -5  21   14.60    8.43
   5   5  21   19.82    6.89
  -5  -5 -21   16.32    4.31
   5   5 -21   27.37    6.09
   6   0   0 1015.97   16.38
  -6   0   0 1038.02   15.60
   0  -6   0 1016.96   16.92
   6   0  -1  542.41    9.51
   0   6   1  526.82    7.57
   6   0   1  557.34   11.27
  -6   0  -1  561.49    9.40
   0   6  -1  549.57   10.00
   0  -6   1  578.57   10.66
   0  -6  -1  584.86   10.83
   0  -6   2    5.16    0.80
   6   0  -2   10.85    3.18
   6   0   2    8.94    3.99
  -6   0  -2    6.03    1.69
   0   6  -2    4.52    3.27
   0  -6   2    5.06    2.04
   0  -6  -2    4.17    1.85
   6   0  -3 1173.55   19.50
   6   0   3 1168.50   19.43
   0  -6   3 1135.86   16.57
  -6   0  -3 1171.49   18.32
   0   6  -3 1208.01   19.09
   0  -6   3 1159.37   20.46
   0  -6  -3 1150.95   18.63
   6   0  -4  368.89    6.52
   6   0   4  391.30    6.42
   0  -6   4  353.60    5.03
  -6   0  -4  381.63    9.57
   0   6  -4  356.11    7.17
   6   0  -4  363.98    8.96
   0  -6   4  415.20   21.89
   0  -6  -4  369.90    8.09
   0  -6  -5 1951.55   41.33
   6   0  -5 1778.50   38.33
   6   0   5 1823.12   39.58
   0  -6   5 1706.33   36.15
   0  -6  -5 1773.40   38.28
  -6   0  -5 1720.68   37.95
   0   6  -5 1743.22   39.32
   6   0  -5 1783.91   37.90
   0  -6   5 1749.23   38.43
   0  -6  -5 1798.38   38.85
   0  -6  -6  627.42   14.13
   6   0  -6  657.49   21.19
   6   0   6  648.19   16.38
   0  -6   6  649.60   14.78
   0  -6  -6  631.88   15.61
  -6   0  -6  644.91   17.81
   0   6  -6  630.47   18.60
   6   0  -6  645.87   16.73
   0  -6  -6  646.23   15.42
   0  -6  -7 1771.14   37.92
   6   0  -7 1740.58   38.07
   6   0   7 1868.50   44.61
   0  -6   7 1734.60   37.67
   0  -6  -7 1728.59   37.67
  -6   0  -7 1775.80   40.37
   6   0  -7 1839.36   39.17
   0  -6  -7 1910.47   41.84
   0  -6  -8   34.10    6.99
   6   0  -8   33.76    5.90
   6   0   8   46.41   17.40
   0  -6   8   33.97    6.88
   0  -6  -8   52.57    6.33
  -6   0  -8   28.98   10.72
   0   6  -8   34.68    6.86
   6   0  -8   33.46    6.70
   0  -6  -8   31.88    6.50
   0  -6  -9 1350.50   21.38
   6   0  -9 1300.55   26.62
   6   0   9 1335.13   22.51
   0  -6   9 1345.89   21.74
   0  -6  -9 1303.90   21.81
  -6   0  -9 1258.70   28.86
   0   6  -9 1356.46   24.53
   6   0  -9 1311.55   20.16
  -6   0   9 1313.37   19.80
   0  -6 -10    7.92    3.70
   6   0 -10    2.32    2.76
   6   0  10   -1.45    3.96
   0  -6  10    2.63    2.38
   0  -6 -10    2.31    1.42
  -6   0 -10    4.02    2.40
   6   0 -10    1.23    2.79
   0   6 -10   -4.42    4.75
  -6   0  10    1.61    1.60
   0  -6 -11  193.43   10.23
   6   0 -11  201.79   10.53
   6   0  11  199.95   14.80
   0  -6  11  201.54   11.16
   0  -6 -11  209.93   11.39
  -6   0 -11  188.97   15.24
   6   0 -11  200.81   13.74
   0   6 -11  200.55   15.94
  -6   0  11  187.35    8.67
   0  -6 -12  304.40    8.97
   6   0 -12  290.44    9.91
   6   0  12  267.06   11.83
   0  -6  12  266.75   14.30
   0  -6 -12  282.53   13.00
  -6   0 -12  277.49    9.98
   6   0 -12  263.28   13.84
   0   6 -12  268.54   11.39
   0  -6 -13    4.14    3.31
   6   0 -13    2.26    2.53
   6   0  13    7.18    5.85
   0  -6  13    5.06    2.43
   0  -6 -13    3.85    2.46
  -6   0 -13    0.26    3.07
   6   0 -13    4.31    3.08
   0   6 -13    4.45    5.00
   0  -6 -14    7.63    5.09
   6   0 -14    8.53    5.76
   6   0  14    5.01    4.41
   0  -6  14    3.06    3.33
   0  -6 -14    8.32    3.67
  -6   0 -14    1.25    2.31
   6   0 -14    5.35    3.06
   0   6 -14    5.79    3.39
   6   0 -15   20.98    5.13
   6   0  15   14.76    5.84
   0  -6  15   17.85    4.82
   0  -6 -15   20.54    3.03
  -6   0 -15   15.94    5.00
   6   0 -15    7.23    2.83
   0   6 -15   19.44    6.43
   6   0 -16   53.51    9.66
   6   0  16   40.15   12.61
   0  -6  16   42.22   11.11
   0   6  16   52.79   11.65
   0  -6 -16   40.48    8.58
  -6   0 -16   53.08   10.12
   6   0 -16   43.84    7.35
   0   6 -16   47.37   11.59
   6   0 -17   19.84    5.40
   6   0  17    5.90    4.75
   0  -6  17    7.98    3.24
   0   6  17    8.17    5.15
   0  -6 -17    9.48    3.09
  -6   0 -17    6.72    2.95
   6   0 -17   10.51    5.47
   0   6 -17    7.14    4.75
   6   0 -18   11.82    5.36
   6   0  18    1.77    3.22
   0   6  18    6.26    4.79
   0  -6 -18   19.92   10.83
  -6   0 -18    2.97    3.35
   0   6 -18    3.34    3.71
   6   0 -19   33.30    5.72
   6   0  19   27.02    7.85
   0  -6  19   34.95    6.91
   0   6  19   38.25    7.39
  -6   0 -19   37.81    6.89
   0   6 -19   12.63    5.78
   6   0 -20    3.91    2.41
   6   0  20    7.03    3.66
   0  -6  20   -0.37    4.21
   0   6  20    5.25    3.10
  -6   0 -20    3.25    2.87
   0   6 -20    7.84    6.35
   6   0 -21   29.79    7.90
   6   0  21   33.69   11.49
   0  -6  21   16.94    7.62
   0   6  21   21.89   10.59
  -6   0 -21   47.34    8.84
   0   6 -21   35.42    9.45
   6  -1   0    2.22    1.65
   6   1   0    6.48    4.15
  -6   1   0    6.92    1.83
   1  -6   0    2.43    2.31
  -1  -6   0    5.69    2.90
   1   6   1  142.70    1.61
   6   1  -1  165.35    4.70
   6  -1  -1  126.54    4.54
   6  -1   1  166.61    5.62
   6   1   1  128.47    9.68
  -1   6  -1  163.78    2.95
  -6  -1  -1  167.95    7.33
  -6   1  -1  127.11    5.42
  -1   6  -1  163.35    4.16
   1   6  -1  122.69    4.35
   1  -6   1  138.74    8.95
   1  -6  -1  159.48    5.11
  -1  -6   1  161.90    4.39
  -1  -6  -1  130.47    7.64
   1  -6  -2   22.73    2.96
   1   6   2   17.61    1.08
  -1  -6   2   19.07    2.13
   6   1  -2   26.21    5.20
   6  -1  -2   23.96    4.40
   6  -1   2   26.83    6.71
   6   1   2   25.91    5.70
   1  -6   2   26.99    3.36
   1   6   2   17.65    2.26
  -6  -1  -2   21.08    5.37
  -6   1  -2   24.43    2.83
  -1   6  -2   25.66    5.73
   1   6  -2   28.87    6.28
   1  -6  -2   24.37    4.47
  -1  -6   2   18.11    3.15
  -1  -6  -2   22.18    4.37
   1  -6  -3 2453.59   34.08
   6   1  -3 2555.92   39.89
   6  -1  -3 2472.55   36.77
   6  -1   3 2429.36   37.24
   6   1   3 2476.33   35.33
   1  -6   3 2438.99   33.76
   1   6   3 2456.24   33.69
  -6  -1  -3 2368.03   34.02
  -6   1  -3 2516.63   36.09
  -1   6  -3 2390.63   34.46
   1   6  -3 2448.33   35.56
   1  -6  -3 2380.57   34.23
  -1  -6   3 2365.89   37.28
  -1  -6  -3 2581.33   36.44
   1   6  -4   91.59    5.34
   1  -6  -4   91.86    5.03
   6   1  -4   95.09    6.16
   6  -1  -4   95.05    7.10
   6  -1   4   93.32    7.50
   6   1   4   96.80    9.24
   1  -6   4   96.86    6.26
   1   6   4   83.30    6.38
  -6  -1  -4   86.18    7.87
  -6   1  -4   94.27    5.73
  -1   6  -4   86.00    7.95
   1   6  -4   93.33    6.37
   6  -1  -4   98.52    6.88
   6   1  -4   85.20    5.96
   1  -6  -4   97.29    6.34
  -1  -6   4   87.49    5.73
  -1  -6  -4   89.07    6.45
   1   6  -5  164.24   10.47
   1  -6  -5  159.87    8.32
   6   1  -5  184.68   14.87
   6  -1  -5  160.73   10.05
   6  -1   5  161.60    9.53
   6   1   5  153.57    9.53
   1  -6   5  153.70    8.24
   1  -6  -5  152.95    8.17
  -1  -6  -5  159.66    8.59
  -6  -1  -5  155.23    8.42
  -6   1  -5  160.58   10.16
  -1   6  -5  149.99    8.82
   1   6  -5  172.80   15.74
   6  -1  -5  159.14    8.77
   6   1  -5  175.55    9.67
  -1  -6   5  152.32    9.23
  -1  -6  -5  153.26    9.72
  -1  -6  -6 1215.28   26.34
   1   6  -6 1136.25   25.44
   1  -6  -6 1173.10   25.50
   6   1  -6 1147.84   26.43
   6  -1  -6 1118.29   25.13
   6  -1   6 1142.81   27.17
   6   1   6 1144.71   26.51
   1  -6   6 1172.13   25.70
   1  -6  -6 1128.67   24.70
  -1  -6  -6 1315.80   29.00
  -6  -1  -6 1175.16   26.89
  -6   1  -6 1174.26   27.12
  -1   6  -6 1155.40   30.20
   6  -1  -6 1198.14   26.82
   1   6  -6 1158.53   26.75
  -1  -6   6 1223.56   28.34
  -1  -6  -6 1175.50   26.25
  -1  -6  -7 1611.16   35.15
   1   6  -7 1524.57   34.95
   1  -6  -7 1574.11   34.02
   6   1  -7 1508.20   35.17
   6  -1  -7 1592.42   35.27
   6  -1   7 1535.81   36.58
   6   1   7 1586.75   38.20
   1  -6   7 1549.70   33.28
  -1  -6  -7 1563.55   34.14
   1  -6  -7 1512.60   32.93
  -6  -1  -7 1523.66   35.33
  -6   1  -7 1601.32   37.98
  -1   6  -7 1491.30   38.31
   6  -1  -7 1565.01   33.47
   1   6  -7 1637.28   37.00
   6   1  -7 1542.08   33.32
  -1  -6  -7 1502.17   32.24
  -6  -1   7 1559.84   33.48
  -1  -6  -8   94.37    5.76
   1   6  -8   98.69    7.37
   1  -6  -8  140.66    7.18
   6   1  -8  131.29    7.63
   6  -1   8  114.16   11.21
   6   1   8   94.58   10.31
   1  -6   8   92.77    4.75
  -1  -6  -8  101.00    8.79
   1  -6  -8  116.35    5.48
  -6  -1  -8  126.68    8.68
  -6   1  -8  110.63   10.34
  -1   6  -8  116.82    8.04
   6  -1  -8   89.44    9.06
   1   6  -8  115.83   23.59
   6   1  -8  114.16   15.30
  -1  -6   8  104.09    6.60
  -1  -6  -8   98.38    4.17
  -6  -1   8   93.56    3.86
  -1  -6  -9  499.25   14.46
   1   6  -9  459.77   11.46
   1  -6  -9  496.36   18.04
   6   1  -9  464.40   12.86
   6  -1  -9  482.97   12.64
   6  -1   9  464.54   10.69
   6   1   9  489.79   20.15
  -1  -6  -9  468.32   14.11
   1  -6  -9  456.96    8.49
  -6  -1  -9  479.54   12.97
  -6   1  -9  466.99   17.76
   6  -1  -9  477.02   10.73
  -1   6  -9  476.91   13.45
   1   6  -9  485.14   12.09
   6   1  -9  517.82   13.95
  -1  -6  -9  494.07    9.64
  -6  -1   9  475.13    9.50
   1   6 -10   57.42   11.85
   1  -6 -10   76.22   15.26
   6   1 -10   65.17   15.88
   6  -1 -10   52.19   11.47
   6  -1  10   59.52   14.96
   6   1  10   67.31   15.42
   1  -6  10   86.79   18.64
  -1  -6 -10   59.72   12.64
   1  -6 -10   52.94   10.25
  -6  -1 -10   57.51   13.61
  -6   1 -10   71.58   14.23
   6  -1 -10   63.35    8.93
  -1   6 -10   59.47   12.19
   1   6 -10   59.17   14.46
   6   1 -10   56.68    9.22
  -1  -6 -10   64.15    6.73
  -6  -1  10   57.83    7.37
   1   6 -11    8.67    2.42
   1  -6 -11   23.12    4.72
   6   1 -11   12.91    7.38
   6  -1 -11   18.40    4.50
   6  -1  11   11.37    3.26
   6   1  11   13.34    5.49
   1  -6  11   26.65    5.66
  -1  -6 -11   14.73    4.65
   1  -6 -11   24.67    4.71
  -6  -1 -11   20.54    4.27
  -6   1 -11   16.96    3.03
   6  -1 -11   15.01    2.49
  -1   6 -11   12.34    4.47
   6   1 -11    5.49    3.25
   1   6 -11   19.64    5.13
  -1  -6 -11   17.11    3.45
  -6  -1  11   12.76    4.51
  -6   1  11   19.20    3.62
  -6  -1 -11   17.97    1.94
   1  -6 -12    8.62    4.12
   6   1 -12   11.44    3.37
   6  -1 -12    3.12    5.54
   6  -1  12    4.83    1.90
   6   1  12    1.57    3.40
   1  -6  12    3.08    1.81
   1   6  12    8.07    2.73
  -1  -6 -12    9.80    3.70
   1  -6 -12    8.11    2.65
  -6  -1 -12    4.37    3.29
  -6   1 -12    7.26    4.81
   6  -1 -12   -1.52    2.31
  -1   6 -12    7.99    4.52
   6   1 -12    7.68    3.60
   1   6 -12    1.44    4.38
  -6  -1 -12    3.52    1.21
   1  -6 -13  131.26    8.11
   6   1 -13  130.87    9.00
   6  -1 -13  138.49   22.87
   6  -1  13  126.56   17.47
   6   1  13  144.72   13.59
   1   6  13  105.98    8.02
  -1  -6  13  113.03   10.52
  -1  -6 -13  162.98   23.11
   1  -6 -13  126.45    8.33
  -6  -1 -13  116.17    8.98
  -6   1 -13  131.98    9.94
   6  -1 -13  135.78   18.02
  -1   6 -13  109.55   12.48
   6   1 -13  113.83   17.43
   1   6 -13  141.43   15.99
   1  -6 -14   15.04    4.86
   6   1 -14    3.25    3.49
   6  -1 -14    4.62    3.53
   6  -1  14   15.35    6.56
   6   1  14    4.63    4.39
   1  -6  14   17.81    4.75
   1   6  14   14.58    7.30
  -1  -6  14    8.22    5.49
  -1  -6 -14   11.56    3.12
   1  -6 -14   17.27    4.74
  -6  -1 -14   13.26    4.74
  -6   1 -14   10.50    5.13
   6  -1 -14    5.73    5.16
  -1   6 -14   17.55    5.31
   6   1 -14    9.82    2.50
   1   6 -14    3.97    5.18
   1  -6 -15  241.94   12.54
   6   1 -15  224.08   27.58
   6  -1 -15  241.74   21.63
   6  -1  15  211.64   22.82
   6   1  15  225.23   18.03
   1  -6  15  226.16    9.20
   1   6  15  204.85   20.38
  -1  -6  15  213.87   13.47
  -1  -6 -15  248.22    9.09
   1  -6 -15  230.90    8.58
  -6  -1 -15  240.59   13.27
  -6   1 -15  231.68   14.89
   6  -1 -15  263.94   11.15
  -1   6 -15  257.46   11.99
   6   1 -15  227.33    8.95
   1   6 -15  233.10    9.85
   1  -6 -16   61.71   15.11
   6   1 -16   90.26   15.82
   6  -1 -16   68.42   14.30
   6  -1  16   67.69   23.34
   6   1  16   71.20   16.25
   1  -6  16   55.78   11.96
   1   6  16   51.36   14.72
  -1  -6  16   59.35   13.55
  -1  -6 -16   70.81   13.31
   1  -6 -16   69.45   12.63
  -6  -1 -16   88.37   17.24
  -6   1 -16   70.60   14.92
   6  -1 -16   55.13   12.33
  -1   6 -16   78.38   10.74
   6   1 -16   53.74   13.88
   1   6 -16   64.43    8.37
   1  -6 -17   10.64    4.18
   6   1 -17    9.69    4.44
   6  -1 -17   14.73    7.25
   6  -1  17   22.53    9.63
   6   1  17   11.76    6.35
   1  -6  17    9.11    3.20
   1   6  17   16.91    4.83
  -1  -6  17   16.42    4.64
  -1  -6 -17   14.59    4.77
   1  -6 -17    7.48    2.50
  -6  -1 -17   10.14    4.02
  -6   1 -17    7.33    3.81
  -1   6 -17   12.45    5.25
   6   1 -17   13.37    4.69
   1   6 -17    5.67    5.86
   6   1 -18    4.57    3.65
   6  -1 -18    5.06    3.28
   6  -1  18    1.95    4.05
   6   1  18    8.72    4.14
   1  -6  18    3.35    2.51
   1   6  18   13.27    6.06
  -1   6  18    6.52    4.57
  -1  -6 -18   10.77    3.09
  -6  -1 -18   16.53    5.12
  -6   1 -18   15.68    5.57
  -1   6 -18   11.44    5.74
   6   1 -18    5.97    3.84
   1   6 -18    5.42    5.38
   6   1 -19   66.45   10.64
   6  -1 -19   70.58   15.15
   6  -1  19   57.23   20.03
   6   1  19   68.72    8.08
   1  -6  19   56.91   15.97
   1   6  19   63.53   11.19
  -1  -6  19   49.09   14.06
  -1   6  19   58.98   14.16
  -1  -6 -19   73.96   11.25
  -6  -1 -19   75.90   12.40
  -6   1 -19   75.17   14.50
  -1   6 -19   53.06   16.75
   1   6 -19   58.87   17.18
   6   1 -20   15.37    3.95
   6  -1 -20    1.11    3.35
   6  -1  20    0.18    2.46
   6   1  20    4.37    3.34
   1  -6  20    4.70    5.04
   1   6  20    8.39    6.95
  -1  -6  20   -2.53    5.02
  -1   6  20    7.90    3.12
  -6  -1 -20    6.42    3.27
  -6   1 -20   -2.42    4.42
  -1   6 -20    7.17    4.76
   1   6 -20    5.19    4.68
   6   1 -21   21.22    9.64
   6  -1 -21   25.93    9.50
   6  -1  21   39.75   12.90
   6   1  21   33.63    4.84
   1  -6  21   27.28    8.82
   1   6  21   23.35    6.47
  -1  -6  21   42.04    7.46
  -1   6  21   25.63   13.20
  -6  -1 -21   45.08   10.37
  -6   1 -21   39.42    8.74
  -1   6 -21   33.81    8.58
   1   6 -21    8.51    6.90
   2   6   0   20.01    1.81
   2  -6   0   24.70    3.67
   6  -2   0   25.05    4.45
   6   2   0   23.16    5.18
  -6   2   0   24.46    3.97
  -2   6   0   24.09    5.19
  -2  -6   0   25.03    7.10
   2   6   1 1823.65   24.83
   2   6  -1 1656.43   22.40
   2  -6  -1 1528.59   21.84
   6  -2  -1 1699.28   26.07
   6   2  -1 1634.44   26.25
   2  -6   1 1670.89   23.21
   6  -2   1 1857.69   29.12
   6   2   1 1675.40   25.96
   2   6   1 1622.62   22.11
  -6  -2  -1 1600.75   24.95
  -6   2  -1 1741.69   24.93
  -2   6  -1 1572.05   23.26
  -2   6   1 1697.85   24.57
  -2  -6   1 1595.88   24.21
  -2  -6  -1 1693.94   25.11
   2   6  -2  481.35    7.49
   2  -6  -2  491.27    9.30
   6   2  -2  519.01   10.19
   6  -2  -2  494.41    9.94
  -2  -6   2  512.80    7.68
   6  -2   2  506.95    9.93
   6   2   2  478.43    9.73
   2  -6   2  461.43    9.61
   2   6   2  518.21    8.31
  -6  -2  -2  504.05   10.46
  -6   2  -2  492.98    9.07
  -2   6  -2  490.34   12.10
   2   6  -2  484.08   10.14
  -2  -6   2  529.80   10.23
  -2  -6  -2  480.47   10.05
   2   6  -3  349.00    4.21
   2  -6  -3  373.16    5.09
   6   2  -3  344.52    6.99
   6  -2  -3  368.36    6.00
   6  -2   3  328.47    6.20
   6   2   3  366.29    9.63
   2  -6   3  384.52    4.92
   2   6   3  335.47    4.92
  -6  -2  -3  346.62   12.23
  -6   2  -3  340.15    6.83
  -2   6  -3  341.90    5.76
   2   6  -3  370.14   15.00
   6  -2  -3  344.60    3.69
  -2  -6   3  332.57    5.82
  -2  -6  -3  363.47    6.73
  -6  -2   3  349.14    5.54
   2   6  -4  462.68   10.92
   2  -6  -4  484.87   11.61
   6   2  -4  462.41   11.41
   6  -2  -4  452.52   11.62
   6  -2   4  475.60   12.27
   6   2   4  461.93   11.92
   2  -6   4  457.06   11.57
   2   6   4  504.51   11.67
  -6  -2  -4  480.09   16.79
  -6   2  -4  461.55   15.09
  -2   6  -4  494.55   12.85
   2   6  -4  467.15   12.93
   6   2  -4  489.86   16.35
  -2  -6   4  474.11   12.73
  -2  -6  -4  462.53   11.31
  -6  -2   4  486.25   11.46
   2  -6  -5  539.75   13.18
   6   2  -5  531.46   15.01
   6  -2  -5  502.38   12.99
   6  -2   5  529.01   13.21
   6   2   5  545.08   14.83
   2  -6   5  553.52   13.14
   2   6   5  558.43   12.80
  -6  -2  -5  507.43   14.70
  -6   2  -5  515.30   14.78
  -2   6  -5  532.80   15.92
   6  -2  -5  540.58   12.26
   2   6  -5  653.16   19.11
   6   2  -5  538.15   17.21
  -2  -6   5  526.30   12.78
  -2  -6  -5  509.19   11.90
  -6  -2   5  493.77   11.61
   2   6  -6  159.32    8.26
   2  -6  -6  176.75    9.75
   6   2  -6  178.03   10.13
   6  -2  -6  164.35   14.19
   6  -2   6  184.94   10.80
   6   2   6  161.76   11.50
   2  -6   6  146.26    7.88
   2   6   6  169.70    9.11
   2  -6  -6  171.62    8.98
  -2  -6  -6  183.98   10.15
  -6  -2  -6  188.98   13.41
  -6   2  -6  177.31   14.56
  -2   6  -6  191.68   16.06
   6  -2  -6  173.98    9.90
   2   6  -6  158.06   10.19
   6   2  -6  183.49   11.03
  -2  -6   6  178.29   10.14
  -2  -6  -6  166.76   10.77
  -6  -2   6  161.30   10.83
   2   6  -7   89.15   10.32
   2  -6  -7   85.63    9.25
   6   2  -7   82.21   10.58
   6  -2  -7   81.84    5.42
   6  -2   7   88.87   11.12
   6   2   7   73.20    7.83
   2  -6   7   74.97    7.65
   2   6   7   84.88    8.63
   2  -6  -7   85.18    4.75
  -2  -6  -7   69.20    3.67
  -6  -2  -7   83.99    6.99
  -6   2  -7   66.32    7.03
   6  -2  -7   77.14    9.23
  -2   6  -7   83.73    5.85
   2   6  -7   83.96   17.28
   6   2  -7   90.61    7.93
  -2  -6   7   85.90    8.87
  -2  -6  -7   71.99    5.91
  -6  -2   7   69.22    4.21
  -6  -2  -7   88.73    6.98
   2   6  -8   -0.04    2.30
   2  -6  -8    1.52    1.54
   6   2  -8    6.60    4.72
   6  -2  -8    4.03    8.96
   6  -2   8    1.91    2.79
   6   2   8    0.86    2.07
   2  -6   8    2.36    1.81
   2   6   8    1.63    2.64
  -2  -6  -8   -0.10    1.27
   2  -6  -8    2.08    1.55
  -6  -2  -8    1.29    1.69
  -6   2  -8    6.42    3.84
   6  -2  -8    2.78    1.68
  -2   6  -8    6.12    2.51
   2   6  -8   -0.47    5.11
   6   2  -8    6.51    4.36
  -2  -6   8    0.94    1.21
  -2  -6  -8    2.81    2.12
  -6  -2   8    3.05    2.13
  -6  -2  -8    7.18    2.76
   2   6  -9  197.47   19.89
   2  -6  -9  183.45   17.72
   6   2  -9  198.64   18.64
   6  -2  -9  205.17   21.83
   6  -2   9  192.57   16.76
   6   2   9  210.93   18.43
   2  -6   9  209.50   17.88
   2   6   9  183.17   15.79
  -2  -6  -9  206.37   17.77
   2  -6  -9  180.82   15.20
  -6  -2  -9  175.25   17.88
  -6   2  -9  199.97   17.94
   6  -2  -9  206.90   17.39
  -2   6  -9  183.96   17.06
   2   6  -9  228.68    9.99
   6   2  -9  185.98   18.00
  -2  -6   9  269.02    9.26
  -2  -6  -9  197.45   18.22
  -6  -2   9  199.38   18.01
  -6  -2  -9  194.23   20.56
   2   6 -10  176.43   11.70
   2  -6 -10  179.75   11.71
   6   2 -10  201.02   15.00
   6  -2 -10  163.60   11.44
   6  -2  10  209.41   13.09
   6   2  10  169.19   16.06
   2  -6  10  178.30    9.83
   2   6  10  205.60   10.40
  -2  -6 -10  169.92    8.98
   2  -6 -10  193.40   11.18
  -6  -2 -10  208.44   10.43
  -6   2 -10  161.92    9.32
   6  -2 -10  168.92    8.49
  -2   6 -10  200.88   17.42
   2   6 -10  182.66   13.17
   6   2 -10  190.48   11.07
  -2  -6  10  195.40   10.86
  -2  -6 -10  166.21   11.17
  -6  -2  10  157.80    9.80
  -6  -2 -10  184.36    9.60
   2   6 -11  241.23   14.71
   2  -6 -11  240.88   12.46
   6   2 -11  230.02   14.49
   6  -2 -11  223.06   10.84
   6  -2  11  220.46   11.14
   6   2  11  239.19   11.73
   2  -6  11  224.64   16.11
   2   6  11  231.74   15.21
  -2  -6 -11  221.97   11.75
   2  -6 -11  224.24   11.92
  -6  -2 -11  221.30   15.49
  -6   2 -11  220.08   14.73
   6  -2 -11  232.67   11.18
  -2   6 -11  212.84   15.59
   2   6 -11  242.90   13.96
   6   2 -11  223.20   13.06
  -2  -6 -11  217.52   13.20
  -6  -2  11  226.16   11.03
  -6  -2 -11  231.65   12.93
   2   6 -12   26.39    4.68
   2  -6 -12   33.95    8.26
   6   2 -12   22.10    5.10
   6  -2 -12   25.83    6.84
   6  -2  12   22.92    8.14
   6   2  12   28.04    4.51
   2  -6  12   28.01    4.43
   2   6  12   25.10    5.05
  -2  -6 -12   29.11    5.41
   2  -6 -12   21.30    3.72
  -6  -2 -12   21.31    5.32
  -6   2 -12   23.50    7.86
   6  -2 -12   20.33    2.70
  -2   6 -12   23.27    5.93
   2   6 -12   35.61    6.85
   6   2 -12   21.57    4.33
  -6  -2 -12   22.72    4.80
   2   6 -13  246.06   16.55
   2  -6 -13  279.44   11.27
   6   2 -13  246.73   14.24
   6  -2 -13  226.90    9.72
   6  -2  13  256.13   20.39
   6   2  13  228.48   12.54
   2  -6  13  225.15    9.49
   2   6  13  246.37   17.12
  -2  -6 -13  230.52    8.39
   2  -6 -13  262.69   13.11
  -6  -2 -13  266.04   10.41
  -6   2 -13  205.16   24.55
   6  -2 -13  233.26    8.00
  -2   6 -13  262.84   13.00
   6   2 -13  260.81    8.24
   2   6 -13  235.72   12.73
   2   6 -14  306.32   11.43
   2  -6 -14  292.17   11.33
   6   2 -14  302.98   18.93
   6  -2 -14  289.02    9.37
   6  -2  14  300.78   13.56
   6   2  14  263.45   16.76
   2  -6  14  311.59   13.02
   2   6  14  286.65   10.23
  -2  -6 -14  317.31   19.40
   2  -6 -14  287.55   11.04
  -6  -2 -14  295.52    9.79
  -6   2 -14  291.02   17.78
   6  -2 -14  310.27    9.07
  -2   6 -14  270.45   15.35
   6   2 -14  291.22    7.12
   2   6 -14  305.34   11.98
   2   6 -15  327.60   11.73
   2  -6 -15  299.85   11.21
   6   2 -15  317.48   21.77
   6  -2 -15  294.50   24.31
   6  -2  15  311.37   14.65
   6   2  15  315.59   19.25
   2  -6  15  313.28   11.55
   2   6  15  290.38   14.88
  -2  -6 -15  324.69   12.70
   2  -6 -15  326.91    9.83
  -6  -2 -15  320.01   20.56
  -6   2 -15  299.27    9.39
   6  -2 -15  333.25   10.47
  -2   6 -15  294.42    9.53
   6   2 -15  303.82   14.04
   2   6 -15  323.30   14.61
   2  -6 -16   34.39   11.93
   6   2 -16   39.14    7.22
   6  -2 -16   47.98   13.23
   6  -2  16   45.53   11.28
   6   2  16   44.66   10.50
   2  -6  16   48.50    7.23
   2   6  16   45.14    8.19
  -2  -6  16   34.89    8.32
  -2  -6 -16   55.71    8.66
  -6  -2 -16   48.38    7.89
  -6   2 -16   40.16   14.33
  -2   6 -16   50.12    9.05
   6   2 -16   41.88   11.20
   2   6 -16   51.93   12.43
   2  -6 -17  111.37   26.45
   6   2 -17  127.48   21.26
   6  -2 -17  141.36   16.07
   6  -2  17  123.83   16.14
   6   2  17  118.94   28.62
   2  -6  17  138.99   13.67
   2   6  17  251.46   55.44
  -2  -6  17  112.79   21.90
  -2  -6 -17  122.82   21.30
  -6  -2 -17  141.98   15.62
  -6   2 -17  127.57   28.55
  -2   6 -17  119.43   32.72
   6   2 -17   85.28   25.29
   2   6 -17  109.93   19.48
   2  -6 -18   10.47    4.04
   6   2 -18   38.14    7.25
   6  -2 -18   29.15    8.86
   6  -2  18   16.17    6.85
   6   2  18   14.13    6.32
   2  -6  18   25.68    8.96
   2   6  18   14.36    5.01
  -2  -6  18   18.06    6.07
  -2  -6 -18   34.38    5.31
  -6  -2 -18   29.07    6.46
  -6   2 -18   30.45    6.18
  -2   6 -18   13.87    6.07
   6   2 -18   21.15    5.39
   2   6 -18   28.11    9.80
   2  -6 -19   20.06    9.66
   6   2 -19   18.15    6.83
   6  -2 -19   24.47    8.58
   6  -2  19   29.41    8.14
   6   2  19   20.98    8.12
   2  -6  19   11.37    4.17
   2   6  19   23.05    6.33
  -2  -6  19   23.49    7.32
  -2  -6 -19   19.94    5.20
  -6  -2 -19   25.69    5.66
  -6   2 -19   14.70    9.72
  -2   6 -19   18.61    6.13
   6   2 -19   21.86    7.70
   2   6 -19   25.76    8.81
   6   2 -20    4.73    3.60
   6  -2 -20    0.67    2.78
   6  -2  20    5.62    4.43
   6   2  20   -1.77    4.09
   2  -6  20    0.30    2.45
   2   6  20    6.63    5.98
  -2  -6  20    5.48    3.44
  -2   6  20    5.76    2.59
  -2  -6 -20    9.05    3.72
  -6  -2 -20    6.63    4.29
  -6   2 -20   10.53    3.94
  -2   6 -20   -3.46    4.39
   2   6 -20   -0.16    2.39
   6   2 -21    1.52    2.15
   6  -2 -21    4.70    2.73
   6  -2  21   -0.78    4.13
   6   2  21    0.79    2.75
   2  -6  21   -0.58    4.47
   2   6  21    8.39    5.15
  -2  -6  21    2.99    4.32
  -2   6  21    4.46    2.46
  -6  -2 -21    3.46    3.02
  -6   2 -21   10.20    2.32
  -2   6 -21   -3.40    4.17
   2   6 -21   -1.37    4.67
   3   6   0 1840.37   25.19
   3  -6   0 1995.36   28.74
   6  -3   0 1846.73   28.38
   6   3   0 1882.61   27.19
  -6   3   0 1865.74   25.78
  -3   6   0 1794.22   25.79
  -3  -6   0 1787.06   26.73
  -6  -3   0 1809.37   27.79
   3   6  -1   50.58    2.51
   3  -6  -1   52.07    4.22
   6   3  -1   52.22    6.37
   6  -3  -1   58.79    8.11
   3  -6   1   48.88    6.64
   6  -3   1   53.08    4.27
   6   3   1   51.35    3.14
   3   6   1   46.56    2.26
  -6   3   1   54.60    2.52
  -6   3  -1   49.47    2.56
  -3   6  -1   53.73    6.93
  -3   6   1   56.21    4.15
  -3  -6   1   54.26    3.72
  -3  -6  -1   51.39    5.77
  -6  -3   1   47.13    3.13
  -6  -3  -1   53.71    9.38
   3   6  -2  120.35    3.76
   3  -6  -2  115.77    4.73
   6   3  -2  121.35    8.15
   6  -3  -2  125.31    4.20
   6  -3   2  126.33    8.07
   3  -6   2  123.03    3.57
   6   3   2  120.20    4.87
   3   6   2  116.46    3.96
  -6  -3  -2  123.67    7.95
  -6   3  -2  120.89    5.33
  -3   6  -2  114.39    6.96
  -3   6   2  118.45    2.70
  -3  -6   2  110.60    4.49
  -3  -6  -2  122.04    5.92
  -6  -3   2  126.03    5.79
  -6  -3  -2  116.09    4.07
   3   6  -3  929.90   20.11
   3  -6  -3  950.75   20.69
   6   3  -3  950.31   21.07
   6  -3  -3  955.45   23.00
   6  -3   3  987.76   22.59
   6   3   3  959.72   22.27
   3  -6   3  950.90   22.23
   3   6   3  973.23   20.86
  -6  -3  -3  925.55   21.00
   6  -3  -3  915.92   18.92
  -6   3  -3  948.32   20.81
  -3   6  -3  963.97   22.82
   3   6  -3  984.55   23.42
  -3   6   3  919.13   19.35
  -3  -6   3  977.86   22.89
  -3  -6  -3  931.96   21.34
  -6  -3   3  978.41   21.78
  -6  -3  -3  912.94   20.55
   3   6  -4 1296.80   27.85
   3  -6  -4 1341.73   29.61
   6   3  -4 1344.72   30.95
   6  -3  -4 1336.16   32.53
   6  -3   4 1371.22   30.97
   6   3   4 1334.81   29.70
   3  -6   4 1321.77   29.57
   3   6   4 1392.97   29.50
  -6  -3  -4 1414.97   30.81
   6  -3  -4 1364.01   28.10
  -6   3  -4 1326.82   28.81
  -3   6  -4 1371.79   31.62
   3   6  -4 1318.92   29.47
   6   3  -4 1365.56   29.71
  -3  -6   4 1393.35   31.03
  -3  -6  -4 1303.17   29.07
  -6  -3   4 1454.39   32.40
  -6  -3  -4 1333.57   30.67
   3   6  -5 1303.39   29.01
   3  -6  -5 1304.96   29.13
   6   3  -5 1317.15   29.82
   6  -3  -5 1314.93   29.53
   6  -3   5 1341.72   33.48
   6   3   5 1356.51   31.22
   3  -6   5 1350.50   29.25
   3   6   5 1404.92   30.06
  -6  -3  -5 1287.85   29.04
  -6   3  -5 1311.25   29.03
  -3   6  -5 1278.15   33.29
   3   6  -5 1329.99   30.33
   6   3  -5 1350.27   32.96
  -3  -6   5 1322.59   31.08
  -3  -6  -5 1305.97   31.00
  -6  -3   5 1350.98   29.50
  -6  -3  -5 1301.21   29.25
   3   6  -6    2.53    1.83
   3  -6  -6    1.31    1.43
   6   3  -6    2.37    1.73
   6  -3  -6    1.52    1.62
   6  -3   6    2.33    2.80
   6   3   6   11.27    5.49
   3  -6   6    2.13    1.03
   3   6   6    2.03    1.76
   3  -6  -6    1.44    1.35
  -3  -6  -6    1.98    1.74
  -6  -3  -6    4.79    2.20
  -6   3  -6    2.06    2.43
  -3   6  -6   12.43    6.23
   3   6  -6   -0.07    4.32
   6   3  -6    2.14    3.09
  -3  -6   6    1.59    1.33
  -3  -6  -6    1.44    1.44
  -6  -3   6    2.02    2.51
  -6  -3  -6    3.12    0.87
   3   6  -7  464.17   13.77
   3  -6  -7  387.94   13.03
   6   3  -7  412.49   14.71
   6  -3  -7  454.96   14.82
   6  -3   7  390.35   17.78
   6   3   7  462.50   14.90
   3  -6   7  477.17   15.41
   3   6   7  393.14   13.60
   3  -6  -7  504.72   13.87
  -3  -6  -7  480.99   16.27
  -6  -3  -7  386.32   12.02
  -6   3  -7  435.33   16.56
   6  -3  -7  457.77   12.09
  -3   6  -7  403.06   13.80
   3   6  -7  418.81   14.65
   6   3  -7  398.79   15.16
  -3  -6   7  408.12   14.67
  -3  -6  -7  470.66   13.52
  -6  -3   7  441.25   12.36
  -6  -3  -7  394.83   11.24
   3   6  -8  210.76    7.35
   3  -6  -8  188.90    8.00
   6   3  -8  195.96   17.88
   6  -3   8  196.80   14.23
   6   3   8  219.91   15.88
   3  -6   8  203.69    8.96
   3   6   8  189.09    7.56
  -3  -6  -8  215.43    8.69
   3  -6  -8  175.58    5.49
  -6  -3  -8  195.34   13.89
  -6   3  -8  204.21   11.45
   6  -3  -8  216.31    4.26
  -3   6  -8  174.04    7.69
   3   6  -8  224.97   29.70
   6   3  -8  167.09   10.22
  -3  -6   8  182.90   10.31
  -3  -6  -8  219.22    5.57
  -6  -3   8  205.31    5.14
  -6  -3  -8  196.01    5.72
   3  -6  -9  582.47   17.03
   6   3  -9  573.27   13.66
   6  -3  -9  563.17   14.96
   6  -3   9  588.36   14.93
   6   3   9  571.74   14.75
   3  -6   9  559.80   15.61
   3   6   9  599.75   16.88
  -3  -6  -9  548.55   12.31
   3  -6  -9  567.38   11.05
  -6  -3  -9  613.48   14.70
  -6   3  -9  570.90   20.28
   6  -3  -9  571.04   10.52
  -3   6  -9  609.37   18.94
   3   6  -9  539.35   18.61
   6   3  -9  585.01   17.76
  -3  -6   9  591.34   11.53
  -3  -6  -9  558.44   13.09
  -6  -3   9  544.48   12.74
  -6  -3  -9  588.31   13.92
   3   6 -10   84.78   15.71
   3  -6 -10   80.62   15.99
   6   3 -10   93.44   15.60
   6  -3 -10   66.76   14.39
   6  -3  10   71.70   15.60
   6   3  10   79.64    8.20
   3  -6  10   77.48   15.87
   3   6  10   78.65    8.32
  -3  -6 -10   75.10   13.46
   3  -6 -10   81.37    7.83
  -6  -3 -10   78.61   14.55
  -6   3 -10   84.43    9.08
   6  -3 -10   66.96    8.74
  -3   6 -10   86.09    7.10
   3   6 -10  116.91   15.66
   6   3 -10   79.11    7.96
  -3  -6  10   77.95    9.13
  -3  -6 -10   63.92    3.27
  -6  -3  10   75.38    4.16
  -6  -3 -10   76.72    5.69
   3   6 -11   77.48   13.85
   3  -6 -11   95.58   15.40
   6   3 -11   91.38   16.98
   6  -3 -11   81.81   15.30
   6  -3  11  103.44    7.56
   6   3  11   70.26   15.42
   3  -6  11   68.71    9.26
   3   6  11  110.52    6.69
  -3  -6 -11   72.82    7.64
   3  -6 -11   94.95    9.57
  -6  -3 -11  107.46   18.80
  -6   3 -11   75.37   12.41
   6  -3 -11   68.25    9.59
  -3   6 -11   95.88    9.40
   3   6 -11   78.37   13.05
   6   3 -11   91.20   19.01
  -3  -6  11   92.20   10.62
  -3  -6 -11   71.37    7.09
  -6  -3  11   65.73    6.81
  -6  -3 -11   89.38    7.69
   3   6 -12  460.68   20.70
   3  -6 -12  475.74   18.70
   6   3 -12  430.79   28.15
   6  -3 -12  504.87   22.77
   6  -3  12  484.73   23.47
   6   3  12  468.05   24.28
   3  -6  12  469.24   20.44
   3   6  12  478.27   20.80
  -3  -6 -12  490.46   23.09
   3  -6 -12  462.96   18.84
  -6  -3 -12  502.41   21.85
  -6   3 -12  473.92   20.64
   6  -3 -12  543.87   21.27
  -3   6 -12  452.81   21.18
   3   6 -12  468.02   23.21
   6   3 -12  468.27   18.98
  -6  -3 -12  475.71   18.57
   3   6 -13   53.25    8.60
   3  -6 -13   49.29    8.51
   6   3 -13   52.13    7.79
   6  -3 -13   54.32   11.27
   6  -3  13   63.14   14.73
   6   3  13   61.09   15.25
   3  -6  13   69.74   12.62
   3   6  13   47.21    5.24
  -3  -6 -13   61.89   11.18
   3  -6 -13   47.68    6.27
  -6  -3 -13   58.52   11.28
  -6   3 -13   65.28   13.52
   6  -3 -13   40.52    6.46
  -3   6 -13   51.43    7.91
   6   3 -13   59.80    8.16
   3   6 -13   56.23    9.13
   3   6 -14   40.27    7.98
   3  -6 -14   41.81   11.58
   6   3 -14   35.43    7.63
   6  -3 -14   47.75    8.25
   6  -3  14   34.66    8.95
   6   3  14   30.16    8.14
   3  -6  14   34.09    7.26
   3   6  14   36.86    8.57
  -3  -6 -14   33.26    5.38
   3  -6 -14   38.29    4.80
  -6  -3 -14   34.78    6.41
  -6   3 -14   37.55    7.85
  -3   6 -14   33.46    7.08
   6   3 -14   39.47    7.03
   3   6 -14   39.60    6.93
   3   6 -15   33.58    8.26
   3  -6 -15   46.59    8.66
   6   3 -15   45.59    8.95
   6  -3 -15   29.27    9.71
   6  -3  15   27.21    5.54
   6   3  15   40.57    7.12
   3  -6  15   32.79    8.27
   3   6  15   46.46    9.57
  -3  -6 -15   40.08    7.13
  -6  -3 -15   40.40    7.04
  -6   3 -15   29.34    7.94
  -3   6 -15   40.34    9.50
   6   3 -15   43.78    7.84
   3   6 -15   32.94    6.29
   3   6 -16   97.05   18.48
   3  -6 -16   86.62   18.18
   6   3 -16   98.07   20.80
   6  -3 -16   84.99   16.53
   6  -3  16  107.19   20.78
   6   3  16   98.01   19.60
   3  -6  16   95.71   14.60
   3   6  16   88.68   11.54
  -3  -6 -16  100.91   19.72
  -6  -3 -16  110.49   17.45
  -6   3 -16  103.76    9.72
  -3   6 -16   96.50   22.80
   6   3 -16   96.22   20.35
   3   6 -16  104.66    9.41
   3   6 -17    5.88    5.72
   3  -6 -17    6.68    5.74
   6   3 -17   11.57    6.49
   6  -3 -17   10.80    3.68
   6  -3  17   14.99    7.16
   6   3  17    9.95    3.67
   3  -6  17   12.99    6.00
   3   6  17    7.34    2.78
  -3  -6 -17    9.52    3.13
  -6  -3 -17   12.11    4.23
  -6   3 -17    8.17    7.09
  -3   6 -17    9.51    7.26
   6   3 -17    5.66    2.96
   3   6 -17    4.10    3.19
   3  -6 -18   29.30    7.99
   6   3 -18   31.02    5.76
   6  -3 -18   33.08    8.72
   6  -3  18   43.42    9.69
   6   3  18   23.88    9.60
   3  -6  18   41.36   10.67
   3   6  18   25.96   10.58
  -3  -6  18   30.29    7.74
  -3  -6 -18   33.65    4.81
  -6  -3 -18   63.90   12.77
  -6   3 -18   30.62   11.24
  -3   6 -18   22.27   10.09
   6   3 -18   35.78    8.06
   3   6 -18   40.24    9.17
   3  -6 -19   37.03    8.43
   6   3 -19   48.79   12.01
   6  -3 -19   54.69    9.21
   6  -3  19   48.49   16.70
   6   3  19   38.96   12.78
   3  -6  19   42.72   12.71
   3   6  19   40.30   11.17
  -3  -6  19   45.25   11.75
  -3  -6 -19   51.51    7.83
  -6  -3 -19   60.33    9.51
  -6   3 -19   54.31   12.61
  -3   6 -19   48.61   14.74
   6   3 -19   49.21    7.90
   3   6 -19   44.25   12.14
   3  -6 -20    5.16    2.46
   6   3 -20   -6.62    3.95
   6  -3 -20    6.79    2.97
   6  -3  20    5.45    4.73
   6   3  20    3.80    4.12
   3  -6  20   -1.82    4.44
   3   6  20    4.02    4.59
  -3  -6  20    0.97    4.20
  -3  -6 -20    0.63    2.64
  -6  -3 -20   -0.13    3.84
  -6   3 -20    1.37    2.86
  -3   6 -20    2.74    2.21
   6   3 -20   -1.06    3.55
   3   6 -20    8.60    5.43
   6   3 -21    7.34    5.20
   6  -3  21    7.94    6.89
   3  -6  21    5.48    3.88
   3   6  21   13.10    6.01
  -3  -6  21    4.03    6.69
  -3  -6 -21   10.85    4.92
  -6  -3 -21   15.11    5.31
  -6   3 -21    6.94    2.98
  -3   6 -21   11.29    4.03
   3   6 -21    5.84    3.13
   4   6   0  325.39   16.11
   4  -6   0  310.30   16.73
   6  -4   0  333.30   17.22
   6   4   0  314.07   16.39
  -6   4   0  335.12   16.22
  -4   6   0  318.49   16.06
  -4  -6   0  336.87   17.21
  -6  -4   0  317.71   16.24
   4   6  -1   52.07    4.52
   4  -6  -1   34.84    6.84
   6   4  -1   40.23    6.64
   6  -4  -1   50.55    4.68
   4  -6   1   60.26    4.64
   6  -4   1   43.48    4.61
   4   6   1   31.01    3.86
   6   4   1   69.51    8.99
  -6   4   1   32.09    3.34
  -6   4  -1   55.12    3.81
  -4   6  -1   36.53    3.91
  -4   6   1   49.55    3.74
  -4  -6   1   28.29    5.89
  -4  -6  -1   63.80   10.09
  -6  -4   1   58.55    6.47
  -6  -4  -1   46.09    7.41
   4   6  -2  535.24   12.01
   4  -6  -2  553.38   13.00
   6   4  -2  549.99   14.09
   6  -4  -2  526.50   14.00
   4  -6   2  521.16   12.42
   6  -4   2  524.46   13.09
   6   4   2  546.90   13.57
   4   6   2  553.50   13.13
  -6   4  -2  539.80   12.31
  -4   6  -2  538.48   13.03
  -4   6   2  531.18   11.63
   6  -4  -2  528.10   10.99
  -4  -6   2  515.41   14.28
  -4  -6  -2  527.06   12.54
  -6  -4   2  512.54   13.45
  -6  -4  -2  550.03   13.20
   4   6  -3  127.22    7.69
   4  -6  -3  160.31    8.87
   6   4  -3  159.83    8.76
   6  -4  -3  151.03   11.72
   6  -4   3  160.11    9.07
   4  -6   3  136.71    7.87
   6   4   3  134.82    8.84
   4   6   3  165.72    9.14
  -6  -4  -3  173.13    9.90
  -4   6   3  122.30    6.13
  -6   4  -3  130.06    7.75
  -4   6  -3  169.06   10.97
  -4   6   3  129.93    6.58
   4   6  -3  137.20   13.91
  -4  -6   3  155.18   11.59
  -4  -6  -3  143.18    8.42
  -6  -4   3  126.55    9.12
  -6  -4  -3  163.78   10.81
   4   6  -4 1167.17   26.38
   4  -6  -4 1123.15   25.74
   6   4  -4 1103.33   24.96
   6  -4  -4 1146.27   25.73
   6  -4   4 1156.00   27.35
   4  -6   4 1109.55   24.68
   6   4   4 1142.45   25.36
   4   6   4 1173.80   25.34
  -4  -6  -4 1161.84   27.20
  -6  -4  -4 1125.42   27.68
  -6   4  -4 1158.91   27.54
  -4   6   4 1068.59   22.03
  -4   6  -4 1144.64   26.60
  -4   6   4 1130.18   23.32
   4   6  -4 1177.88   32.77
   6   4  -4 1135.00   29.66
  -4  -6   4 1139.13   27.07
  -4  -6  -4 1185.47   26.63
  -6  -4   4 1115.53   25.85
  -6  -4  -4 1118.93   24.95
   4   6  -5  371.81   18.50
   4  -6  -5  417.78    7.95
   6   4  -5  433.61    9.26
   6  -4  -5  376.72   19.91
   6  -4   5  435.34   10.29
   4  -6   5  386.01   19.99
   6   4   5  395.22   20.87
   4   6   5  425.02    7.77
  -4  -6  -5  399.24   20.84
  -6  -4  -5  431.87    8.65
  -6   4  -5  383.49   20.40
  -4   6  -5  412.65   20.64
  -4   6   5  385.70   18.33
   4   6  -5  381.87   19.73
   6   4  -5  438.73   10.91
  -4  -6   5  439.78    7.58
  -4  -6  -5  381.20   19.54
  -6  -4   5  390.63   19.43
  -6  -4  -5  428.37    9.47
   4   6  -6   91.47    7.62
   4  -6  -6   95.07    6.75
   6   4  -6  112.65    8.10
   6  -4  -6   98.34    5.12
   6  -4   6  129.48    6.15
   6   4   6  101.00   10.03
   4  -6   6   92.69    7.71
   4   6   6   96.38    4.14
  -4  -6  -6   92.73    9.58
  -6  -4  -6   97.19    7.92
   6  -4  -6   85.97    1.71
  -6   4  -6   91.05    7.65
  -4   6  -6  109.43   11.36
   4   6  -6   96.22   13.44
   6   4  -6  106.51    9.80
  -4  -6   6  107.87    8.91
  -4  -6  -6   97.97    9.89
  -6  -4   6   96.77    4.20
  -6  -4  -6  109.52    8.25
   4   6  -7  134.30    8.37
   4  -6  -7  118.15    5.06
   6   4  -7  132.74    5.81
   6  -4  -7  130.89    6.47
   6  -4   7  122.87   13.67
   6   4   7  142.40    6.53
   4  -6   7  133.03   12.99
   4   6   7  117.41   11.33
  -4  -6  -7  116.69   12.00
  -6  -4  -7  135.51   15.43
  -6   4  -7  152.83    9.49
  -4   6  -7  137.92    6.56
   4   6  -7  142.34   28.79
   6   4  -7  144.36   14.42
  -4  -6   7  126.81    5.18
  -4  -6  -7  126.50    8.24
  -6  -4   7  128.59    5.58
  -6  -4  -7  114.78    6.27
   4   6  -8  900.88   18.42
   4  -6  -8  923.35   16.74
   6   4  -8  968.49   28.86
   6  -4  -8 1014.54   17.65
   6  -4   8  912.53   18.94
   6   4   8  942.89   18.81
   4  -6   8  924.37   17.60
   4   6   8  915.88   20.00
  -4  -6  -8  933.81   23.74
   4  -6  -8  903.28   13.78
  -6  -4  -8  918.60   18.34
   6  -4  -8  919.10   12.54
  -6   4  -8  957.24   18.85
  -4   6  -8  917.13   17.73
   4   6  -8  909.21   17.40
   6   4  -8  953.72   18.12
  -4  -6   8  943.19   17.56
  -4  -6  -8  943.24   15.93
  -6  -4   8  931.24   14.97
  -6  -4  -8  896.29   14.33
   4   6  -9  222.94   23.21
   4  -6  -9  199.60   24.26
   6   4  -9  203.25   17.56
   6  -4  -9  173.34   15.77
   6  -4   9  206.49   18.88
   6   4   9  190.24   17.40
   4  -6   9  181.52   17.94
   4   6   9  189.95   18.83
  -4  -6  -9  167.13   19.67
   4  -6  -9  193.30   16.03
  -6  -4  -9  210.53   17.88
   6  -4  -9  167.66   14.05
  -6   4  -9  179.93   18.34
  -4   6  -9  219.35   24.47
   4   6  -9  178.84   23.66
   6   4  -9  200.65   27.44
  -4  -6   9  201.70   17.30
  -4  -6  -9  185.19   17.23
  -6  -4   9  174.15   14.80
  -6  -4  -9  214.96   20.39
   4   6 -10    3.39    2.64
   4  -6 -10    0.99    2.03
   6   4 -10    3.14    2.48
   6  -4 -10    2.41    2.40
   6  -4  10    4.08    3.02
   6   4  10    1.76    2.49
   4  -6  10    5.72    2.82
   4   6  10    2.22    2.65
  -4  -6 -10    4.51    2.53
  -6  -4 -10    5.81    2.82
   4  -6 -10   -0.57    1.12
   6  -4 -10   -0.66    1.17
  -6   4 -10   10.54    3.33
  -4   6 -10    2.44    6.04
   4   6 -10   -0.58    4.48
   6   4 -10   -5.90    4.03
  -4  -6  10    0.26    2.03
  -4  -6 -10    4.47    1.88
  -6  -4  10    2.50    1.76
  -6  -4 -10   -0.24    1.78
   4   6 -11  151.42    6.60
   4  -6 -11  147.48    7.00
   6   4 -11  153.26    8.31
   6  -4 -11  152.44   19.67
   6  -4  11  134.08   12.39
   6   4  11  149.56    6.83
   4  -6  11  155.80    9.95
   4   6  11  156.15   13.56
  -4  -6 -11  143.07    8.35
  -6  -4 -11  159.05   10.15
   4  -6 -11  160.40    8.52
   6  -4 -11  146.55    6.94
  -6   4 -11  162.47   10.92
  -4   6 -11  144.80    8.20
   4   6 -11  159.13   18.94
   6   4 -11  160.06   15.85
  -4  -6  11  149.96    6.49
  -4  -6 -11  155.55    7.03
  -6  -4  11  159.78    8.56
  -6  -4 -11  159.25    6.95
   4   6 -12  212.78   10.76
   4  -6 -12  203.16   11.10
   6   4 -12  203.99   15.38
   6  -4 -12  195.04   16.49
   6  -4  12  215.66   12.39
   6   4  12  191.63   11.53
   4  -6  12  181.03   14.53
   4   6  12  210.25   11.08
  -4  -6 -12  187.09   10.69
  -6  -4 -12  232.41   12.88
   4  -6 -12  180.54   11.74
  -6   4 -12  206.50   12.05
  -4   6 -12  208.67   16.89
   4   6 -12  209.06   12.11
   6   4 -12  219.16   12.70
  -4  -6 -12  194.56   11.82
  -6  -4 -12  188.72   15.30
   4   6 -13    6.90    2.50
   4  -6 -13   11.35    4.06
   6   4 -13   12.62    4.93
   6  -4 -13   12.35    5.87
   6  -4  13    8.05    3.49
   6   4  13    5.69    4.99
   4  -6  13   13.83    3.59
   4   6  13    5.70    4.89
  -4  -6 -13    9.03    4.69
  -6  -4 -13   22.03    4.33
  -6   4 -13    5.11    2.53
  -4   6 -13    9.45    3.97
   6   4 -13    6.73    3.68
   4   6 -13    2.31    3.25
   4   6 -14   86.67   15.74
   4  -6 -14  107.42   17.97
   6   4 -14   76.85   15.91
   6  -4 -14   88.88   17.14
   6  -4  14   93.60   19.28
   6   4  14   93.29   20.54
   4  -6  14   87.46    8.15
   4   6  14   97.15   13.26
  -4  -6 -14   87.20   13.35
  -6  -4 -14   94.23   14.59
  -6   4 -14   77.51   16.26
  -4   6 -14   93.37   10.97
   4   6 -14   91.52   17.22
   6   4 -14   85.19   16.22
   4   6 -15   44.92    7.74
   4  -6 -15   47.39   11.49
   6   4 -15   59.13   10.17
   6  -4 -15   52.23    9.26
   6  -4  15   48.33   10.31
   6   4  15   49.55    9.77
   4  -6  15   52.35   10.35
   4   6  15   53.33    8.94
  -4  -6 -15   56.94    9.64
  -6  -4 -15   58.69   10.15
  -6   4 -15   42.53   11.93
  -4   6 -15   43.49    9.88
   6   4 -15   49.56    9.61
   4   6 -15   52.36   10.59
   4   6 -16   30.18    8.15
   4  -6 -16   47.03    9.98
   6   4 -16   42.87    7.89
   6  -4 -16   37.63    8.35
   6  -4  16   32.35   10.01
   6   4  16   42.02   12.13
   4  -6  16   34.15   10.18
   4   6  16   30.98    9.08
  -4  -6 -16   37.50    4.87
  -6  -4 -16   34.89    7.68
  -6   4 -16   28.76    8.75
  -4   6 -16   30.54    7.97
   6   4 -16   33.71    7.72
   4   6 -16   34.76    7.66
   4   6 -17   54.01   12.01
   4  -6 -17   44.63   10.22
   6   4 -17  290.22   76.48
   6  -4 -17   57.69   13.63
   6  -4  17   68.12   17.49
   6   4  17   51.11   14.88
   4  -6  17   53.13   10.90
   4   6  17   38.21   10.75
  -4  -6 -17   56.88   10.43
  -6  -4 -17   66.02   10.48
  -6   4 -17   54.56   11.69
  -4   6 -17   52.77   13.95
   6   4 -17   42.47    9.22
   4   6 -17   39.44   11.84
   4   6 -18    4.93    3.50
   4  -6 -18   -1.01    4.30
   6   4 -18    3.65    3.05
   6  -4 -18    1.08    6.48
   6  -4  18    2.99    3.68
   6   4  18    2.46    4.34
   4  -6  18    2.98    3.27
   4   6  18    1.83    2.29
  -4  -6 -18    3.49    2.57
  -6  -4 -18    1.68    5.07
  -6   4 -18    6.75    4.23
  -4   6 -18  -10.46   14.17
   6   4 -18    7.25    3.69
   4   6 -18    3.16    4.15
   4   6 -19    6.91    3.38
   4  -6 -19    7.87    2.64
   6   4 -19    6.70    3.65
   6  -4 -19    9.52    5.91
   6  -4  19   15.20    8.68
   6   4  19   14.92    4.67
   4  -6  19   11.02    5.49
   4   6  19   13.40    4.16
  -4  -6 -19   11.40    4.69
  -6  -4 -19   18.60    4.37
  -6   4 -19   12.41    6.58
  -4   6 -19   -2.03    4.72
   6   4 -19    1.91    4.20
   4   6 -19   10.80    6.94
   4  -6 -20   55.25   12.55
   6   4 -20   55.50    9.97
   6  -4 -20   52.00    9.05
   6  -4  20   40.91   17.19
   6   4  20   37.16   15.50
   4  -6  20   40.07   18.29
   4   6  20   40.75   15.12
  -4  -6  20   46.63   14.94
  -4  -6 -20   49.01   12.16
  -6  -4 -20   59.66   11.14
  -6   4 -20   45.31   14.07
  -4   6 -20   43.30   17.23
   6   4 -20   57.91    7.33
   4   6 -20   52.18    9.84
   4  -6 -21   22.03    7.00
   6   4 -21   21.56    9.21
   4  -6  21   12.18    7.39
   4   6  21   25.83    8.48
  -4  -6  21   23.67   10.37
  -4  -6 -21   33.99    6.62
  -6  -4 -21   21.45    4.66
   6   4 -21   18.96    8.78
   4   6 -21   15.22    6.86
   5  -6   0  290.05   18.08
   5   6   0  316.74   15.56
   6  -5   0  287.36   14.59
   6   5   0  294.28   15.52
  -6   5   0  301.76   14.71
  -5   6   0  297.31   15.00
  -5  -6   0  295.00   15.36
  -6  -5   0  275.89   14.47
   5   6  -1 1439.13   30.73
   5  -6  -1 1441.65   32.02
   6   5  -1 1503.00   32.57
   6  -5  -1 1437.59   31.87
   5  -6   1 1423.18   33.36
   6  -5   1 1485.01   33.24
   5   6   1 1481.45   31.26
   6   5   1 1408.28   30.82
  -6   5   1 1485.17   30.68
  -6   5  -1 1355.74   28.88
  -5   6   1 1394.76   28.93
  -5   6  -1 1501.45   31.52
  -5  -6   1 1444.06   32.95
  -5  -6  -1 1399.21   31.84
  -6  -5   1 1418.88   31.26
  -6  -5  -1 1493.18   32.84
   5   6  -2  170.79    9.20
   5  -6  -2  189.96   10.49
   6   5  -2  206.31   13.24
   6  -5  -2  164.92   10.37
   5  -6   2  174.81   11.44
   6  -5   2  192.52   12.69
   6   5   2  165.80    9.22
   5   6   2  219.97   11.40
  -5   6   2  147.36    7.05
  -6   5  -2  168.09    9.50
  -5   6  -2  200.60   11.16
  -5  -6   2  214.71   14.14
  -5  -6  -2  175.72   13.25
  -6  -5   2  164.55    9.35
  -6  -5  -2  179.29    9.78
   5   6  -3  138.37    7.86
   5  -6  -3  143.33    8.61
   6   5  -3  156.98    8.82
   6  -5  -3  152.86   13.65
   6  -5   3  150.13    8.64
   5  -6   3  154.35    8.80
   6   5   3  151.09    8.41
   5   6   3  150.59   10.20
  -6   5  -3  175.10   12.51
  -5   6  -3  151.51   13.08
  -5  -6   3  165.84   13.54
  -5  -6  -3  135.51   12.10
  -6  -5   3  144.64    8.50
  -6  -5  -3  149.92    8.52
   5   6  -4  191.72   10.11
   5  -6  -4  166.44    9.46
   6   5  -4  166.79    9.69
   6  -5  -4  181.88   10.45
   6  -5   4  184.14   14.99
   5  -6   4  182.85   10.21
   6   5   4  171.49   10.11
   5   6   4  167.20    8.98
  -6  -5  -4  158.21    9.01
  -6   5  -4  191.37   11.26
  -5   6  -4  175.31   13.58
   5   6  -4  202.18   12.20
   6   5  -4  162.04   11.39
  -5  -6   4  172.09   13.17
  -5  -6  -4  182.75   10.71
  -6  -5   4  173.51    9.61
  -6  -5  -4  177.25   14.07
   5   6  -5  275.06    9.15
   6   5  -5  253.89   12.07
   5  -6  -5  239.85   12.65
   6  -5  -5  287.20   11.47
   6  -5   5  240.89    8.23
   5  -6   5  261.91    9.04
   6   5   5  287.25    9.39
   5   6   5  242.87   10.35
  -5  -6  -5  281.38   10.16
  -6  -5  -5  229.97    9.18
  -6   5  -5  279.86   11.02
  -5   6  -5  265.55    9.27
   5   6  -5  293.97   20.68
   6   5  -5  250.07   19.43
  -5  -6   5  237.30   10.01
  -5  -6  -5  280.68    9.44
  -6  -5   5  286.83   13.00
  -6  -5  -5  247.43   11.35
   5   6  -6  342.63   11.49
   6   5  -6  321.68   11.74
   5  -6  -6  321.41   13.63
   6  -5  -6  322.24   11.74
   6  -5   6  330.11   10.95
   5  -6   6  330.41   10.38
   6   5   6  319.73   10.13
   5   6   6  337.50   11.02
  -5  -6  -6  316.13   10.43
  -6  -5  -6  414.00   14.96
  -6   5  -6  330.17   11.16
  -5   6  -6  326.68   12.00
   5   6  -6  331.02   13.07
   6   5  -6  316.63   11.95
  -5  -6   6  330.80   12.06
  -5  -6  -6  340.84   11.29
  -6  -5   6  327.57    9.77
  -6  -5  -6  335.21   13.38
   5   6  -7   92.44   10.76
   6   5  -7   93.28   10.64
   5  -6  -7   86.09   14.98
   6  -5  -7   84.42   13.04
   6  -5   7  105.18   11.66
   5  -6   7   92.30   12.03
   6   5   7   94.64   13.82
   5   6   7   96.00   12.85
  -5  -6  -7  373.55   59.55
  -6  -5  -7   89.16    9.98
  -6   5  -7   82.07   11.34
  -5   6  -7  105.73   14.31
   5   6  -7   96.88   18.81
   6   5  -7   90.09   17.88
  -5  -6   7   90.40    8.86
  -6  -5   7   97.24   10.42
  -5  -6  -7   89.39   11.32
  -6  -5  -7   96.13   16.53
   5   6  -8  124.34   15.28
   6   5  -8  112.08   13.67
   5  -6  -8  119.10   14.74
   6  -5  -8  111.71   20.97
   6  -5   8  118.62   12.32
   5  -6   8  106.80   11.91
   6   5   8  125.28   11.82
   5   6   8  123.39   11.46
  -5  -6  -8  116.39   16.04
  -6  -5  -8  127.38   13.37
  -6   5  -8  135.08   14.61
  -5   6  -8  118.78   11.57
   5   6  -8  109.09   13.99
   6   5  -8  138.00   26.54
  -5  -6   8  127.34   13.70
  -6  -5   8  115.54   13.70
  -5  -6  -8  128.24   12.52
  -6  -5  -8  127.12   12.40
   5   6  -9   76.17   12.74
   6   5  -9   97.03    7.68
   5  -6  -9   90.48   14.79
   6  -5  -9   70.08   13.49
   6  -5   9   95.18   17.81
   5  -6   9   80.03    8.42
   6   5   9   74.96   15.18
   5   6   9   89.84   11.52
  -5  -6  -9   86.89   15.18
   5  -6  -9   82.81    5.52
  -6  -5  -9   90.02    6.51
  -6   5  -9   76.25   13.13
  -5   6  -9   87.84    7.30
   5   6  -9   92.73   19.35
   6   5  -9   89.41   14.63
  -5  -6   9   93.78    4.68
  -6  -5   9   78.64    5.81
  -5  -6  -9   92.18    9.81
  -6  -5  -9   99.73    4.83
   5   6 -10  341.23   11.12
   6   5 -10  395.47   13.85
   5  -6 -10  365.81    9.86
   6  -5 -10  352.09   12.76
   6  -5  10  430.24   15.23
   5  -6  10  341.95   10.78
   6   5  10  352.58   12.14
   5   6  10  386.38   12.44
  -5  -6 -10  328.79    9.95
  -6  -5 -10  372.23   10.24
  -6   5 -10  369.73   12.00
  -5   6 -10  341.32   10.54
   5   6 -10  366.21   15.08
   6   5 -10  347.18   16.23
  -5  -6  10  347.30   10.49
  -6  -5  10  371.63   14.17
  -5  -6 -10  346.35   12.92
  -6  -5 -10  341.63   14.58
   5   6 -11  168.22   19.96
   6   5 -11  140.42   10.00
   5  -6 -11  117.41   16.68
   6  -5 -11  161.40    9.91
   6  -5  11  126.35    7.15
   5  -6  11  154.62    8.25
   6   5  11  148.94   10.59
   5   6  11  130.99   13.96
  -5  -6 -11  148.36   13.76
  -6  -5 -11  125.22    9.65
  -6   5 -11  190.03   21.45
  -5   6 -11  124.39   12.09
   5   6 -11  159.87   14.67
   6   5 -11  130.89   13.02
  -5  -6  11  119.29   12.47
  -6  -5  11  154.62    8.23
  -5  -6 -11  163.28    8.50
  -6  -5 -11  131.23   11.51
   5   6 -12  122.80    7.20
   6   5 -12   99.54    7.85
   5  -6 -12  106.15   19.79
   6  -5 -12   99.93   16.18
   6  -5  12  111.23   11.22
   5  -6  12  116.74   12.65
   6   5  12  103.65   17.70
   5   6  12  104.46   17.88
  -5  -6 -12  118.84    9.93
  -6  -5 -12   92.54    7.84
  -6   5 -12  153.19   11.25
  -5   6 -12   99.25   22.64
   5   6 -12  115.84   20.73
   6   5 -12  102.84   15.09
  -5  -6 -12  125.39    9.23
  -6  -5 -12   89.69    9.06
   5   6 -13  260.87   12.92
   6   5 -13  284.06   17.65
   5  -6 -13  235.40   10.99
   6  -5 -13  253.88   10.65
   6  -5  13  223.47   10.43
   5  -6  13  241.80   10.34
   6   5  13  225.78   10.78
   5   6  13  218.55    9.98
  -5  -6 -13  228.12   20.92
  -6  -5 -13  218.08   19.04
  -6   5 -13  217.83   14.79
  -5   6 -13  235.09    9.27
   5   6 -13  206.30   24.60
   6   5 -13  207.01   25.39
   5   6 -14   71.29   11.47
   6   5 -14   65.96   12.16
   5  -6 -14   51.04    8.83
   6  -5 -14   57.94   12.57
   6  -5  14   46.12   15.87
   5  -6  14   52.69   11.08
   6   5  14   39.43   13.63
   5   6  14   62.58   14.76
  -5  -6 -14   56.12   11.52
  -6  -5 -14   65.55   13.09
  -6   5 -14   58.16   11.33
  -5   6 -14   47.10    9.67
   5   6 -14   44.48   11.03
   6   5 -14   60.84   11.03
   5   6 -15  124.30   16.75
   6   5 -15  170.14   30.19
   5  -6 -15  121.90   19.78
   6  -5 -15  164.88   28.63
   6  -5  15  121.58   19.21
   5  -6  15  135.38   15.43
   6   5  15  120.79   21.50
   5   6  15  135.77   21.95
  -5  -6 -15  126.26   15.34
  -6  -5 -15  132.44   21.00
  -6   5 -15  142.58   14.72
  -5   6 -15  119.83   26.45
   6   5 -15  141.97   23.21
   5   6 -15   87.09   17.50
   5   6 -16   46.77   10.75
   6   5 -16   68.48   14.49
   5  -6 -16   48.25   13.48
   6  -5 -16   46.45    9.45
   6  -5  16   58.67    7.95
   5  -6  16   35.69   14.39
   6   5  16   44.32   11.30
   5   6  16   44.37   15.08
  -5  -6 -16   41.50    8.18
  -6  -5 -16   55.38   10.87
  -6   5 -16   49.74   11.57
  -5   6 -16   64.71   15.34
   6   5 -16   36.89   12.47
   5   6 -16   51.02   11.52
   5   6 -17   55.88   12.27
   6   5 -17   60.07   11.45
   5  -6 -17  302.32   70.10
   6  -5 -17   74.88   15.85
   6  -5  17   46.97    9.40
   5  -6  17   53.85   14.15
   6   5  17   61.43   16.20
   5   6  17   84.22   15.90
  -5  -6 -17   70.83    9.41
  -6  -5 -17   61.01    8.40
  -6   5 -17   55.85   13.99
  -5   6 -17   55.59   15.03
   6   5 -17   46.90    9.82
   5   6 -17   57.25    9.86
   5   6 -18   19.29    4.22
   6   5 -18   17.41    4.40
   5  -6 -18    9.72    4.49
   6  -5 -18    8.51    2.86
   6  -5  18   24.43    8.05
   5  -6  18   17.83    7.91
   6   5  18   11.69    6.18
   5   6  18   10.18    3.77
  -5  -6 -18    9.80    2.74
  -6  -5 -18   23.25    4.62
  -6   5 -18    9.95    3.42
  -5   6 -18   12.32    5.97
   6   5 -18   12.26    4.68
   5   6 -18   14.63    6.34
   5   6 -19    1.93    1.70
   6   5 -19    6.61    3.10
   5  -6 -19    1.88    3.27
   6  -5 -19    7.27    3.68
   6  -5  19    2.69    2.48
   5  -6  19    2.72    3.90
   6   5  19    7.22    4.03
   5   6  19    0.71    2.41
  -5  -6 -19    1.41    3.52
  -6  -5 -19   -1.49    3.91
  -6   5 -19    7.32    4.13
  -5   6 -19    4.93    3.39
   6   5 -19    6.52    3.04
   5   6 -19    3.67    3.03
   5   6 -20    5.24    3.37
   6   5 -20   11.65    4.32
   5  -6 -20    0.31    4.04
   6  -5 -20    9.46    4.75
   6  -5  20    4.99    7.28
   5  -6  20    3.62    3.10
   6   5  20    7.70    5.33
   5   6  20    8.83    5.07
  -5  -6 -20    6.40    4.97
  -6  -5 -20    7.19    5.01
  -6   5 -20    6.33    5.62
  -5   6 -20    8.60    5.90
   6   5 -20   13.81    6.51
   5   6 -20    8.36    7.43
   6   5 -21   -1.81    4.18
  -5  -6  21    4.87    3.04
  -5  -6 -21    4.48    2.61
   6   5 -21    0.22    2.01
   5   6 -21   10.01    5.54
   6  -6   0  201.10   10.93
   6   6   0  194.52   10.12
  -6   6   0  199.99   10.15
  -6  -6   0  192.65   10.76
   6   6  -1  684.93   17.18
   6  -6  -1  699.76   21.46
   6  -6   1  695.15   18.22
   6   6   1  680.15   17.61
  -6   6   1  696.40   14.74
  -6   6  -1  684.83   15.30
  -6  -6   1  670.50   16.53
  -6  -6  -1  684.57   16.66
   6   6  -2 1831.03   39.16
   6  -6  -2 1878.68   43.16
   6   6   2 1912.33   41.85
  -6   6  -2 1853.65   38.96
  -6  -6   2 1947.48   43.61
  -6  -6  -2 1745.22   38.56
   6   6  -3  345.49   11.35
   6  -6  -3  347.80   11.70
   6  -6   3  346.14   17.76
   6   6   3  317.98   13.14
  -6   6  -3  345.79   11.53
  -6  -6   3  322.91   10.07
  -6  -6  -3  326.13   10.46
   6   6  -4   66.01    7.88
   6  -6  -4   69.55    6.38
   6  -6   4   52.60    4.49
   6   6   4   61.63    6.39
  -6   6  -4   58.14    4.68
   6   6  -4   68.96   13.92
  -6  -6   4   70.74   11.86
  -6  -6  -4   66.55    4.81
   6   6  -5  146.01    6.02
   6  -6  -5  135.14   10.58
   6  -6   5  143.65   10.61
   6   6   5  148.26    5.27
  -6  -6  -5  157.40    6.60
  -6   6  -5  145.33    5.97
   6   6  -5  138.98   13.25
  -6  -6   5  133.53   11.10
  -6  -6  -5  143.07    7.86
   6   6  -6   30.77    5.57
   6  -6  -6   27.12    5.36
   6  -6   6   27.63    6.63
   6   6   6   30.49    6.61
  -6  -6  -6   26.63    4.91
  -6   6  -6   26.34    6.20
   6   6  -6   20.79    4.72
  -6  -6   6   28.09    4.85
  -6  -6  -6   22.30    5.78
   6   6  -7  358.06   12.76
   6  -6  -7  364.06   11.26
   6  -6   7  360.42   13.10
   6   6   7  356.33   10.09
  -6  -6  -7  385.86   10.61
  -6   6  -7  370.17   14.05
   6   6  -7  356.79   13.80
  -6  -6   7  362.88   12.24
  -6  -6  -7  387.64    9.58
   6   6  -8  161.90   15.22
   6  -6  -8  142.25   15.13
   6  -6   8  145.61   14.85
   6   6   8  146.73   18.12
  -6  -6  -8  142.67   15.39
  -6   6  -8  160.30   10.09
   6   6  -8  146.06   18.86
  -6  -6   8  161.28    9.10
  -6  -6  -8  159.86   10.59
   6   6  -9  169.77   11.27
   6  -6  -9  146.26   15.45
   6  -6   9  176.46    9.30
   6   6   9  170.17   10.39
  -6  -6  -9  170.84   14.69
  -6   6  -9  170.89   16.17
   6   6  -9  167.89   25.64
  -6  -6   9  187.79    9.63
  -6  -6  -9  177.01    9.59
   6   6 -10  144.08    7.24
   6  -6 -10  137.01   14.82
   6  -6  10  138.36   10.95
   6   6  10  135.51   18.64
  -6  -6 -10  152.14   15.35
  -6   6 -10  138.43   10.78
   6   6 -10  131.64    8.48
  -6  -6  10  163.78    5.81
  -6  -6 -10  136.67   13.25
   6   6 -11  170.76   15.93
   6  -6 -11  158.77   20.22
   6  -6  11  168.69   13.98
   6   6  11  173.65   10.24
  -6  -6 -11  171.19   19.78
  -6   6 -11  185.57   19.77
   6   6 -11  157.11   17.52
  -6  -6  11  156.36   11.97
  -6  -6 -11  168.16   13.79
   6   6 -12    5.76    2.89
   6  -6 -12    3.00    2.60
   6  -6  12    1.80    3.14
   6   6  12    1.29    3.10
  -6  -6 -12    2.55    3.00
  -6   6 -12    4.09    4.44
   6   6 -12   10.07    7.69
  -6  -6 -12    0.73    1.09
   6   6 -13    3.29    2.08
   6  -6 -13   -1.68    4.52
   6  -6  13    2.75    2.88
   6   6  13    0.54    3.16
  -6  -6 -13    3.18    1.94
  -6   6 -13    7.85    5.30
   6   6 -13    8.26    5.76
   6   6 -14  223.10   20.84
   6  -6 -14  244.41   29.96
   6  -6  14  210.98   25.24
   6   6  14  242.91   21.33
  -6  -6 -14  218.36   25.26
   6   6 -14  196.94   34.16
   6   6 -15   -0.12    3.89
   6  -6 -15    6.19    3.03
   6  -6  15   14.50    3.52
   6   6  15    3.57    3.75
  -6  -6 -15    7.12    4.10
  -6   6 -15    1.14    3.22
   6   6 -15   -0.14    3.70
   6   6 -16    8.28    5.11
   6  -6 -16   11.32    3.45
   6  -6  16    1.89    2.86
   6   6  16   -0.73    3.33
  -6  -6 -16    8.38    3.42
  -6   6 -16    1.02    5.30
   6   6 -16    1.73    1.86
   6   6 -17   34.81   10.91
   6  -6 -17   51.47   10.38
   6  -6  17   29.24   21.01
   6   6  17   26.75    8.92
  -6  -6 -17   54.60   10.42
  -6   6 -17   33.86   10.00
   6   6 -18   15.73    6.48
   6  -6 -18  111.83   58.62
   6  -6  18   22.23    6.58
   6   6  18   11.01    4.82
  -6  -6 -18   22.79    5.49
  -6   6 -18   21.39    7.58
   6   6 -18   16.94    5.63
   6   6 -19   27.89    6.13
   6  -6 -19   19.41    7.12
   6  -6  19   27.16    6.87
   6   6  19   24.86   12.18
  -6  -6 -19   18.57    4.93
  -6   6 -19   30.71    8.75
   6   6 -19   22.69    9.77
   6   6 -20    4.91    4.09
   6  -6 -20    4.01    3.53
   6  -6  20    5.03    4.84
   6   6  20    7.67    5.42
  -6  -6 -20    5.25    4.79
  -6   6 -20    1.35    2.02
   6   6 -20   -0.09    4.44
   7   0   0   -1.97    2.93
   0   7   0    1.58    1.95
   0  -7   0    0.91    1.32
   7   0  -1   79.21    5.56
   7   0   1  100.59    9.57
   0   7   1   78.37    3.99
  -7   0  -1   74.67    5.04
   0   7  -1   80.43    7.70
   0  -7   1   77.88    8.60
   0  -7  -1   85.04    9.01
   7   0  -2 1012.37   23.80
   7   0   2 1004.93   22.74
  -7   0  -2  999.91   22.42
   0   7  -2 1005.90   22.38
   0  -7   2 1053.33   23.90
   0  -7  -2 1011.11   22.90
   0  -7  -3  593.83   13.04
   7   0  -3  601.84   18.67
   7   0   3  634.16   16.17
  -7   0  -3  614.94   15.17
   0   7  -3  598.99   15.06
   0  -7   3  601.50   14.34
   0  -7  -3  620.56   15.57
   0  -7  -4   97.26    5.55
   7   0  -4  103.12    7.09
   7   0   4  106.01   14.61
   0  -7   4   96.04    5.65
  -7   0  -4  102.60    8.73
   0   7  -4   85.31    9.17
   7   0  -4   93.52    5.59
   0  -7   4  102.19    9.66
   0  -7  -4   97.08   11.23
   0  -7  -5  740.59   16.50
   7   0  -5  717.86   17.40
   7   0   5  748.83   17.74
   0  -7   5  743.53   16.39
  -7   0  -5  763.87   18.26
   0   7  -5  718.86   20.91
   7   0  -5  747.12   18.55
   0  -7   5  733.79   21.68
   0  -7  -5  730.51   17.56
   0  -7  -6  597.86   17.04
   7   0  -6  582.20   17.15
   7   0   6  578.84   19.23
   0  -7   6  587.70   15.54
   0  -7  -6  588.85   17.14
  -7   0  -6  596.73   22.34
   0   7  -6  584.69   19.76
   7   0  -6  610.43   16.73
   0  -7  -6  607.51   18.46
   0  -7  -7   23.99    5.55
   7   0  -7   29.39    6.75
   7   0   7   24.15    7.88
   0  -7   7   30.13    6.00
   0  -7  -7   22.30    3.82
  -7   0  -7   26.55    5.45
   0   7  -7   22.71    7.91
   7   0  -7   24.44    4.30
   0  -7  -7   31.99    6.00
   0  -7  -8  263.07   12.47
   7   0  -8  245.74    8.28
   7   0   8  247.86   18.96
   0  -7   8  259.64    8.62
  -7   0  -8  261.90    9.57
   0   7  -8  258.83   10.80
   7   0  -8  258.37    6.69
   0  -7  -8  257.46    6.28
   0  -7  -9    4.31    2.45
   7   0  -9    6.00    3.43
   7   0   9    7.09    3.75
   0  -7   9    6.62    2.61
   0  -7  -9    3.33    1.89
  -7   0  -9    2.66    1.47
   0   7  -9    9.34    3.51
   7   0  -9    2.93    1.99
  -7   0   9    3.32    1.53
   0  -7 -10  490.55   24.34
   7   0 -10  491.03   20.89
   7   0  10  473.29   21.15
   0  -7  10  483.13   22.67
   0  -7 -10  482.01   21.11
  -7   0 -10  500.97   21.35
   0   7 -10  483.21   21.53
   7   0 -10  493.87   22.13
  -7   0  10  506.05   20.23
   0  -7 -11  217.21   14.17
   7   0 -11  217.96   14.53
   7   0  11  215.38    9.33
   0  -7  11  194.03   10.84
   0  -7 -11  208.64    9.63
  -7   0 -11  199.49    8.20
   7   0 -11  206.42   10.30
   0   7 -11  205.31   22.06
  -7   0  11  225.35    5.85
   0  -7 -12   13.16    4.18
   7   0 -12   10.99    4.23
   7   0  12   14.64    7.99
   0  -7  12    7.48    3.55
   0  -7 -12   10.04    4.50
  -7   0 -12   14.80    8.17
   7   0 -12    8.61    2.50
   0   7 -12   21.07    7.05
   0  -7 -13  215.34   13.77
   7   0 -13  204.29   11.70
   7   0  13  210.09   15.48
   0  -7  13  212.67    9.03
   0  -7 -13  193.80   10.46
  -7   0 -13  203.15   12.36
   7   0 -13  205.54   22.42
   0   7 -13  199.78   16.49
   7   0 -14  660.31   32.23
   7   0  14  655.34   26.94
   0  -7  14  675.01   12.27
   0  -7 -14  625.57   19.48
  -7   0 -14  690.75   33.62
   7   0 -14  671.57   18.29
   0   7 -14  681.84   18.00
   7   0 -15   88.74   18.44
   7   0  15   88.33   19.98
   0  -7  15  111.10   22.32
   0   7  15   86.04   16.47
   0  -7 -15   85.08   14.17
  -7   0 -15  103.01   20.32
   7   0 -15   82.00   13.02
   0   7 -15   91.56   23.32
   7   0 -16   13.71    6.07
   7   0  16    0.64    2.46
   0  -7  16    7.46    7.41
   0   7  16    5.02    3.23
   0  -7 -16    4.34    1.52
  -7   0 -16    6.61    5.36
   7   0 -16   11.20    4.47
   0   7 -16   -2.98    4.61
   7   0 -17   15.77    6.46
   7   0  17   35.73   10.36
   0  -7  17   40.05    6.29
   0   7  17   25.95    6.99
   0  -7 -17   19.14    3.19
  -7   0 -17   31.37    7.45
   0   7 -17   24.53    7.34
   7   0 -18   75.08   14.54
   7   0  18   69.35   19.40
   0  -7  18   71.73   18.97
   0   7  18   60.63   16.26
  -7   0 -18   99.04   20.77
   0   7 -18   64.79   16.69
   7   0 -19   -5.19    5.10
   7   0  19    2.89    4.27
   0  -7  19    4.42    5.11
   0   7  19    1.00    1.73
  -7   0 -19    4.93    3.11
   0   7 -19    8.03    4.79
   7   0 -20   21.51    5.60
   7   0  20   18.33    7.31
   0  -7  20   24.44   12.66
   0   7  20   29.38    7.58
  -7   0 -20   28.55    6.55
   0   7 -20   18.05   10.86
   0  -7  21    7.38    3.64
   0   7  21    1.42    4.37
   0   7 -21    5.51    2.90
   7   1   0  362.11   18.74
   7  -1   0  347.73   17.56
  -1   7   0  356.14   17.00
  -7   1   0  375.99   19.12
  -1   7   0  396.35   19.82
   1  -7   0  381.65   19.31
  -1  -7   0  389.35   22.01
   7  -1  -1  353.63   22.22
   7   1  -1  375.16   22.15
   7  -1   1  399.99   23.55
  -1   7  -1  376.07   17.90
  -7  -1  -1  365.38   18.35
  -7   1  -1  339.94   17.35
  -1   7  -1  354.86   18.35
   1   7  -1  357.64   18.02
  -1   7   1  338.60   17.88
   1  -7   1  344.49   19.35
   1  -7  -1  377.94   18.78
  -1  -7   1  351.01   17.45
  -1  -7  -1  339.61   16.84
   1  -7  -2 1180.97   25.09
   1   7   2 1160.94   24.23
   7   1  -2 1208.03   27.35
   7  -1  -2 1206.65   30.72
   7  -1   2 1192.36   27.09
   7   1   2 1226.30   27.47
   1   7   2 1229.22   25.53
  -7   1  -2 1166.69   25.18
  -1   7  -2 1570.73   38.35
   1   7  -2 1277.94   28.59
   1  -7  -2 1176.37   26.53
  -1  -7   2 1282.11   30.42
  -1  -7  -2 1219.50   26.90
   1  -7  -3  451.78   10.74
   7   1  -3  470.11   12.86
   7  -1  -3  467.98   14.77
   7  -1   3  468.63   18.43
   7   1   3  474.57   11.86
   1  -7   3  454.17   10.57
  -7  -1  -3  453.45   13.15
  -7   1  -3  436.27    8.03
  -1   7  -3  466.08   12.66
   1   7  -3  437.52    7.17
   1  -7  -3  477.98   14.16
  -1  -7   3  484.64   13.98
  -1  -7  -3  468.68   11.99
   1  -7  -4  660.92   15.10
   7   1  -4  689.95   17.69
   7  -1  -4  632.80   15.42
   7  -1   4  629.48   15.08
   7   1   4  634.03   16.59
   1  -7   4  654.14   14.76
  -1  -7   4  633.13   14.35
   1   7   4  637.33   13.98
  -7  -1  -4  634.13   15.28
  -7   1  -4  665.23   20.16
  -1   7  -4  647.65   15.39
   1   7  -4  639.35   15.51
   7  -1  -4  652.27   15.66
   7   1  -4  639.49   16.53
   1  -7  -4  658.88   15.94
  -1  -7   4  661.49   16.80
  -1  -7  -4  616.02   14.74
   1  -7  -5   86.38    5.02
   7   1  -5   93.64    8.50
   7  -1  -5  100.55   13.09
   7  -1   5   88.00    8.56
   7   1   5  102.79   10.22
   1  -7   5   92.62    7.01
  -1  -7   5   85.23    6.07
   1   7   5   80.18    5.08
  -7  -1  -5   88.81    7.17
  -7   1  -5   98.95    7.28
  -1   7  -5   89.92    7.26
   1   7  -5  101.56    8.16
   7  -1  -5   95.77    5.83
   7   1  -5   97.29    6.51
  -1  -7   5   90.38   10.11
  -1  -7  -5   97.91   10.26
   1  -7  -6 1240.69   32.28
   7   1  -6 1197.10   31.53
   7  -1  -6 1170.70   30.85
   7  -1   6 1184.92   30.77
   7   1   6 1201.05   32.15
   1  -7   6 1203.10   30.34
  -1  -7   6 1149.71   28.78
  -1  -7  -6 1205.91   32.71
  -7  -1  -6 1201.24   32.24
  -7   1  -6 1185.86   32.34
  -1   7  -6 1339.20   35.02
   1   7  -6 1170.06   32.09
   7  -1  -6 1204.84   29.82
   7   1  -6 1202.79   30.18
  -1  -7   6 1223.43   33.10
  -1  -7  -6 1179.84   30.08
   1  -7  -7   55.39    9.76
   7   1  -7   69.95   13.27
   7  -1  -7   68.74    9.67
   7  -1   7   56.18    5.93
   7   1   7   81.41   20.87
   1  -7   7   63.96    7.33
   1  -7  -7   69.86    9.05
  -1  -7  -7   68.03    8.58
  -7  -1  -7   53.78    6.02
  -7   1  -7   69.50   12.17
  -1   7  -7   63.78   15.19
   7  -1  -7   66.94    7.60
   1   7  -7   77.33   11.31
   7   1  -7   69.82   11.47
  -1  -7   7   63.95   10.95
  -1  -7  -7   80.42    8.58
  -7  -1   7   63.77    5.51
   1  -7  -8  348.31    7.96
   7   1  -8  363.49   19.49
   7  -1  -8  334.47   12.46
   7  -1   8  344.61   10.81
   7   1   8  341.60   26.73
   1  -7   8  339.61   11.31
   1  -7  -8  391.17   10.71
  -1  -7  -8  447.90   16.84
  -7  -1  -8  389.60   10.72
  -7   1  -8  320.86   11.51
  -1   7  -8  372.98   11.26
   7  -1  -8  364.34    8.86
   1   7  -8  353.66   11.66
   7   1  -8  344.99   13.26
  -1  -7   8  355.21   11.99
  -1  -7  -8  342.65   13.08
  -7  -1   8  342.58    9.14
   1  -7  -9  164.79   15.68
   7   1  -9  118.86   12.24
   7  -1  -9  143.18   13.17
   7  -1   9  142.36   16.88
   7   1   9  142.55   13.10
   1  -7   9  146.42   13.23
   1  -7  -9  125.86   12.29
  -1  -7  -9  138.02   12.92
  -7  -1  -9  141.02   12.76
  -7   1  -9  143.62   14.79
   7  -1  -9  139.70   11.92
  -1   7  -9  137.75   19.30
   1   7  -9  147.51   21.06
   7   1  -9  144.75   17.49
  -1  -7  -9  142.37   14.08
  -7  -1   9  145.44   13.11
   1  -7 -10  289.68   16.03
   7   1 -10  295.36   19.08
   7  -1 -10  326.03   21.54
   7  -1  10  310.44   23.79
   7   1  10  329.30   15.37
   1  -7  10  318.31   18.28
  -1  -7  10  309.29   14.04
   1   7  10  298.11   13.55
  -1  -7 -10  309.71   17.73
   1  -7 -10  308.83   16.56
  -7  -1 -10  325.48   14.92
  -7   1 -10  327.57   17.63
   7  -1 -10  340.03   17.88
  -1   7 -10  348.71   21.07
   1   7 -10  343.17   17.12
   7   1 -10  326.07   15.81
  -1  -7 -10  376.40   17.54
  -7  -1  10  348.11   15.20
   1  -7 -11  110.81   17.50
   7   1 -11   99.26   15.21
   7  -1 -11  122.33   20.08
   7  -1  11   98.97   10.57
   7   1  11  116.42   10.34
   1  -7  11  127.31   10.15
  -1  -7  11  103.91    9.83
   1   7  11  103.15    9.08
  -1  -7 -11  126.65   14.12
   1  -7 -11  101.17    9.94
  -7  -1 -11   99.12   10.69
  -7   1 -11  128.26    8.75
   7  -1 -11  125.61    5.74
  -1   7 -11  102.45   10.88
   1   7 -11  108.58   19.58
   7   1 -11  120.44   14.50
  -1  -7 -11  114.48    8.57
  -7  -1  11  107.82    7.84
  -7   1  11   99.11    9.06
  -7  -1 -11  100.90    9.30
   1  -7 -12  266.62   14.74
   7   1 -12  279.88   13.04
   7  -1 -12  244.56   25.97
   7  -1  12  258.56   23.48
   7   1  12  241.19   13.26
   1  -7  12  240.55   13.12
   1   7  12  269.14   12.12
  -1  -7  12  254.60   12.00
  -1  -7 -12  244.13   12.09
   1  -7 -12  242.58   14.57
  -7  -1 -12  285.42   18.29
  -7   1 -12  274.85   23.14
   7  -1 -12  244.61   20.77
  -1   7 -12  260.29   14.11
   7   1 -12  278.14   14.75
   1   7 -12  243.73   28.57
  -7  -1 -12  268.82   11.10
   1  -7 -13   25.21    6.51
   7   1 -13   18.50    5.80
   7  -1 -13   24.70    7.10
   7  -1  13   28.92    7.62
   7   1  13   17.00    7.27
   1  -7  13   21.72    5.03
  -1  -7  13   24.16    6.19
   1   7  13   15.25    5.52
  -1  -7 -13   23.10    4.33
   1  -7 -13   13.64    3.90
  -7  -1 -13   24.62    4.17
  -7   1 -13   16.20    7.16
   7  -1 -13    7.06    4.09
  -1   7 -13   25.13    6.36
   7   1 -13   22.52    4.54
   1   7 -13    7.84    3.58
   1  -7 -14  285.64   15.81
   7   1 -14  247.33   21.67
   7  -1 -14  277.76   20.65
   7  -1  14  261.45   16.72
   7   1  14  307.38   18.33
   1  -7  14  282.28   10.78
  -1  -7  14  267.66   11.81
   1   7  14  243.78   19.89
  -1  -7 -14  303.91   12.14
   1  -7 -14  258.00    9.59
  -7  -1 -14  242.40   18.71
  -7   1 -14  296.03   20.32
   7  -1 -14  305.98    7.67
  -1   7 -14  259.24   21.60
   7   1 -14  249.47   20.18
   1   7 -14  296.30   17.73
   7   1 -15   21.75    4.80
   7  -1 -15   31.75   10.95
   7  -1  15   11.15    6.26
   7   1  15   11.97    6.63
   1  -7  15   26.82    7.59
   1   7  15   16.57    5.10
  -1  -7  15   19.98    4.91
  -1  -7 -15   24.19    4.96
   1  -7 -15   21.30    4.30
  -7  -1 -15   28.70    6.94
  -7   1 -15   26.49    5.00
  -1   7 -15   26.99    7.85
   7   1 -15    9.22    3.65
   1   7 -15    6.68    4.61
   1  -7 -16   67.33   14.48
   7   1 -16   63.13   13.45
   7  -1 -16   72.20   12.46
   7  -1  16   86.42   10.62
   7   1  16   82.30   20.47
   1  -7  16   75.61   15.87
  -1  -7  16   73.46   12.98
   1   7  16   73.54    9.45
  -1  -7 -16   76.32   10.15
  -7  -1 -16   85.90   14.81
  -7   1 -16   95.77   14.35
  -1   7 -16   71.43   17.23
   7   1 -16   60.34   12.40
   1   7 -16   85.02   15.96
   7   1 -17   40.31    7.12
   7  -1 -17   40.09    8.67
   7  -1  17   41.20   10.60
   7   1  17   34.58    8.10
   1  -7  17   36.54    9.66
  -1  -7  17   36.18    7.12
   1   7  17   28.19    6.65
  -1  -7 -17   32.58    7.32
  -7  -1 -17   43.64    6.93
  -7   1 -17   42.22    7.78
  -1   7 -17   47.47    9.11
   7   1 -17   29.35    4.66
   1   7 -17   31.65    7.25
   7   1 -18   17.32    4.94
   7  -1 -18   19.63    5.45
   7  -1  18   31.17    9.01
   7   1  18   26.36    5.74
   1  -7  18   22.93    5.75
  -1  -7  18   22.82    7.46
   1   7  18   25.50    5.42
  -1   7  18   24.78    6.01
  -1  -7 -18   28.95    5.10
  -7  -1 -18   28.36    6.47
  -7   1 -18   37.95    6.18
  -1   7 -18   28.24    6.77
   1   7 -18   24.93    7.63
   7   1 -19   51.60   16.24
   7  -1 -19   -0.54    4.54
   7  -1  19   11.56    5.70
   7   1  19    5.75    3.57
   1  -7  19    2.82    2.53
  -1  -7  19    6.03    5.62
   1   7  19    3.34    3.37
  -1   7  19    5.12    3.62
  -7  -1 -19    7.02    2.62
  -7   1 -19    8.36    3.21
  -1   7 -19    7.70    4.69
   1   7 -19    2.22    4.92
   7   1 -20   12.38    4.40
   7  -1 -20   13.43    5.98
   7  -1  20   23.65    7.71
   7   1  20   28.70    8.21
   1  -7  20    9.43    4.78
  -1  -7  20   32.77    7.36
   1   7  20   22.31    8.38
  -1   7  20   14.97    6.77
  -7  -1 -20   29.22   10.78
  -7   1 -20   23.97    5.29
  -1   7 -20   11.84    4.11
   1   7 -20   19.84    8.94
   1  -7  21    0.16    3.58
  -1  -7  21    6.49    3.44
   1   7  21    7.21    3.43
  -1   7  21    1.26    4.23
  -7  -1 -21    8.16    4.64
   1   7 -21    0.59    5.12
   2  -7   0   19.47    3.13
   7  -2   0   20.86    4.59
   7   2   0   12.43    4.36
  -7   2   0   18.79    2.61
  -2   7   0   19.26    4.53
  -2  -7   0   11.00    3.79
   2  -7  -1  128.11    6.88
   7  -2  -1  171.71    9.57
   7   2  -1  123.40    7.92
   2  -7   1  159.14    8.72
   2   7   1  124.75    6.18
   7  -2   1  120.67   12.15
   7   2   1  185.81   10.12
  -7   2  -1  168.80    9.80
  -2   7  -1  139.30   11.23
  -2   7   1  173.65   10.27
  -2  -7   1  126.71    9.98
  -2  -7  -1  157.16   11.81
   2   7  -2  390.79   18.59
   2  -7  -2  379.94   18.30
   7   2  -2  381.73   20.61
   7  -2  -2  398.74   20.20
  -2  -7   2  379.29   18.14
   2  -7   2  423.55    4.88
   7  -2   2  360.52   18.01
   7   2   2  406.12   20.21
   2   7   2  398.21   18.99
  -7  -2  -2  422.55    9.44
  -7   2  -2  408.23   20.07
  -2   7  -2  400.08   22.36
   2   7  -2  396.24   19.91
  -2   7   2  398.18   19.47
  -2  -7   2  392.01   20.86
  -2  -7  -2  403.13   20.34
   2   7  -3  214.08   10.65
   2  -7  -3  205.15   10.75
   7   2  -3  217.32   11.73
   7  -2  -3  244.51   12.83
   7  -2   3  208.75   13.59
   7   2   3  224.53   14.54
   2  -7   3  227.88   12.45
   2   7   3  214.34   10.86
  -7  -2  -3  223.58   12.26
  -7   2  -3  212.94   11.57
  -2   7  -3  210.42   11.32
   2   7  -3  214.92   11.63
  -2  -7   3  217.13   13.53
  -2  -7  -3  223.93   11.87
   2   7  -4 1363.38   28.70
   2  -7  -4 1525.35   33.61
   7   2  -4 1540.26   35.92
   7  -2  -4 1433.74   33.20
   7  -2   4 1558.63   35.59
   7   2   4 1432.25   32.57
   2  -7   4 1476.99   32.37
   2   7   4 1567.70   32.88
  -7  -2  -4 1492.87   33.04
  -7   2  -4 1412.05   32.46
  -2   7  -4 1561.56   36.49
   2   7  -4 1402.01   31.30
   7  -2  -4 1451.39   30.75
  -2  -7   4 1577.59   35.65
  -2  -7  -4 1399.89   30.78
  -7  -2   4 1401.11   31.56
   2   7  -5 2482.20   51.84
   2  -7  -5 2429.86   52.25
   7   2  -5 2373.53   53.07
   7  -2  -5 2446.63   53.25
   7  -2   5 2344.67   53.92
   7   2   5 2603.19   55.65
   2  -7   5 2553.68   53.72
   2   7   5 2570.49   53.66
  -7  -2  -5 2325.54   51.31
  -7   2  -5 2553.18   54.57
  -2   7  -5 2453.34   53.15
   7  -2  -5 2528.23   52.41
   2   7  -5 2730.26   60.69
   7   2  -5 2525.66   54.16
  -2  -7   5 2540.31   54.37
  -2  -7  -5 2627.31   56.34
  -7  -2   5 2577.35   55.61
   2   7  -6  143.37    3.42
   2  -7  -6  153.96    7.07
   7   2  -6  154.32    8.11
   7  -2  -6  159.26    8.80
   7  -2   6  172.68    7.63
   7   2   6  151.54    5.67
   2  -7   6  154.44    5.78
   2   7   6  180.48   10.74
  -2  -7  -6  155.09    6.61
  -7  -2  -6  166.72    5.77
  -7   2  -6  137.89    5.75
  -2   7  -6  194.33   14.05
   7  -2  -6  158.63    5.33
   2   7  -6  159.89   19.50
   7   2  -6  165.20    6.19
  -2  -7   6  157.42    6.69
  -2  -7  -6  152.35    4.80
  -7  -2   6  155.33    4.67
   2   7  -7 1142.25   30.83
   2  -7  -7 1171.16   31.25
   7   2  -7 1179.01   32.90
   7  -2  -7 1170.13   32.36
   7  -2   7 1241.28   35.46
   7   2   7 1154.80   30.78
   2  -7   7 1132.78   29.69
   2   7   7 1182.38   30.60
   2  -7  -7 1238.86   31.38
  -2  -7  -7 1165.53   32.07
  -7  -2  -7 1195.53   34.64
  -7   2  -7 1181.34   31.24
  -2   7  -7 1204.20   34.72
   7  -2  -7 1163.92   28.74
   2   7  -7 1144.97   37.05
   7   2  -7 1239.95   34.50
  -2  -7   7 1249.05   34.27
  -2  -7  -7 1133.01   31.35
  -7  -2   7 1134.10   29.79
   2   7  -8  769.98   15.24
   2  -7  -8  894.81   16.77
   7   2  -8  754.15   14.24
   7  -2  -8  787.82   26.57
   7  -2   8  775.70   18.70
   7   2   8  802.93   25.88
   2  -7   8  817.68   15.20
   2   7   8  739.89   16.32
   2  -7  -8  710.52   12.69
  -7  -2  -8  777.92   18.33
  -7   2  -8  795.25   21.66
   7  -2  -8  816.45   13.47
  -2   7  -8  736.77   23.66
   2   7  -8  757.19   25.07
   7   2  -8  745.58   17.38
  -2  -7   8  745.03   17.08
  -2  -7  -8  805.37   14.96
  -7  -2   8  801.50   12.98
  -7  -2  -8  709.31   14.97
   2   7  -9   80.21    8.34
   2  -7  -9   86.80   15.63
   7   2  -9  105.75   10.11
   7  -2  -9   94.55   18.56
   7  -2   9   89.80   13.36
   7   2   9   85.78   18.93
   2  -7   9   77.47   10.37
   2   7   9  101.77   18.19
   2  -7  -9   94.39   12.30
  -2  -7  -9   75.92   10.45
  -7  -2  -9   94.52   10.05
  -7   2  -9   98.72   11.03
   7  -2  -9   78.32   11.09
  -2   7  -9   89.38   10.43
   2   7  -9   87.28    9.87
   7   2  -9   89.10   17.74
  -2  -7   9   98.90   11.30
  -2  -7  -9   76.96    9.69
  -7  -2   9   87.19   10.37
  -7  -2  -9  104.54   11.11
   2   7 -10   58.77    9.80
   2  -7 -10   61.69   10.07
   7   2 -10   52.24    8.33
   7  -2 -10   61.08    9.82
   7  -2  10   34.78    7.79
   7   2  10   65.92   14.04
   2  -7  10   57.58   13.68
   2   7  10   45.09    8.19
  -2  -7 -10   56.24    8.67
   2  -7 -10   45.50    6.86
  -7  -2 -10   47.28    7.90
  -7   2 -10   54.39    9.54
   7  -2 -10   53.80    7.44
  -2   7 -10   57.03   11.00
   2   7 -10   62.52   11.94
   7   2 -10   40.23    8.68
  -2  -7  10   43.22    4.11
  -2  -7 -10   62.18    5.95
  -7  -2  10   59.81    5.04
  -7  -2 -10   44.80    7.32
   2   7 -11  134.96   10.23
   2  -7 -11  129.12   14.69
   7   2 -11  142.58   12.43
   7  -2 -11  130.56   10.17
   7  -2  11  122.68    9.27
   7   2  11  125.97    7.96
   2  -7  11  128.98   10.50
   2   7  11  119.22    5.66
  -2  -7 -11  124.11    8.81
   2  -7 -11  127.60    8.18
  -7  -2 -11  141.18   10.49
  -7   2 -11  131.99   15.02
   7  -2 -11  121.73    6.17
  -2   7 -11  138.07   10.89
   2   7 -11  136.10   14.87
   7   2 -11  134.07   19.02
  -2  -7 -11  123.16    6.86
  -7  -2  11  112.61    7.15
  -7  -2 -11  138.61   10.21
   2   7 -12   32.99    5.46
   2  -7 -12   24.02    6.27
   7   2 -12   15.15    4.00
   7  -2 -12   34.00    7.10
   7  -2  12   18.66    5.70
   7   2  12   28.10    6.68
   2  -7  12   34.04    5.88
   2   7  12   20.23    3.95
  -2  -7 -12   33.85    5.62
   2  -7 -12   20.21    4.02
  -7  -2 -12   26.17    6.19
  -7   2 -12   27.25    5.35
   7  -2 -12   27.34    4.74
  -2   7 -12   11.33    5.11
   2   7 -12   36.73    8.61
   7   2 -12   12.36    4.55
  -7  -2 -12   17.88    4.48
   2   7 -13    7.25    2.20
   2  -7 -13    3.81    3.01
   7   2 -13    5.65    3.37
   7  -2 -13    0.38    3.02
   7  -2  13    6.81    5.37
   7   2  13    3.30    2.56
   2  -7  13   -0.13    2.95
   2   7  13    0.60    2.23
  -2  -7 -13    4.18    2.57
   2  -7 -13    3.12    1.67
  -7  -2 -13    1.87    3.10
  -7   2 -13    0.13    2.09
   7  -2 -13    1.47    1.22
  -2   7 -13    3.40    3.71
   7   2 -13    4.14    2.69
   2   7 -13    1.20    3.30
   2  -7 -14   42.10    9.47
   7   2 -14   37.10   10.47
   7  -2 -14   32.70    6.53
   7  -2  14   21.64    5.65
   7   2  14   29.34    8.71
   2  -7  14   29.41    5.77
   2   7  14   34.74    6.86
  -2  -7 -14   36.71    5.67
   2  -7 -14   36.06    4.93
  -7  -2 -14   48.35    8.52
  -7   2 -14   26.21    9.67
  -2   7 -14   35.87    8.41
   7   2 -14   28.14    6.13
   2   7 -14   41.73    7.76
   2  -7 -15   14.85    4.36
   7   2 -15   17.38    4.96
   7  -2 -15   11.97    4.88
   7  -2  15   17.48    6.43
   7   2  15   26.33    9.43
   2  -7  15   20.74    5.97
   2   7  15   19.03    7.15
  -2  -7  15   11.78    4.73
  -2  -7 -15   18.43    3.95
  -7  -2 -15   26.31    6.40
  -7   2 -15   16.81    4.31
  -2   7 -15   15.91    4.81
   7   2 -15   23.51    5.05
   2   7 -15   15.12    5.95
   2  -7 -16   36.64    7.34
   7   2 -16   66.05    9.61
   7  -2 -16   47.38   13.22
   7  -2  16   39.33    9.54
   7   2  16   46.40   12.63
   2  -7  16   40.15   10.17
   2   7  16  104.60   23.80
  -2  -7  16   44.26    9.29
  -2  -7 -16   40.35    7.03
  -7  -2 -16   52.53    8.44
  -7   2 -16   45.62   13.47
  -2   7 -16   55.36    8.49
   7   2 -16   36.16    8.54
   2   7 -16   51.07    9.44
   2  -7 -17   23.84    4.44
   7   2 -17   26.24    5.26
   7  -2 -17   31.40    7.85
   7  -2  17   27.43    8.27
   7   2  17   36.81    9.66
   2  -7  17   23.46    4.48
   2   7  17   22.13    7.60
  -2  -7  17   24.15    6.20
  -2  -7 -17   26.55    5.77
  -7  -2 -17   36.15    9.14
  -7   2 -17   32.21    8.74
  -2   7 -17   29.09    9.77
   7   2 -17   22.88    7.54
   2   7 -17   39.90    8.49
   2  -7 -18   15.38    5.75
   7   2 -18   10.67    6.02
   7  -2 -18    8.60    5.55
   7  -2  18   15.26    6.27
   7   2  18   13.41    7.74
   2  -7  18   15.64    6.49
   2   7  18    8.73    4.58
  -2  -7  18   12.16    6.33
  -2  -7 -18    8.84    2.76
  -7  -2 -18   11.34    8.09
  -7   2 -18   10.27    2.70
  -2   7 -18   17.93    6.92
   7   2 -18   11.57    3.47
   2   7 -18   22.83    8.54
   7   2 -19   43.20   10.33
   7  -2 -19   34.01    9.09
   7  -2  19   35.79    9.39
   7   2  19   40.12    9.49
   2  -7  19   27.32    9.90
   2   7  19   39.36    7.28
  -2  -7  19   29.60    5.59
  -2  -7 -19   38.23    6.15
  -7  -2 -19   46.96    7.89
  -7   2 -19   51.36    9.20
  -2   7 -19   27.22   11.45
   2   7 -19   35.51   10.85
   7   2 -20   30.61    8.57
   7  -2 -20   45.60   12.15
   7  -2  20   23.73    9.56
   7   2  20   33.94   14.07
   2  -7  20   24.53   11.01
   2   7  20   22.61    8.86
  -2  -7  20   25.61    7.18
  -2   7  20   39.62   10.96
  -7  -2 -20   10.71    4.81
  -7   2 -20   50.62   11.24
  -2   7 -20   23.25    6.28
   2   7 -20   29.70    6.87
   2  -7  21   19.36    7.06
   2   7  21   14.01    6.57
  -2  -7  21   38.63   18.21
  -2   7  21   13.40    9.52
   3   7   0   41.16    3.23
   3  -7   0   46.28    5.50
   7  -3   0   46.66    5.74
   7   3   0   45.37    8.87
  -3  -7   0   38.95    3.06
  -7   3   0   42.16    3.27
  -3   7   0   55.32    7.63
  -3  -7   0   49.15   12.45
  -7  -3   0   49.10    5.09
   3   7  -1  204.34    9.92
   3  -7  -1  189.52   11.07
   7   3  -1  171.36    9.16
   7  -3  -1  198.74   10.95
   3  -7   1  209.31   11.27
   3   7   1  173.42    8.57
   7  -3   1  162.57    9.24
   7   3   1  220.66   11.62
  -3  -7   1  168.95    8.21
  -7   3   1  169.02    8.36
  -7   3  -1  223.53   12.15
  -3   7  -1  184.52    9.97
  -3   7   1  220.74   12.34
  -3  -7   1  180.50   11.51
  -3  -7  -1  208.73   13.97
  -7  -3   1  201.33   13.01
  -7  -3  -1  172.97    9.51
   3   7  -2  464.29   10.37
   3  -7  -2  479.15   12.95
   7   3  -2  475.42   12.15
   7  -3  -2  447.92   12.10
   3  -7   2  480.44   11.28
   7  -3   2  503.43   16.27
   7   3   2  481.69   12.87
   3   7   2  478.94   10.65
  -7  -3  -2  475.30   12.98
  -7   3  -2  481.54   11.74
  -3   7  -2  458.52   11.39
  -3   7   2  489.20   10.96
   3   7  -2  443.11    7.03
  -3  -7   2  482.94   12.90
  -3  -7  -2  470.97   12.58
  -7  -3   2  476.65   14.07
  -7  -3  -2  459.83   12.64
   3   7  -3 1007.59   21.43
   3  -7  -3  981.80   21.50
   7   3  -3 1000.82   23.88
   7  -3  -3 1011.33   23.27
   7  -3   3 1025.99   24.46
   3  -7   3 1016.32   23.06
   7   3   3 1007.30   23.25
   3   7   3 1040.85   22.36
  -7  -3  -3 1006.28   22.95
  -7   3  -3  987.62   22.61
  -3   7  -3 1017.69   26.30
   3   7  -3 1030.89   29.18
  -3   7   3 1035.71   22.98
  -3  -7   3  991.96   24.88
  -3  -7  -3 1050.48   27.16
  -7  -3   3 1019.08   24.76
  -7  -3  -3 1005.10   23.05
   3   7  -4  666.00   14.61
   3  -7  -4  774.81   17.89
   7   3  -4  709.62   19.84
   7  -3  -4  703.95   20.22
   7  -3   4  700.06   18.07
   7   3   4  678.75   18.58
   3  -7   4  666.41   15.01
   3   7   4  706.42   15.54
  -7   3  -4  655.84   20.41
  -3   7  -4  658.10   15.98
   3   7  -4  684.09   17.74
  -3  -7   4  704.95   17.96
  -3  -7  -4  707.59   17.66
  -7  -3   4  701.97   18.94
  -7  -3  -4  666.49   15.71
   3   7  -5   60.84    3.84
   3  -7  -5   62.28    6.40
   7   3  -5   56.19    4.93
   7  -3  -5   64.31    6.08
   7  -3   5   70.35    9.94
   7   3   5   61.14   13.70
   3  -7   5   53.18    6.26
   3   7   5   65.47    4.35
  -7  -3  -5   61.09   11.94
  -7   3  -5   54.65    4.55
  -3   7  -5   58.47    4.28
   3   7  -5   57.51    7.48
   7   3  -5   59.94   12.45
  -3  -7   5   64.78    7.61
  -3  -7  -5   55.94    5.77
  -7  -3   5   64.36    7.25
  -7  -3  -5   59.18    7.33
   3   7  -6  197.71    5.55
   3  -7  -6  163.14    6.38
   7   3  -6  143.09   11.23
   7  -3  -6  182.60   11.83
   7  -3   6  146.89   12.20
   7   3   6  177.98   11.55
   3  -7   6  184.56    7.63
   3   7   6  132.56    4.22
  -3  -7  -6  158.78    5.25
  -7  -3  -6  159.19    9.76
  -7   3  -6  167.34    5.91
  -3   7  -6  153.16   10.00
   3   7  -6  224.38   29.04
   7   3  -6  135.57    6.60
  -3  -7   6  156.38    5.23
  -3  -7  -6  172.00    5.04
  -7  -3   6  186.33    6.39
  -7  -3  -6  155.58    5.11
   3   7  -7  265.25    8.69
   3  -7  -7  229.00    8.03
   7   3  -7  227.20   19.24
   7  -3  -7  254.25   14.51
   7  -3   7  240.15   13.09
   7   3   7  244.50   14.62
   3  -7   7  254.84    8.69
   3   7   7  255.90    8.64
  -3  -7  -7  259.82   11.62
  -7  -3  -7  246.06   10.01
  -7   3  -7  288.03   19.59
   7  -3  -7  264.15    9.50
  -3   7  -7  256.28   16.60
   3   7  -7  262.92   12.73
   7   3  -7  243.15   15.43
  -3  -7   7  240.24    9.25
  -3  -7  -7  256.12    8.65
  -7  -3   7  244.66    8.16
  -7  -3  -7  233.01    9.57
   3   7  -8  239.95    9.47
   3  -7  -8  258.46    7.37
   7  -3  -8  229.91    8.95
   7  -3   8  284.10   11.14
   7   3   8  222.85   24.51
   3  -7   8  218.37   20.69
   3   7   8  246.50    7.49
   3  -7  -8  275.08    6.57
  -3  -7  -8  271.66   14.41
  -7  -3  -8  263.81   14.82
  -7   3  -8  246.54   10.46
   7  -3  -8  226.25   19.02
  -3   7  -8  282.81   10.33
   3   7  -8  216.50   25.16
   7   3  -8  274.43   11.93
  -3  -7   8  267.83   10.11
  -3  -7  -8  231.64    8.20
  -7  -3   8  234.21    7.21
  -7  -3  -8  270.66   13.06
   3   7  -9  363.38   18.44
   3  -7  -9  252.57   12.89
   7   3  -9  243.82   11.44
   7  -3  -9  285.61   17.61
   7  -3   9  264.36   12.80
   7   3   9  253.16   12.92
   3  -7   9  270.90   15.04
   3   7   9  242.56   12.26
   3  -7  -9  321.37   15.07
  -3  -7  -9  284.20   14.02
  -7  -3  -9  258.30   12.33
  -7   3  -9  273.27   15.78
   7  -3  -9  272.74   11.31
  -3   7  -9  275.39   18.29
   3   7  -9  274.52   20.41
   7   3  -9  261.88   14.03
  -3  -7   9  250.70   13.01
  -3  -7  -9  296.36   14.92
  -7  -3   9  263.24   13.38
  -7  -3  -9  246.47   10.91
   3   7 -10  259.17   17.91
   3  -7 -10  280.52    8.44
   7   3 -10  269.47    9.39
   7  -3 -10  250.97   14.05
   7  -3  10  251.78    9.08
   7   3  10  237.47   10.08
   3  -7  10  251.06   11.95
   3   7  10  252.83   15.03
  -3  -7 -10  252.90    9.79
   3  -7 -10  272.24    9.31
  -7  -3 -10  291.71   12.41
  -7   3 -10  242.03   10.46
   7  -3 -10  251.03    6.80
  -3   7 -10  263.85    9.65
   3   7 -10  252.25   10.55
   7   3 -10  269.77    8.90
  -3  -7  10  269.44   10.44
  -3  -7 -10  263.11    9.39
  -7  -3  10  247.12    8.65
  -7  -3 -10  253.65   12.18
   3   7 -11   23.93    5.22
   3  -7 -11    5.92    2.42
   7   3 -11    3.89    3.20
   7  -3 -11    6.26    2.91
   7  -3  11    2.64    2.15
   7   3  11    6.26    3.99
   3  -7  11   13.26    3.87
   3   7  11    6.58    3.37
  -3  -7 -11   14.88    3.08
   3  -7 -11    5.20    1.95
  -7  -3 -11    7.36    2.76
  -7   3 -11   10.17    3.92
   7  -3 -11   11.12    1.90
  -3   7 -11    6.05    4.39
   3   7 -11   10.68    4.76
   7   3 -11    5.81    5.42
  -3  -7  11    3.02    2.47
  -3  -7 -11   15.12    2.96
  -7  -3  11   11.36    3.36
  -7  -3 -11    3.39    3.21
   3   7 -12   25.42    5.61
   3  -7 -12   52.46    9.63
   7   3 -12   51.05    6.45
   7  -3 -12   14.93    6.84
   7  -3  12   63.82   11.37
   7   3  12   37.24    9.78
   3  -7  12   35.18    6.58
   3   7  12   44.81    9.45
  -3  -7 -12   39.49    7.57
   3  -7 -12   51.78    6.73
  -7  -3 -12   63.12   11.16
  -7   3 -12   44.83   11.30
  -3   7 -12   50.63    9.14
   3   7 -12   14.76    6.21
   7   3 -12   59.30    9.21
  -7  -3 -12   53.15    4.85
   3   7 -13  115.82   17.58
   3  -7 -13   99.12   16.87
   7   3 -13  108.37    7.08
   7  -3 -13  102.39   18.04
   7  -3  13   92.60   17.45
   7   3  13  113.31   11.40
   3  -7  13  129.42    6.89
   3   7  13  104.18    9.75
  -3  -7 -13  103.86   15.81
  -7  -3 -13  100.35    9.42
  -7   3 -13   98.48   12.17
  -3   7 -13   88.11   18.87
   3   7 -13  108.76    8.23
   7   3 -13   92.65   18.12
   3   7 -14    9.66    3.81
   3  -7 -14    6.93    3.98
   7   3 -14   -3.64    3.54
   7  -3 -14    3.55    2.27
   7  -3  14    2.92    2.88
   7   3  14    2.66    2.84
   3  -7  14    6.39    2.43
   3   7  14    5.30    2.37
  -3  -7 -14    9.19    4.27
  -7  -3 -14    3.88    2.36
  -7   3 -14    8.65    3.77
   7   3 -14    3.01    3.35
   3   7 -14    8.51    5.09
   3   7 -15   71.18   14.40
   3  -7 -15   78.21   16.54
   7   3 -15   95.67   18.02
   7  -3 -15   81.21   11.83
   7  -3  15   54.75   18.88
   7   3  15   79.82   15.28
   3  -7  15   74.05   18.64
   3   7  15   67.61   12.75
  -3  -7 -15   80.46   13.89
  -7  -3 -15   82.58   15.08
  -7   3 -15   78.67   18.96
  -3   7 -15   64.17   14.76
   7   3 -15   65.78   13.41
   3   7 -15   77.68   21.74
   3   7 -16   76.56   14.44
   3  -7 -16   87.72   14.95
   7   3 -16   82.65   19.01
   7  -3 -16   89.50   17.83
   7  -3  16   79.83   20.95
   7   3  16   83.04   21.56
   3  -7  16   81.73   19.86
   3   7  16   69.55   11.94
  -3  -7 -16   86.48   16.17
  -7  -3 -16   88.92   17.16
  -7   3 -16   85.74   17.52
  -3   7 -16   81.06   18.37
   7   3 -16   82.32   17.48
   3   7 -16   88.77   19.57
   3  -7 -17   -0.99    3.58
   7   3 -17   10.66    5.44
   7  -3 -17    8.58    3.42
   7  -3  17    5.89    3.40
   7   3  17    9.43    3.93
   3  -7  17    9.81    3.73
   3   7  17    7.12    5.75
  -3  -7  17    5.16    2.83
  -3  -7 -17   10.50    4.56
  -7  -3 -17    4.50    3.44
  -7   3 -17    5.00    4.80
  -3   7 -17    8.61    6.84
   7   3 -17    5.75    3.51
   3   7 -17    2.97    3.82
   3  -7 -18    7.21    6.05
   7   3 -18   -0.39    2.82
   7  -3 -18    8.64    3.17
   7  -3  18    7.64    6.77
   7   3  18    5.06    4.91
   3  -7  18    2.06    2.99
   3   7  18    3.16    1.36
  -3  -7  18    5.07    3.03
  -3  -7 -18    3.80    2.20
  -7  -3 -18    6.91    5.14
  -7   3 -18    5.64    3.63
  -3   7 -18   12.19    8.70
   7   3 -18   -0.40    3.61
   3   7 -18    1.92    3.30
   3  -7 -19    9.87    4.16
   7   3 -19   22.24    5.26
   7  -3 -19   20.32    6.97
   7  -3  19   11.42    9.32
   7   3  19   23.55    8.43
   3  -7  19   13.26    5.28
   3   7  19   26.73    6.61
  -3  -7  19   16.07    5.13
  -3  -7 -19   15.34    5.38
  -7  -3 -19   20.42    5.50
  -7   3 -19   25.05    9.67
  -3   7 -19   11.57    5.33
   7   3 -19   19.79    5.96
   3   7 -19   20.32    6.84
   3  -7 -20    8.72    4.79
   7   3 -20    8.68    5.18
   7  -3 -20   10.56    4.26
   7  -3  20   15.16    6.00
   7   3  20   12.95    9.15
   3  -7  20   11.26    4.60
   3   7  20   16.72    6.59
  -3  -7  20   18.01    5.70
  -3  -7 -20    8.98    4.50
  -7  -3 -20   22.84    6.00
  -7   3 -20   14.76    5.64
  -3   7 -20   11.52    2.85
   3   7 -20   17.16    6.12
   3  -7  21   -0.22    3.06
   3   7  21    5.31    5.54
  -3  -7  21    6.59    5.31
   3   7 -21   -0.65    4.49
   4   7   0  574.44   12.96
   4  -7   0  582.12   13.63
   7  -4   0  583.76   14.83
   7   4   0  562.86   13.63
  -7   4   0  560.69   12.35
  -4   7   0  600.88   15.42
  -4  -7   0  574.54   15.71
  -7  -4   0  557.27   14.85
   4   7  -1  453.15   10.81
   4  -7  -1  467.10   11.99
   7   4  -1  458.03   11.80
   7  -4  -1  461.06   13.66
   4  -7   1  439.01    5.94
   4   7   1  468.64   11.15
   7  -4   1  440.62    7.93
   7   4   1  451.15   11.35
  -7   4   1  447.87    9.72
  -7   4  -1  452.76   10.21
  -4   7  -1  440.85    7.62
  -4   7   1  457.25   12.22
  -4  -7   1  441.43    9.52
  -4  -7  -1  448.55   12.19
  -7  -4   1  480.75   13.01
  -7  -4  -1  444.63    7.26
   4   7  -2  361.55   17.60
   4  -7  -2  347.91   17.70
   7   4  -2  355.32   17.80
   7  -4  -2  337.30   20.91
   7  -4   2  346.84   18.01
   7   4   2  339.05   17.02
   4   7   2  353.91   17.19
  -7   4  -2  323.29   15.95
   7  -4  -2  331.56   15.87
  -4   7  -2  348.99   17.53
  -4   7   2  332.41   16.65
  -4  -7   2  358.36   19.90
  -4  -7  -2  322.54   19.84
  -7  -4   2  335.20   17.98
  -7  -4  -2  352.93   18.07
   4   7  -3   90.11    6.19
   4  -7  -3   70.95    8.88
   7   4  -3   82.02    7.46
   7  -4  -3   98.24   11.12
   7  -4   3   72.35    5.83
   4  -7   3   82.70    5.73
   7   4   3   90.90    9.30
   4   7   3   76.58    4.59
  -7  -4  -3   71.89    5.72
  -7   4  -3   83.83    5.60
  -4   7  -3   74.52    6.27
  -4   7   3   85.45    4.85
   4   7  -3   94.67   13.13
  -4  -7   3   76.22   10.74
  -4  -7  -3   88.94    7.39
  -7  -4   3   86.62    5.84
  -7  -4  -3   73.51    6.08
   4   7  -4  916.05   23.21
   4  -7  -4  891.41   24.47
   7   4  -4  882.79   25.19
   7  -4  -4  883.17   27.29
   7  -4   4  926.45   26.69
   4  -7   4  897.04   23.70
   7   4   4  948.35   25.63
   4   7   4  918.94   24.20
  -7  -4  -4  900.83   23.91
  -7   4  -4  946.88   24.83
  -4   7  -4  874.57   24.52
  -4   7   4  894.08   21.73
   4   7  -4  922.06   29.15
  -4  -7   4  903.22   25.58
  -4  -7  -4  895.64   24.00
  -7  -4   4  913.52   25.60
  -7  -4  -4  903.03   23.76
   4   7  -5  187.32    5.80
   4  -7  -5  187.32    5.65
   7   4  -5  178.07    6.99
   7  -4  -5  193.80    6.57
   7  -4   5  166.00    8.43
   7   4   5  189.74   10.81
   4  -7   5  207.19    7.04
   4   7   5  169.47    4.74
  -7   4  -5  175.76    5.88
  -4   7  -5  163.37    5.80
   4   7  -5  182.36    7.83
   7   4  -5  161.93   11.53
  -4  -7   5  174.34    6.37
  -4  -7  -5  199.28    6.22
  -7  -4   5  189.82    4.96
  -7  -4  -5  174.92    5.81
   4   7  -6   81.34    9.34
   4  -7  -6   70.40   11.08
   7   4  -6   81.14   11.15
   7  -4  -6   91.46   14.33
   7  -4   6   72.68    8.46
   7   4   6   76.32    8.93
   4  -7   6   83.49   13.69
   4   7   6   68.47   11.17
  -4  -7  -6   63.68    6.18
  -7  -4  -6   72.18   13.29
  -7   4  -6   74.54    6.19
   4   7  -6   63.79    8.27
   7   4  -6   91.51   14.51
  -4  -7   6   79.46    7.76
  -4  -7  -6   67.24   13.33
  -7  -4   6   70.64    5.04
  -7  -4  -6   82.47   14.25
   4   7  -7   13.25    2.97
   4  -7  -7   18.15    4.60
   7   4  -7   20.97    6.84
   7  -4  -7   11.05    5.89
   7  -4   7   13.11    5.68
   7   4   7   13.98    5.51
   4  -7   7   18.22    4.75
   4   7   7   19.05    3.84
  -4  -7  -7   18.47    5.29
  -7  -4  -7   16.05    3.95
   7  -4  -7   11.77    1.72
  -7   4  -7   19.99    4.72
  -4   7  -7   12.41    4.12
   4   7  -7   12.35    5.81
   7   4  -7   19.86    6.84
  -4  -7   7   19.17    4.17
  -4  -7  -7   15.07    4.65
  -7  -4   7    9.95    4.31
  -7  -4  -7   21.23    4.63
   4   7  -8  249.68    9.39
   4  -7  -8  214.55   20.58
   7   4  -8  206.35   17.78
   7  -4  -8  235.91    8.01
   7  -4   8  234.17    8.17
   7   4   8  263.13   15.69
   4  -7   8  259.75   12.24
   4   7   8  228.92    8.60
  -4  -7  -8  261.95    9.24
  -7  -4  -8  222.59   22.64
  -7   4  -8  246.77    8.86
  -4   7  -8  249.17    9.57
   4   7  -8  263.38   12.97
   7   4  -8  226.77   20.15
  -4  -7   8  241.78   12.31
  -4  -7  -8  260.97   12.17
  -7  -4   8  246.77   10.66
  -7  -4  -8  231.56    7.93
   4   7  -9  110.52    9.00
   4  -7  -9  103.24   17.64
   7   4  -9  100.88    5.82
   7  -4  -9  124.84   16.49
   7  -4   9   98.31   18.39
   7   4   9  108.21   10.51
   4  -7   9  103.46    9.87
   4   7   9   90.62   14.16
   4  -7  -9   86.95    5.74
  -4  -7  -9   96.27    9.28
  -7  -4  -9  108.32    8.20
  -7   4  -9  107.51    6.66
  -4   7  -9   95.99   16.81
   4   7  -9  106.11   18.62
   7   4  -9  106.80   14.66
  -4  -7   9   97.27    5.44
  -4  -7  -9  105.60    5.06
  -7  -4   9   98.70    4.80
  -7  -4  -9   99.66   10.18
   4   7 -10  141.96   11.06
   4  -7 -10   64.84   13.60
   7   4 -10   60.40   13.23
   7  -4 -10   86.00   16.69
   7  -4  10   65.94   13.77
   7   4  10  103.60    5.99
   4  -7  10  119.91   11.70
   4   7  10   84.28   13.20
   4  -7 -10   60.54    6.13
  -4  -7 -10  103.05    7.45
  -7  -4 -10   69.15   13.46
  -7   4 -10  101.41    9.80
  -4   7 -10   71.79   14.90
   4   7 -10   99.03   19.50
   7   4 -10   67.78   14.04
  -4  -7  10   63.71    6.56
  -4  -7 -10  107.59   10.50
  -7  -4  10  101.15    8.66
  -7  -4 -10   62.28   10.43
   4   7 -11  298.37   15.41
   4  -7 -11  233.01   12.65
   7   4 -11  258.08   14.67
   7  -4 -11  235.78   21.17
   7  -4  11  249.47   16.97
   7   4  11  217.82   11.45
   4  -7  11  247.59   13.26
   4   7  11  244.01   11.93
  -4  -7 -11  257.11   13.48
  -7  -4 -11  230.41   17.95
  -7   4 -11  249.23   15.65
  -4   7 -11  248.86   25.69
   4   7 -11  247.40   24.61
   7   4 -11  242.99   16.51
  -4  -7  11  248.45   12.37
  -4  -7 -11  241.51   12.49
  -7  -4  11  230.82   13.26
  -7  -4 -11  249.22   13.40
   4   7 -12  307.94   15.56
   4  -7 -12  304.62   14.50
   7   4 -12  297.70   17.81
   7  -4 -12  273.33   22.46
   7  -4  12  294.65   12.32
   7   4  12  296.79   12.25
   4  -7  12  269.25   15.58
   4   7  12  283.84   10.11
  -4  -7 -12  286.73   10.45
  -7  -4 -12  280.77   21.57
  -7   4 -12  271.78   16.15
  -4   7 -12  292.97   15.30
   4   7 -12  320.81   15.92
   7   4 -12  304.57   13.12
  -4  -7 -12  262.27   14.79
  -7  -4 -12  284.21    8.75
   4   7 -13   48.99   11.88
   4  -7 -13   60.79    8.38
   7   4 -13   55.65    8.65
   7  -4 -13   56.68    7.78
   7  -4  13   51.08   12.16
   7   4  13   57.08    8.05
   4  -7  13   51.05   11.12
   4   7  13   52.14   10.92
  -4  -7 -13   56.91   11.71
  -7  -4 -13   75.73   10.55
  -7   4 -13   49.49   11.43
  -4   7 -13   53.41    7.79
   4   7 -13   48.99    8.43
   7   4 -13   50.24    9.48
   4   7 -14  152.95   11.30
   4  -7 -14  194.74   27.26
   7   4 -14  177.87    8.47
   7  -4 -14  168.42   16.49
   7  -4  14  140.31   18.27
   7   4  14  150.79   20.36
   4  -7  14  153.16    8.66
   4   7  14  150.02   15.94
  -4  -7 -14  153.14   25.01
  -7  -4 -14  171.48   16.60
  -7   4 -14  153.06    8.32
  -4   7 -14  145.38   10.19
   4   7 -14  169.24    9.24
   7   4 -14  139.44   21.62
   4   7 -15   30.86    5.95
   4  -7 -15   48.64   12.87
   7   4 -15   32.42    5.68
   7  -4 -15   46.03    7.96
   7  -4  15   36.22   10.40
   7   4  15   25.21    8.37
   4  -7  15   41.54    9.35
   4   7  15   36.57    6.11
  -4  -7 -15   35.71    6.96
  -7  -4 -15   35.24    8.21
  -7   4 -15   37.84   10.27
  -4   7 -15   37.45   10.73
   7   4 -15   41.61    7.50
   4   7 -15   39.13    9.98
   4   7 -16  146.84   26.03
   4  -7 -16  152.43   18.65
   7   4 -16  161.17   16.37
   7  -4 -16  182.72   31.05
   7  -4  16  151.49   18.23
   7   4  16  136.24   31.93
   4  -7  16  178.01   19.67
   4   7  16  162.93   23.19
  -4  -7 -16  175.56   20.10
  -7  -4 -16  182.27   23.80
  -7   4 -16  160.14   24.23
  -4   7 -16  166.18   19.60
   7   4 -16  147.79   20.17
   4   7 -16  148.34   28.06
   4   7 -17   43.46   10.79
   4  -7 -17   43.94    8.13
   7   4 -17   42.75   10.89
   7  -4 -17   52.39   12.09
   7  -4  17   51.76   21.32
   7   4  17   43.77   11.85
   4  -7  17   38.32   14.01
   4   7  17   38.68   10.28
  -4  -7 -17   36.37    9.97
  -7  -4 -17   49.47    7.88
  -7   4 -17   46.51    7.80
  -4   7 -17   46.25   11.99
   7   4 -17   35.06    6.75
   4   7 -17   41.36    8.12
   4  -7 -18   17.62    4.51
   7   4 -18   82.50   29.32
   7  -4 -18   23.69    6.11
   7  -4  18    7.74    6.01
   7   4  18   14.40    4.51
   4  -7  18   18.67    3.86
   4   7  18   14.07    5.83
  -4  -7 -18   10.05    4.55
  -7  -4 -18   10.57    3.07
  -7   4 -18   16.66    4.68
  -4   7 -18   12.05    3.52
   7   4 -18   21.00    6.53
   4   7 -18   14.02    4.92
   4  -7 -19   13.86    5.25
   7   4 -19   -1.01    3.89
   7  -4 -19    4.09    2.69
   7  -4  19   -0.12    4.31
   7   4  19    6.40    4.26
   4  -7  19    5.06    4.40
   4   7  19   -0.70    3.20
  -4  -7  19    9.69    4.38
  -4  -7 -19    2.51    1.44
  -7  -4 -19    4.11    3.26
  -7   4 -19   -2.59    4.37
  -4   7 -19    9.82   10.62
   7   4 -19    4.60    3.01
   4   7 -19    3.55    5.94
   4  -7 -20    2.39    3.12
   7   4 -20    3.72    3.98
   7  -4 -20    6.14    3.72
   7  -4  20    2.18    5.03
   7   4  20    2.75    3.63
   4  -7  20    3.43    4.52
   4   7  20    4.13    2.76
  -4  -7  20    7.50    5.40
  -4  -7 -20    5.09    2.08
  -7  -4 -20    7.28    4.20
  -7   4 -20   -1.23    4.18
  -4   7 -20    0.37    4.76
   7   4 -20    6.95    4.92
   4   7 -20    8.37    6.66
   4  -7  21    5.73    5.27
  -4  -7  21    5.65    3.44
  -4  -7 -21    5.01    4.54
   5   7   0  124.79    6.98
   5  -7   0  145.97   10.39
   7  -5   0  136.55   11.38
   7   5   0  125.38   11.73
  -7   5   0  128.69    6.97
  -5   7   0  131.36    8.56
  -5  -7   0  119.73    8.68
  -7  -5   0  143.17   15.38
   5   7  -1  669.81   15.49
   5  -7  -1  659.56   16.89
   7   5  -1  655.21   15.55
   7  -5  -1  686.00   16.49
   5  -7   1  670.87   15.58
   5   7   1  669.79   15.78
   7  -5   1  699.81   20.69
   7   5   1  669.29   16.14
  -7   5   1  655.26   13.85
  -7   5  -1  673.84   14.98
  -5   7   1  668.18   14.72
  -5   7  -1  658.21   14.98
  -5  -7   1  669.08   18.05
  -5  -7  -1  692.90   18.52
  -7  -5   1  651.67   17.01
  -7  -5  -1  648.08   15.83
   5   7  -2   93.03    4.16
   5  -7  -2   82.93    4.34
   7   5  -2   77.97    8.19
   7  -5  -2  103.23    9.49
   5  -7   2   96.52    4.63
   7  -5   2  103.22    8.27
   7   5   2   92.22    8.65
   5   7   2   76.60    6.21
  -7   5  -2   97.62    3.97
  -5   7   2   91.40    2.05
  -5   7  -2   76.69    7.32
  -5  -7   2   81.19   10.60
  -5  -7  -2  108.92   14.74
  -7  -5   2   96.82    5.53
  -7  -5  -2   85.25   15.92
   5  -7  -3  594.02   16.73
   7   5  -3  600.02   17.41
   7  -5  -3  533.48   16.56
   7  -5   3  597.30   19.18
   5  -7   3  512.71   14.71
   7   5   3  529.36   15.33
   5   7   3  591.34   16.56
  -7   5  -3  537.33   15.12
  -5   7  -3  566.68   16.44
   5   7  -3  525.57   16.58
  -5  -7   3  582.34   17.12
  -5  -7  -3  539.84   16.52
  -7  -5   3  514.18   16.91
  -7  -5  -3  566.03   16.63
   5   7  -4   56.69    3.05
   5  -7  -4   49.19    9.25
   7   5  -4   42.88    8.60
   7  -5  -4   53.97    9.76
   7  -5   4   55.08    4.65
   5  -7   4   50.27    8.74
   7   5   4   49.09    9.42
   5   7   4   40.15    4.48
  -7  -5  -4   48.96    9.46
  -7   5  -4   55.25    8.02
  -5   7  -4   51.78    9.29
   5   7  -4   62.29   12.34
   7   5  -4   45.39    5.45
  -5  -7   4   44.09   10.08
  -5  -7  -4   55.88   10.32
  -7  -5   4   55.11    8.46
  -7  -5  -4   49.72    9.83
   5   7  -5  314.53   10.09
   5  -7  -5  320.95   10.60
   7   5  -5  336.40   15.73
   7  -5  -5  312.84   11.65
   7  -5   5  337.75   12.88
   5  -7   5  323.58   13.95
   7   5   5  329.39   13.38
   5   7   5  326.89   11.01
  -7  -5  -5  327.12   11.02
  -7   5  -5  336.49   14.49
  -5   7  -5  319.98   10.98
   5   7  -5  335.80   15.53
   7   5  -5  333.25   14.04
  -5  -7   5  325.29   13.40
  -5  -7  -5  320.26   11.19
  -7  -5   5  322.70   10.15
  -7  -5  -5  317.29   10.57
   5   7  -6  194.01   17.59
   5  -7  -6  234.08    7.56
   7   5  -6  221.89   19.35
   7  -5  -6  176.20   15.56
   7  -5   6  236.75    7.60
   5  -7   6  175.92   17.35
   7   5   6  185.94   16.12
   5   7   6  232.53    6.77
  -5  -7  -6  196.57   17.02
  -7  -5  -6  217.48   18.60
  -7   5  -6  197.84   17.21
  -5   7  -6  217.37   19.26
   5   7  -6  194.33   21.29
   7   5  -6  209.93   21.97
  -5  -7   6  229.63    7.33
  -5  -7  -6  191.37   16.70
  -7  -5   6  188.40   16.36
  -7  -5  -6  217.96   20.35
   5   7  -7  271.60    8.30
   5  -7  -7  299.73   14.78
   7   5  -7  332.61   12.64
   7  -5  -7  263.74   22.12
   7  -5   7  312.41    9.99
   5  -7   7  298.80    9.76
   7   5   7  282.48   14.22
   5   7   7  296.83    8.65
  -5  -7  -7  276.23   10.17
  -7  -5  -7  314.85   16.72
  -7   5  -7  276.63   11.76
  -5   7  -7  291.05   10.99
   5   7  -7  290.83   12.25
   7   5  -7  302.56   15.43
  -5  -7   7  304.17   10.71
  -5  -7  -7  289.10   14.31
  -7  -5   7  277.83   11.96
  -7  -5  -7  294.61    7.81
   5   7  -8  211.60   11.84
   5  -7  -8  220.78   12.90
   7   5  -8  228.69   12.09
   7  -5  -8  187.91   17.45
   7  -5   8  223.96   12.43
   5  -7   8  227.95   11.22
   7   5   8  221.25   14.23
   5   7   8  243.09   18.07
  -5  -7  -8  216.38   11.08
  -7  -5  -8  226.10   14.77
  -7   5  -8  194.32   10.33
  -5   7  -8  225.04   16.13
   5   7  -8  214.95   12.15
   7   5  -8  222.90   15.29
  -5  -7   8  221.41   12.37
  -5  -7  -8  202.60   17.76
  -7  -5   8  203.46   15.81
  -7  -5  -8  247.80   14.80
   5   7  -9  195.13   14.64
   5  -7  -9  175.29    8.58
   7   5  -9  180.46    8.98
   7  -5  -9  196.20    9.05
   7  -5   9  195.68   12.12
   5  -7   9  218.25    8.46
   7   5   9  189.88    9.52
   5   7   9  171.36    7.35
  -7  -5  -9  170.97    9.39
  -7   5  -9  211.28   12.48
  -5   7  -9  180.20   10.07
   5   7  -9  201.72   15.08
   7   5  -9  167.52   19.50
  -5  -7   9  186.21    7.73
  -5  -7  -9  197.87   10.50
  -7  -5   9  218.29   12.38
  -7  -5  -9  185.71   15.91
   5   7 -10  169.62   13.18
   5  -7 -10  193.63    8.49
   7   5 -10  178.18   12.55
   7  -5 -10  158.05   15.49
   7  -5  10  181.82    8.87
   5  -7  10  163.27   10.94
   7   5  10  163.99   16.70
   5   7  10  175.78   17.25
  -5  -7 -10  179.11   15.96
  -7  -5 -10  214.97   21.13
  -7   5 -10  161.80    8.09
  -5   7 -10  204.81    8.17
   5   7 -10  149.71   12.75
   7   5 -10  201.44   10.80
  -5  -7  10  183.14   11.04
  -5  -7 -10  162.11    8.28
  -7  -5  10  168.69    7.60
  -7  -5 -10  181.53   10.63
   5   7 -11   83.86   13.22
   5  -7 -11   76.25   12.76
   7   5 -11   78.17   12.40
   7  -5 -11   77.65   15.72
   7  -5  11   89.79   14.63
   5  -7  11   85.77   16.42
   7   5  11   84.43   16.57
   5   7  11   69.08   11.53
  -5  -7 -11   81.42   13.32
  -7  -5 -11   83.31   13.01
  -7   5 -11  100.87   14.48
  -5   7 -11   77.70   12.56
   5   7 -11   89.26   15.60
   7   5 -11   87.10   12.33
  -5  -7  11   75.98    7.88
  -5  -7 -11   85.39   11.29
  -7  -5  11   91.32    8.19
  -7  -5 -11   86.02    8.21
   5   7 -12   21.82    5.53
   5  -7 -12   19.14    4.85
   7   5 -12   31.99    8.95
   7  -5 -12   32.34    8.12
   7  -5  12   13.25    6.83
   5  -7  12   27.99    5.93
   7   5  12   26.04    8.21
   5   7  12   10.70    4.85
  -5  -7 -12   27.03    6.75
  -7  -5 -12   21.45    5.68
  -7   5 -12   33.42    7.99
  -5   7 -12   18.49    9.30
   5   7 -12   35.84    7.36
   7   5 -12   33.08    6.80
  -5  -7 -12   21.98    4.77
  -7  -5 -12   18.42    4.02
   5   7 -13  303.06   22.78
   5  -7 -13  236.34   11.86
   7   5 -13  241.35   22.49
   7  -5 -13  247.58   11.86
   7  -5  13  217.10   17.60
   5  -7  13  218.75   22.19
   7   5  13  231.77   13.91
   5   7  13  225.66   12.39
  -5  -7 -13  233.58   15.14
  -7  -5 -13  234.27   17.29
  -7   5 -13  238.52    8.86
  -5   7 -13  216.39   24.17
   5   7 -13  254.95   25.74
   7   5 -13  219.01   32.36
   5   7 -14    9.81    3.89
   5  -7 -14    9.94    4.13
   7   5 -14   14.21    4.41
   7  -5 -14    5.24    3.62
   7  -5  14    7.64    3.99
   5  -7  14   14.04    5.53
   7   5  14    7.37    3.64
   5   7  14    8.10    3.41
  -5  -7 -14    5.18    3.28
  -7  -5 -14    8.08    2.41
  -7   5 -14    2.01    2.83
  -5   7 -14   10.82    5.19
   5   7 -14   10.06    5.40
   7   5 -14    8.74    5.09
   5   7 -15   74.52   16.32
   5  -7 -15   76.15   14.53
   7   5 -15   92.23   12.30
   7  -5 -15   76.34   13.51
   7  -5  15   79.49   17.85
   5  -7  15   80.45   10.36
   7   5  15   75.06   15.91
   5   7  15   76.08   17.76
  -5  -7 -15   73.58   13.39
  -7  -5 -15   87.65   14.29
  -7   5 -15   84.72   16.48
  -5   7 -15   83.59   16.03
   5   7 -15   57.77   15.54
   7   5 -15   79.00   14.39
   5   7 -16    1.24    2.68
   5  -7 -16    5.56    2.51
   7   5 -16    1.54    5.01
   7  -5 -16    2.99    3.60
   7  -5  16    3.73    4.16
   5  -7  16   12.84    4.87
   7   5  16   -3.47    4.53
   5   7  16    7.14    4.34
  -5  -7 -16   -1.20    2.19
  -7  -5 -16    4.02    3.02
  -7   5 -16    2.18    3.30
  -5   7 -16    8.19    5.21
   7   5 -16    8.28    5.91
   5   7 -16   11.67    6.53
   5   7 -17   22.26    6.07
   5  -7 -17   32.69    6.81
   7   5 -17   10.99    4.66
   7  -5 -17   14.83    4.49
   7  -5  17   32.47    7.39
   5  -7  17   22.75    5.02
   7   5  17   27.03    6.05
   5   7  17   28.24    6.53
  -5  -7 -17   15.64    6.11
  -7  -5 -17   21.75    6.41
  -7   5 -17   14.61    5.65
  -5   7 -17   30.94   10.43
   7   5 -17   17.46    4.66
   5   7 -17   30.61    7.41
   5   7 -18   36.02   10.32
   5  -7 -18   39.85    9.54
   7   5 -18   34.19   10.34
   7  -5 -18   55.21   13.91
   7  -5  18   37.73   14.50
   5  -7  18   58.54    7.77
   7   5  18   45.43   14.31
   5   7  18   36.05   11.82
  -5  -7 -18   51.06    8.05
  -7  -5 -18   62.69   13.75
  -7   5 -18   45.80   10.93
  -5   7 -18   42.04   13.05
   7   5 -18   32.12   10.79
   5   7 -18   50.22   11.53
   5   7 -19   30.77   10.24
   5  -7 -19   21.82    7.47
   7   5 -19   29.37    6.07
   7  -5 -19   39.81    7.99
   7  -5  19   28.81   11.99
   5  -7  19   34.46    9.84
   7   5  19   28.12    8.32
   5   7  19   23.69    8.57
  -5  -7 -19   38.21    6.56
  -7  -5 -19   38.87    7.37
  -7   5 -19   31.79   10.86
   7   5 -19   20.47    7.69
   5   7 -19   14.91    4.80
   5  -7 -20    8.87    6.83
   7   5 -20    5.91    4.45
   7  -5 -20   -0.67    4.09
   7  -5  20   11.68    6.05
   5  -7  20    4.76    4.47
   7   5  20    8.87    4.14
   5   7  20    7.81    4.30
  -5  -7  20    5.33    3.58
  -5  -7 -20    8.06    4.21
  -7  -5 -20    6.32    3.77
  -7   5 -20    7.33    3.11
  -5   7 -20    8.58    3.17
   7   5 -20    2.22    3.34
   5   7 -20    4.24    3.01
  -5  -7  21    7.74    4.73
  -5  -7 -21   12.14    3.72
   6   7   0  685.33   18.22
   6  -7   0  681.84   21.15
   7  -6   0  687.27   23.07
   7   6   0  681.12   24.71
  -7   6   0  663.22   16.90
  -6   7   0  703.10   17.80
  -6  -7   0  687.37   19.46
  -7  -6   0  643.15   18.17
   6   7  -1  321.88   10.76
   6  -7  -1  299.68   10.17
   7   6  -1  296.92   11.16
   7  -6  -1  322.08   10.99
   6  -7   1  322.92   11.57
   6   7   1  294.11   11.83
   7  -6   1  289.10   10.03
   7   6   1  300.48   10.66
  -7   6   1  305.14    7.85
  -7   6  -1  319.37    9.29
  -6   7   1  315.80    8.15
  -6   7  -1  307.44   10.89
  -6  -7   1  330.60   12.10
  -6  -7  -1  315.65   10.86
  -7  -6   1  300.37   10.60
  -7  -6  -1  288.17   14.38
   6   7  -2  371.02   10.73
   6  -7  -2  400.75   13.27
   7   6  -2  394.44   12.60
   7  -6  -2  357.25   11.49
   6  -7   2  364.69   12.53
   7  -6   2  382.69   13.36
   6   7   2  450.98   13.85
   7   6   2  432.24   12.89
  -7   6  -2  369.85   11.30
  -6   7  -2  388.32   11.20
  -6  -7   2  414.21   15.16
  -6  -7  -2  358.07   11.96
  -7  -6   2  341.28   11.10
  -7  -6  -2  383.19   12.99
   6   7  -3   79.60    4.45
   7   6  -3   84.38    8.57
   6  -7  -3   82.82    6.75
   7  -6  -3   87.20    6.18
   6  -7   3   84.46    9.83
   7  -6   3  119.51   11.77
   7   6   3   82.91    9.14
   6   7   3   78.29    8.41
  -7   6  -3   99.23    8.17
  -6   7  -3   77.13    4.03
  -6  -7   3   97.39    6.69
  -6  -7  -3   79.04   14.33
  -7  -6   3   78.89    9.78
  -7  -6  -3   94.80    6.70
   6   7  -4    1.85    1.84
   7   6  -4    7.89    3.79
   6  -7  -4    1.33    2.90
   7  -6  -4    2.57    2.97
   7  -6   4    5.70    3.31
   6  -7   4    2.40    2.36
   7   6   4    2.14    2.51
   6   7   4    0.62    2.68
  -7   6  -4    1.99    1.25
  -6   7  -4   -2.24    2.11
   6   7  -4    7.50    5.17
   7   6  -4    0.66    3.99
  -6  -7   4   -0.37    3.32
  -6  -7  -4    2.55    1.39
  -7  -6   4    9.01    3.96
  -7  -6  -4    2.44    2.01
   6   7  -5  220.73   20.25
   7   6  -5   83.67    9.07
   6  -7  -5   80.04    9.51
   7  -6  -5   92.74    9.79
   7  -6   5   82.32    9.30
   6  -7   5  112.80   12.47
   7   6   5   93.73   12.11
   6   7   5   86.04    9.89
  -7  -6  -5   89.59   10.31
  -7   6  -5  315.73   33.95
  -6   7  -5   95.75   10.02
   6   7  -5  111.71   20.13
   7   6  -5   79.82   17.26
  -6  -7   5   86.27   16.92
  -6  -7  -5  116.42   20.79
  -7  -6   5   90.95   14.33
  -7  -6  -5   99.79   19.26
   6   7  -6  649.12   13.90
   7   6  -6  651.21   14.66
   6  -7  -6  635.69   13.25
   7  -6  -6  615.99   14.85
   7  -6   6  649.21   16.10
   6  -7   6  679.80   14.38
   7   6   6  718.04   15.16
   6   7   6  664.80   14.63
  -6  -7  -6  667.03   17.17
  -7   6  -6  764.22   23.90
  -6   7  -6  640.72   18.79
   6   7  -6  677.56   14.42
   7   6  -6  640.33   17.56
  -6  -7   6  635.98   12.71
  -6  -7  -6  688.14   17.25
  -7  -6   6  703.13   14.18
  -7  -6  -6  617.11   13.29
   6   7  -7  246.73   13.32
   7   6  -7  261.24   14.79
   6  -7  -7  311.25   14.68
   7  -6  -7  255.46   12.92
   7  -6   7  272.59   20.14
   6  -7   7  232.45   14.74
   7   6   7  241.48   12.55
   6   7   7  293.23   16.04
  -6  -7  -7  260.31   13.91
  -7  -6  -7  262.34   13.77
  -7   6  -7  280.95   14.30
  -6   7  -7  284.38   12.92
   6   7  -7  226.55   16.88
   7   6  -7  272.96   14.52
  -6  -7   7  307.30   15.72
  -7  -6   7  236.06   19.57
  -6  -7  -7  242.61   11.39
  -7  -6  -7  280.03   13.41
   6   7  -8  102.17    8.56
   7   6  -8  101.84    6.80
   6  -7  -8   88.55   15.31
   7  -6  -8   93.94   12.51
   7  -6   8   93.26    9.14
   6  -7   8  105.33   11.33
   7   6   8   96.37   11.28
   6   7   8   90.80    8.94
  -6  -7  -8  102.86   17.64
  -7  -6  -8  125.95   10.40
  -7   6  -8  122.74   20.17
  -6   7  -8  103.45    5.87
   6   7  -8  112.22   16.78
   7   6  -8  105.54   21.79
  -6  -7   8   92.43    6.85
  -7  -6   8  107.26   10.36
  -6  -7  -8  111.37   10.41
  -7  -6  -8   96.51   12.92
   6   7  -9  129.17    7.44
   7   6  -9  116.34    7.35
   6  -7  -9  112.45   19.32
   7  -6  -9  121.27   20.83
   7  -6   9  137.27   16.82
   6  -7   9  122.02   17.52
   7   6   9  110.75   15.53
   6   7   9  125.16   13.08
  -6  -7  -9  124.26    9.98
  -7  -6  -9  126.85   10.15
  -6   7  -9  107.42    9.15
   6   7  -9  118.22   25.11
   7   6  -9  121.64   18.98
  -6  -7   9  125.59    9.37
  -7  -6   9  125.44    5.87
  -6  -7  -9  141.36    7.74
  -7  -6  -9  125.14    9.78
   6   7 -10  274.00   13.58
   7   6 -10  278.46   13.72
   6  -7 -10  272.89   15.66
   7  -6 -10  255.60   22.37
   7  -6  10  277.81   17.61
   6  -7  10  256.04   19.62
   7   6  10  296.78   18.95
   6   7  10  260.59   14.24
  -6  -7 -10  350.12   15.82
  -7  -6 -10  283.71   16.85
  -7   6 -10  336.55   16.52
  -6   7 -10  265.11   13.36
   6   7 -10  275.61   16.07
   7   6 -10  256.74   24.53
  -6  -7  10  278.32   12.60
  -7  -6  10  279.77   12.53
  -6  -7 -10  294.85   16.56
  -7  -6 -10  276.38   17.72
   6   7 -11  160.97   12.01
   7   6 -11  151.28    9.16
   6  -7 -11  157.99   19.95
   7  -6 -11  140.72   14.14
   7  -6  11  152.69   14.51
   6  -7  11  146.18   15.59
   7   6  11  132.01    8.50
   6   7  11  154.34   13.05
  -6  -7 -11  166.00   14.46
  -7  -6 -11  157.07   11.92
  -7   6 -11  149.16   11.73
  -6   7 -11  148.71   10.13
   6   7 -11  148.58   26.10
   7   6 -11  130.23   27.44
  -6  -7  11  154.64    7.49
  -7  -6  11  142.76    9.61
  -6  -7 -11  161.73   12.55
  -7  -6 -11  138.94   14.72
   6   7 -12   37.98    9.30
   7   6 -12   44.30    9.00
   6  -7 -12   53.39    7.00
   7  -6 -12   43.36    9.03
   7  -6  12   56.41   11.39
   6  -7  12   48.21    7.07
   7   6  12   36.98    7.35
   6   7  12   45.26    9.29
  -6  -7 -12   49.82    8.62
  -7  -6 -12   57.26    9.26
  -7   6 -12   50.17   10.88
  -6   7 -12   53.02    9.13
   6   7 -12   41.58   10.17
   7   6 -12   41.81    8.79
  -6  -7 -12   35.93    6.17
  -7  -6 -12   42.23    8.06
   6   7 -13   35.54    4.88
   7   6 -13   36.34    5.32
   6  -7 -13   35.35    7.09
   7  -6 -13   35.58    6.66
   7  -6  13   26.51    6.11
   6  -7  13   27.63    8.64
   7   6  13   38.07    7.23
   6   7  13   29.42    6.50
  -6  -7 -13   31.95    5.64
  -7  -6 -13   50.51    7.95
  -7   6 -13   30.86    7.90
  -6   7 -13   31.50    7.50
   7   6 -13   30.24    8.76
   6   7 -13   34.91    8.42
   6   7 -14    8.88    2.78
   7   6 -14   21.11    4.50
   6  -7 -14   10.10    2.74
   7  -6 -14    8.85    5.31
   7  -6  14   18.00    4.51
   6  -7  14   12.11    5.37
   7   6  14   11.56    4.86
   6   7  14    6.59    2.80
  -6  -7 -14    4.12    3.08
  -7  -6 -14   16.81    5.26
  -7   6 -14    6.24    2.90
  -6   7 -14   17.80    3.95
   7   6 -14    9.92    5.05
   6   7 -14   21.11    5.25
   6   7 -15   18.42    6.12
   7   6 -15   13.07    5.51
   6  -7 -15   13.04    3.67
   7  -6 -15   15.82    5.55
   7  -6  15    9.98    4.13
   6  -7  15   18.92    5.68
   7   6  15   13.17    7.41
   6   7  15    8.54    5.42
  -6  -7 -15   20.72    3.93
  -7  -6 -15   18.67    4.78
  -7   6 -15   15.01    5.62
  -6   7 -15   13.36    8.14
   6   7 -15   21.05    6.56
   7   6 -15    8.37    3.58
   6   7 -16   21.37    7.40
   7   6 -16   20.12    7.10
   6  -7 -16   26.17    4.79
   7  -6 -16   27.33    5.52
   7  -6  16   12.02    6.49
   6  -7  16   31.66    6.97
   7   6  16   43.12    7.39
   6   7  16   23.33   10.08
  -6  -7 -16   26.32    6.36
  -7  -6 -16   16.37    6.03
  -7   6 -16   22.90    7.45
  -6   7 -16   30.16    7.68
   7   6 -16   22.71    4.27
   6   7 -16   28.71    6.33
   6   7 -17   24.06    6.78
   7   6 -17   27.76   10.34
   6  -7 -17   35.25    6.96
   7  -6 -17   34.01    7.21
   7  -6  17   28.39   12.85
   6  -7  17   31.98   10.34
   7   6  17   30.78    7.39
   6   7  17   30.82   10.96
  -6  -7 -17   29.74    7.19
  -7  -6 -17   22.54    7.66
  -7   6 -17   22.94    9.68
  -6   7 -17   33.23    8.35
   7   6 -17   12.24    5.74
   6   7 -17   42.92    9.89
   6   7 -18   35.90    9.33
   7   6 -18   35.15    8.78
   6  -7 -18   39.72    9.08
   7  -6 -18   44.44   12.68
   7  -6  18   42.13   12.51
   6  -7  18   48.40   12.27
   7   6  18   47.60   11.63
   6   7  18   38.12    7.80
  -6  -7 -18   39.43   10.15
  -7  -6 -18   40.57    9.01
  -7   6 -18   40.02   12.87
  -6   7 -18   43.61   12.69
   7   6 -18   40.47   10.38
   6   7 -18   44.28    9.43
   6   7 -19   11.76    7.02
   7   6 -19   22.52    6.83
   6  -7 -19   22.24    5.97
   7  -6 -19   39.27   29.35
   7  -6  19   21.59    7.69
   6  -7  19   11.97    7.09
   7   6  19   21.06    8.79
   6   7  19   19.11    6.40
  -6  -7 -19   40.14    4.98
  -7  -6 -19   20.68    7.74
  -7   6 -19    8.67    4.41
  -6   7 -19   11.96    6.01
   7   6 -19   17.67    7.78
   6   7 -19   12.60    4.40
   6   7 -20    8.36    3.71
   7   6 -20    8.80    4.63
   6  -7 -20   10.84    5.84
   7  -6 -20   11.91    5.68
   7  -6  20    8.24    3.69
   6  -7  20    7.55    5.52
   7   6  20    6.35    3.49
   6   7  20    4.44    4.71
  -6  -7 -20    5.15    2.81
  -7  -6 -20    3.70    5.47
   7   6 -20    9.65    3.64
   6   7 -20    3.83    4.34
   7   7   0 1452.71   38.80
   7  -7   0 1336.09   37.61
  -7   7   0 1323.76   32.12
  -7  -7   0 1411.32   36.72
   7   7  -1  323.58   11.01
   7  -7  -1  354.56   12.61
   7  -7   1  329.01   11.31
   7   7   1  311.78    9.63
  -7   7   1  317.75    8.17
  -7   7  -1  325.75   10.01
  -7  -7   1  325.00   11.84
  -7  -7  -1  338.14   18.80
   7   7  -2  537.11   10.19
   7  -7  -2  527.07   18.22
   7  -7   2  518.13   12.50
   7   7   2  539.29   12.75
  -7  -7   2  533.54   12.26
  -7  -7  -2  520.28   11.95
   7   7  -3  605.38   13.88
   7  -7  -3  612.88   13.96
   7   7   3  592.40   13.91
  -7   7  -3  548.08   12.89
  -7  -7   3  556.32   16.76
  -7  -7  -3  562.03   13.12
   7   7  -4  183.50   16.97
   7  -7  -4  193.03   17.26
   7  -7   4  173.78   15.38
   7   7   4  188.94   16.13
  -7   7  -4  185.22   16.64
   7   7  -4  206.28   27.21
  -7  -7   4  196.75   18.06
  -7  -7  -4  190.62   16.67
   7   7  -5   36.26    5.91
   7  -7  -5   37.28    8.86
   7  -7   5   31.50    6.43
   7   7   5   35.16    8.80
  -7   7  -5   33.64    7.69
   7   7  -5   35.98    6.68
  -7  -7   5   40.81    8.74
  -7  -7  -5   43.16    9.68
   7   7  -6    3.56    2.82
   7  -7  -6   -2.35    2.92
   7  -7   6    4.67    3.22
   7   7   6    3.11    3.92
  -7  -7  -6   -2.97    3.18
  -7   7  -6    2.63    3.20
   7   7  -6    5.66    3.89
  -7  -7   6    0.80    1.97
  -7  -7  -6    4.95    3.86
   7   7  -7    2.93    1.20
   7  -7  -7   -1.48    2.21
   7  -7   7    0.85    2.17
   7   7   7   -1.16    3.07
  -7  -7  -7    1.10    1.42
  -7   7  -7    3.21    2.52
   7   7  -7   -4.93    4.91
  -7  -7   7    2.81    1.61
  -7  -7  -7    1.84    2.76
   7   7  -8  206.73   12.60
   7  -7  -8  244.73   10.29
   7  -7   8  189.54   14.69
   7   7   8  201.75    8.77
  -7  -7  -8  215.73   15.91
  -7   7  -8  212.56   11.50
   7   7  -8  185.06   15.72
  -7  -7   8  216.81    8.69
  -7  -7  -8  200.32    9.96
   7   7  -9  262.84   16.79
   7  -7  -9  246.50   11.62
   7  -7   9  276.51   14.14
   7   7   9  251.35   15.52
  -7  -7  -9  232.18   18.42
  -7   7  -9  232.56   12.03
   7   7  -9  282.83   25.40
  -7  -7   9  272.24   12.29
  -7  -7  -9  254.54   17.64
   7   7 -10    8.55    4.18
   7  -7 -10    3.63    5.18
   7  -7  10    3.71    2.49
   7   7  10    6.65    3.50
  -7  -7 -10    7.90    3.06
  -7   7 -10   -3.89    3.89
   7   7 -10    6.56    3.71
  -7  -7  10    6.49    2.76
  -7  -7 -10    6.66    3.56
   7   7 -11    4.40    1.93
   7  -7 -11    2.61    2.80
   7  -7  11    3.25    2.57
   7   7  11    4.90    3.40
  -7  -7 -11   -0.49    2.98
  -7   7 -11    2.59    4.54
   7   7 -11    2.34    3.83
  -7  -7  11    0.54    2.18
  -7  -7 -11    2.97    2.14
   7   7 -12  129.04   21.63
   7  -7 -12  142.47   23.10
   7  -7  12  147.28   12.41
   7   7  12  153.82    8.13
  -7  -7 -12  147.07   15.05
   7   7 -12  133.65   17.74
  -7  -7 -12  152.45   16.04
   7   7 -13  120.13   12.68
   7  -7 -13  117.34   20.21
   7  -7  13  110.31   17.05
   7   7  13  125.18   12.32
  -7  -7 -13  115.91   19.98
  -7   7 -13  106.53   20.38
   7   7 -13  113.84   22.94
   7   7 -14   31.04    6.02
   7  -7 -14   38.94    7.22
   7  -7  14   39.11    9.54
   7   7  14   28.52    7.59
  -7  -7 -14   36.61    7.48
  -7   7 -14   34.33    7.09
   7   7 -14   33.33    8.10
   7   7 -15   35.93    8.33
   7  -7 -15   45.20    7.32
   7  -7  15   37.04    8.03
   7   7  15   33.95    9.98
  -7  -7 -15   31.41    7.63
  -7   7 -15   49.15   10.27
   7   7 -15   31.75    8.84
   7   7 -16    3.96    3.91
   7  -7 -16    6.03    5.09
   7   7  16   -0.93    4.21
  -7  -7 -16    6.11    4.00
  -7   7 -16    7.34    2.91
   7   7 -16    5.83    4.02
   7   7 -17   -2.05    3.28
   7  -7 -17    7.77    4.15
   7  -7  17    3.68    3.77
   7   7  17   -0.05    3.41
  -7  -7 -17    0.05    2.48
  -7   7 -17    5.02    4.18
   7   7 -17    4.70    1.98
   7   7 -18    0.26    2.80
   7  -7 -18    3.17    2.13
   7  -7  18    0.39    3.45
   7   7  18    3.82    3.01
  -7  -7 -18    0.82    5.26
  -7   7 -18    4.62    4.35
   7   7 -18    1.39    4.35
   7   7 -19    6.11    3.46
   7  -7 -19   14.30    7.55
   7  -7  19    3.21    4.59
   7   7  19    5.55    2.98
  -7  -7 -19   10.93    4.81
  -7   7 -19    9.45    5.13
   7   7 -19    8.93    6.53
   7   7 -20    1.56    2.82
  -7  -7 -20    1.54    2.76
   7   7 -20   -0.48    3.22
   8   0   0  745.68   17.81
   0   8   0  766.32   18.91
   0  -8   0  779.01   19.52
   8   0  -1  536.44   16.02
   8   0   1  529.82   19.93
  -8   0  -1  576.49   15.52
   0   8  -1  536.28   12.99
   0  -8   1  556.44   17.54
   0  -8  -1  529.58   14.96
   8   0  -2  598.89   14.69
   0   8   2  588.05   12.50
   8   0   2  639.99   17.15
  -8   0  -2  639.49   16.79
   0   8  -2  627.05   15.92
   0  -8   2  622.73   19.04
   0  -8  -2  604.35   15.85
   0  -8  -3  848.03   19.60
   8   0  -3  857.70   20.35
   8   0   3  883.63   21.35
  -8   0  -3  840.80   20.78
   0   8  -3  853.71   20.10
   0  -8  -3  858.23   20.79
   0  -8  -4    1.98    1.30
   8   0  -4    2.15    2.72
   8   0   4    6.39    4.42
   0  -8   4    3.18    1.62
  -8   0  -4    3.04    2.32
   0   8  -4    3.58    3.99
   0  -8   4   -0.74    3.25
   0  -8  -4    4.67    2.77
   0  -8  -5  402.59   10.68
   8   0  -5  381.89   13.89
   8   0   5  392.59   19.05
   0  -8   5  381.83   11.58
  -8   0  -5  417.04   18.30
   0   8  -5  383.82   13.40
   8   0  -5  395.01   11.54
   0  -8   5  385.05   12.34
   0  -8  -5  407.51   12.69
   0  -8  -6  385.03   11.11
   8   0  -6  384.16   14.03
   8   0   6  392.21   12.79
   0  -8   6  392.48   11.02
  -8   0  -6  381.58   17.17
   0   8  -6  381.90   14.32
   8   0  -6  406.38   12.21
   0  -8  -6  417.45   12.88
   0  -8  -7   25.56    4.74
   8   0  -7   36.62    6.90
   8   0   7   28.06    6.23
   0  -8   7   24.05    4.47
  -8   0  -7   22.37    6.34
   0   8  -7   25.52    6.24
   8   0  -7   20.29    6.09
   0  -8  -7   27.72    6.06
   0  -8  -8    4.17    2.13
   8   0  -8    4.35    3.12
   8   0   8   -2.43    4.13
   0  -8   8    4.23    3.61
   0  -8  -8    5.43    1.78
  -8   0  -8    9.19    3.87
   0   8  -8    2.49    5.48
   8   0  -8    4.16    2.52
   0  -8  -8    6.34    2.82
   0  -8  -9   78.96   11.28
   8   0  -9   73.67   14.68
   8   0   9   80.81   14.12
   0  -8   9   80.45    9.94
   0  -8  -9   79.53    8.87
  -8   0  -9   89.71    7.37
   0   8  -9   92.78   13.19
   8   0  -9   87.85   10.59
   0  -8 -10   85.12   14.63
   8   0 -10   95.84    9.73
   8   0  10  100.96   10.84
   0  -8  10  105.89    6.83
   0  -8 -10  101.57   12.12
  -8   0 -10  105.94   11.83
   0   8 -10   92.06   18.44
   8   0 -10   86.92   14.68
  -8   0  10   94.46    8.58
   0  -8 -11  103.44   18.14
   8   0 -11  106.22   16.30
   8   0  11  115.20   10.87
   0  -8  11  133.19   17.67
   0  -8 -11  116.63   12.18
  -8   0 -11  112.04    8.48
   8   0 -11  115.68    7.13
   0   8 -11   94.00   20.19
  -8   0  11  111.00    7.48
   0  -8 -12  149.53    8.28
   8   0 -12  136.32   22.65
   8   0  12  147.85   20.13
   0  -8  12  153.22   15.92
   0  -8 -12  143.88   15.40
  -8   0 -12  154.17   11.75
   8   0 -12  126.31   21.04
   0   8 -12  170.46   10.99
   8   0 -13  313.56   12.19
   8   0  13  309.96   12.37
   0  -8  13  362.30   14.25
   0  -8 -13  297.38   15.82
  -8   0 -13  327.36   15.72
   8   0 -13  306.97   23.46
   0   8 -13  309.08   21.71
   8   0 -14    0.88    3.43
   8   0  14   -2.68    4.21
   0  -8  14    4.41    2.34
   0   8  14    3.30    1.71
   0  -8 -14   -0.45    2.48
  -8   0 -14   -3.37    3.81
   8   0 -14    3.67    3.04
   0   8 -14    2.04    4.34
   8   0 -15  220.45   17.98
   8   0  15  209.87   19.53
   0  -8  15  231.90   13.73
   0   8  15  177.93   16.35
   0  -8 -15  214.46   13.26
  -8   0 -15  221.41   19.23
   0   8 -15  207.55   21.32
   8   0 -16    6.19    3.18
   8   0  16   12.95    4.62
   0  -8  16    7.79    4.50
   0   8  16    8.77    3.83
  -8   0 -16   12.13    6.01
   0   8 -16    6.15    5.58
   8   0 -17   44.06    6.37
   8   0  17   44.62   11.07
   0  -8  17   51.33   10.86
   0   8  17   23.40   11.09
  -8   0 -17   57.39    6.89
   0   8 -17   38.35    9.07
   8   0 -18   16.47    5.04
   8   0  18   16.83    6.58
   0  -8  18    5.90    4.30
   0   8  18   13.89    5.25
  -8   0 -18   11.44    4.71
   0   8 -18   14.93    6.77
   8   0 -19    6.40    3.97
   8   0  19    4.98    4.46
   0  -8  19    2.34    4.32
   0   8  19    4.57    2.62
  -8   0 -19   -0.65    3.63
   0   8 -19    4.22    4.61
   8   0 -20   12.44    6.12
   8   0  20    6.87    3.95
   0  -8  20    7.45    3.84
   0   8  20    4.78    4.39
  -8   0 -20    8.17    2.88
   0   8 -20   -1.75    4.00
   0  -8  21    0.62    1.80
   0   8  21    8.78   10.48
   8   1   0  681.13   20.79
   8  -1   0  677.16   17.25
  -1   8   0  694.85   14.55
  -8   1   0  683.09   16.71
  -1   8   0  696.03   19.58
   1  -8   0  693.78   19.82
  -1  -8   0  712.99   18.36
   1  -8   1   28.60    2.78
   1  -8   1   34.30    2.58
   8  -1  -1   47.25    8.19
   8   1  -1   29.00    6.20
   8  -1   1   35.53    7.82
   8   1   1   40.50    6.83
  -1   8   1   29.97    2.73
  -8  -1  -1   32.09    5.58
  -8   1  -1   46.04    6.09
  -1   8  -1   24.72    3.54
   1   8  -1   39.38    4.69
  -1   8   1   36.80    7.14
   1  -8   1   55.10   11.91
   1  -8  -1   30.26    7.19
  -1  -8   1   41.13    9.43
  -1  -8  -1   38.22   10.12
   1   8   2  756.17   15.85
   8   1  -2  788.38   18.98
   8  -1  -2  782.14   18.78
   8  -1   2  767.07   21.20
   8   1   2  791.12   19.24
   1   8   2  769.64   16.07
  -8  -1  -2  740.94   20.66
  -8   1  -2  762.48   17.52
  -1   8  -2  852.18   25.21
   1   8  -2  768.07   24.33
   1  -8  -2  762.39   18.80
  -1  -8   2  764.46   18.95
  -1  -8  -2  759.44   18.21
   1  -8  -3  740.75   16.78
  -1  -8   3  754.98   15.85
   8   1  -3  743.14   19.08
   8  -1  -3  793.51   20.85
   8  -1   3  724.92   19.17
   8   1   3  771.17   18.88
   1  -8   3  742.22   15.90
   1   8   3  749.12   16.13
  -8  -1  -3  749.47   21.74
  -8   1  -3  736.62   16.72
  -1   8  -3  740.06   18.95
   1   8  -3  774.53   18.67
   1  -8  -3  752.10   21.13
  -1  -8   3  729.00   22.38
  -1  -8  -3  787.57   19.74
   1  -8  -4  876.33   22.35
   8   1  -4  861.08   23.34
   8  -1  -4  900.83   24.28
   8  -1   4  875.92   25.23
   8   1   4  884.57   25.93
   1  -8   4  930.21   23.43
  -1  -8   4  857.00   21.24
   1   8   4  904.38   22.97
  -8  -1  -4  830.67   22.41
  -8   1  -4  905.84   24.59
  -1   8  -4  844.85   24.56
   1   8  -4  870.78   26.52
   8  -1  -4  870.67   21.88
   1  -8  -4  900.37   24.91
  -1  -8   4  881.87   24.82
  -1  -8  -4  916.05   25.58
   1  -8  -5  206.59    4.06
   8   1  -5  224.04   22.16
   8  -1  -5  188.39    7.02
   8  -1   5  223.83   19.49
   8   1   5  181.07    6.97
   1  -8   5  182.64    4.08
  -1  -8   5  220.97   18.26
   1   8   5  209.18    5.02
  -8  -1  -5  204.62    9.79
  -8   1  -5  188.58    7.39
  -1   8  -5  218.15    8.31
   1   8  -5  190.81   14.72
   8  -1  -5  193.84    4.70
   8   1  -5  211.84    9.04
  -1  -8   5  234.32   13.27
  -1  -8  -5  208.08   12.32
   8   1  -6  388.11   12.88
   8  -1  -6  373.72   13.71
   8  -1   6  390.30   13.91
   8   1   6  362.78   12.81
   1  -8   6  352.37   11.15
  -1  -8   6  392.78   11.42
   1   8   6  372.28   11.29
  -8  -1  -6  379.11   20.62
  -8   1  -6  355.06   14.44
  -1   8  -6  399.36   19.53
   1   8  -6  337.92   13.87
   8  -1  -6  375.47   11.56
   8   1  -6  392.72   12.51
  -1  -8   6  405.08   14.63
  -1  -8  -6  347.47   15.97
   1  -8  -7  343.82    9.09
   8   1  -7  336.79   13.95
   8  -1  -7  333.48    9.58
   8  -1   7  314.41   11.62
   8   1   7  347.62   13.53
   1  -8   7  351.02    8.11
  -1  -8   7  330.43    9.75
   1   8   7  326.58    9.13
  -1  -8  -7  348.27    9.45
  -8  -1  -7  346.11   14.09
  -8   1  -7  323.66   14.55
  -1   8  -7  351.46   13.56
   8  -1  -7  333.51    8.82
   1   8  -7  347.11   11.15
   8   1  -7  328.30   13.20
  -1  -8   7  324.15   10.71
  -1  -8  -7  341.95   12.37
  -8  -1   7  329.08    9.11
   1  -8  -8  344.62   15.53
   8   1  -8  235.57    8.02
   8  -1  -8  259.58    7.97
   8  -1   8  264.60   21.02
   8   1   8  248.12   13.79
   1  -8   8  235.59    7.88
  -1  -8   8  259.09    7.11
   1   8   8  249.95    9.78
   1  -8  -8  262.64    8.93
  -1  -8  -8  259.33   10.06
  -8  -1  -8  289.61   10.86
  -8   1  -8  263.72   14.28
  -1   8  -8  281.73   16.34
   8  -1  -8  355.67   13.73
   1   8  -8  250.19   13.45
   8   1  -8  268.05    8.89
  -1  -8   8  277.46   19.80
  -1  -8  -8  248.00    8.93
  -8  -1   8  243.65    8.45
   1  -8  -9  367.59   15.20
   8   1  -9  418.80   19.63
   8  -1  -9  417.11   18.46
   8  -1   9  384.15   18.43
   8   1   9  407.51   18.18
   1  -8   9  417.05   17.61
  -1  -8   9  375.24   16.15
   1   8   9  363.54   17.34
   1  -8  -9  357.99   14.70
  -1  -8  -9  409.07   17.62
  -8  -1  -9  414.11   26.99
  -8   1  -9  390.38   20.79
  -1   8  -9  390.36   29.49
   8  -1  -9  405.73   16.46
   1   8  -9  589.96   33.26
   8   1  -9  381.81   16.40
  -1  -8  -9  414.69   21.11
  -8  -1   9  410.55   18.08
   1  -8 -10  175.32   14.87
   8   1 -10  165.76   14.29
   8  -1 -10  168.30   19.11
   8  -1  10  179.47   18.39
   8   1  10  190.42    8.68
   1  -8  10  179.72    7.29
  -1  -8  10  163.59    9.79
   1   8  10  159.92   12.75
   1  -8 -10  167.14    5.89
  -1  -8 -10  194.92   14.66
  -8  -1 -10  174.51   12.71
  -8   1 -10  184.00   14.77
   8  -1 -10  193.40    9.74
  -1   8 -10  166.90    9.50
   1   8 -10  188.55   20.59
   8   1 -10  244.56   12.27
  -1  -8 -10  181.56   14.91
  -8  -1  10  170.57   10.33
   1  -8 -11    2.54    2.41
   8   1 -11   -0.13    3.87
   8  -1 -11   -1.27    4.12
   8  -1  11    2.62    2.65
   8   1  11    2.80    2.58
   1  -8  11    4.53    2.73
  -1  -8  11    1.32    2.24
   1   8  11    1.21    2.11
  -1  -8 -11    4.06    2.92
   1  -8 -11   -1.02    1.82
  -8  -1 -11    6.18    2.98
  -8   1 -11   12.62    3.45
   8  -1 -11    3.19    1.37
  -1   8 -11    6.30    4.68
   1   8 -11    1.12    3.72
   8   1 -11    1.15    1.63
  -1  -8 -11    4.70    2.57
  -8  -1  11    3.41    2.03
  -8   1  11    5.20    2.12
   1  -8 -12  256.29   13.39
   8   1 -12  239.26   15.42
   8  -1 -12  264.82   20.81
   8  -1  12  235.31   10.78
   8   1  12  242.35   11.84
   1  -8  12  237.45    7.07
  -1  -8  12  275.27   14.54
   1   8  12  272.33   10.46
   1  -8 -12  235.16   12.54
  -1  -8 -12  244.79    9.08
  -8  -1 -12  268.25   14.88
  -8   1 -12  231.38   16.15
   8  -1 -12  222.92   17.14
  -1   8 -12  293.56   20.84
   8   1 -12  278.65   12.26
   1   8 -12  231.72   11.69
  -8  -1 -12  263.28    8.70
   1  -8 -13   45.41    8.67
   8   1 -13   60.15   10.98
   8  -1 -13   49.41    7.80
   8  -1  13   57.00   11.68
   8   1  13   31.85    8.31
   1  -8  13   39.12   10.71
  -1  -8  13   46.01    8.99
   1   8  13   43.69   12.44
  -1  -8 -13   44.87    7.96
   1  -8 -13   55.91    8.89
  -8  -1 -13   69.58    9.88
  -8   1 -13   44.80    7.29
   8  -1 -13   32.43    5.93
  -1   8 -13   56.88   14.86
   8   1 -13   58.89    9.71
   1   8 -13   55.03    9.63
   1  -8 -14  133.37   21.50
   8   1 -14  148.61    9.43
   8  -1 -14  145.00   23.19
   8  -1  14  142.40   15.88
   8   1  14  148.85   18.33
   1  -8  14  134.89   14.08
  -1  -8  14  144.31   15.69
  -1  -8 -14  146.73    7.17
   1  -8 -14  137.27   14.79
  -8  -1 -14  159.98   10.91
  -8   1 -14  173.33    9.72
  -1   8 -14  134.40   12.56
   8   1 -14  124.43   16.03
   1   8 -14  153.93   20.34
   1  -8 -15   23.18    5.83
   8   1 -15   34.39    8.08
   8  -1 -15   37.79   11.47
   8  -1  15   34.92    9.92
   8   1  15   44.13    9.68
   1  -8  15   45.27    6.75
  -1  -8  15   24.68    9.76
   1   8  15   39.30    7.70
  -1  -8 -15   38.20    5.16
  -8  -1 -15   35.52    7.58
  -8   1 -15   37.76    5.24
  -1   8 -15   36.74    9.00
   8   1 -15   27.00    6.54
   1   8 -15   39.54    9.04
   8   1 -16  126.89   22.24
   8  -1 -16  132.98   25.04
   8  -1  16  126.88   23.92
   8   1  16  129.76   14.05
   1  -8  16  112.47   11.09
  -1  -8  16  136.28   12.00
   1   8  16  104.16   22.44
  -1  -8 -16   99.07   18.13
  -8  -1 -16  159.47   26.80
  -8   1 -16  159.25   25.85
  -1   8 -16  104.26   27.64
   1   8 -16  130.08   28.62
   8   1 -17    1.39    2.63
   8  -1 -17   10.35    5.06
   8  -1  17   11.58    6.05
   8   1  17   10.35    6.18
   1  -8  17    6.39    4.32
  -1  -8  17   10.86    5.15
   1   8  17    4.72    3.57
  -1   8  17    8.10    3.57
  -1  -8 -17    4.24    2.21
  -8  -1 -17    9.85    6.03
  -8   1 -17   11.07    3.23
  -1   8 -17    6.47    7.31
   1   8 -17   -1.89    4.92
   8   1 -18   11.78    7.28
   8  -1 -18   12.41    4.08
   8  -1  18   27.68    6.89
   8   1  18   22.32    5.90
   1  -8  18    9.44    3.01
  -1  -8  18   12.84    3.98
   1   8  18   15.44    4.22
  -1   8  18   10.76    4.98
  -8  -1 -18   21.04    4.99
  -8   1 -18   18.78    6.21
  -1   8 -18   30.25    7.29
   1   8 -18   14.78    6.15
   8   1 -19   13.65    5.82
   8  -1 -19   14.39    5.79
   8  -1  19    7.17    4.75
   8   1  19   12.97    7.16
   1  -8  19   12.10    5.52
  -1  -8  19    9.99    6.82
   1   8  19   10.64    3.44
  -1   8  19   14.39    4.32
  -8  -1 -19   20.08    4.84
  -8   1 -19   19.21    5.35
  -1   8 -19    9.49    3.71
   1   8 -19    7.45    2.95
   8   1 -20  100.81   38.79
   8  -1 -20   13.70    6.86
   8  -1  20    7.21    2.14
   8   1  20    6.73    4.10
  -1  -8  20    7.77    5.11
   1   8  20   12.23    6.92
  -1   8  20    5.60    3.12
  -8  -1 -20   16.22    5.13
  -8   1 -20   12.15    4.28
  -1   8 -20    7.07    3.92
   1   8 -20   10.54    4.56
   1  -8  21    5.92    5.94
  -1  -8  21   10.17    5.41
   1   8  21    5.78    3.95
  -1   8  21    9.41    4.83
   2  -8   0   10.21    1.87
   8  -2   0    7.71    2.36
   8   2   0   16.27    4.35
  -8   2   0   11.37    1.83
  -2   8   0   10.28    4.02
  -2  -8   0    3.39    3.21
   2  -8  -1   14.75    2.55
   2  -8   1   22.91    3.63
   8   2  -1   12.44    4.57
   8  -2  -1   20.59    4.84
   8  -2   1   17.98    3.55
   8   2   1   19.79    6.20
  -8   2  -1   20.32    4.07
  -2   8  -1   19.75    4.46
  -2   8   1   27.91    4.46
  -2  -8   1   15.39    5.41
  -2  -8  -1   21.05    5.78
   2  -8  -2   62.77    3.91
   2   8   2   52.25    3.58
   8   2  -2   64.00    5.78
   8  -2  -2   67.22    5.86
   2  -8   2   65.18    4.88
   8  -2   2   63.27    8.97
   8   2   2   84.85    6.55
   2   8   2   54.34    4.46
  -8  -2  -2   67.24    5.99
  -8   2  -2   76.14    8.75
  -2   8  -2   70.54    8.03
   2   8  -2   64.54    7.95
  -2   8   2   72.24    4.65
  -2  -8   2   54.29    7.56
  -2  -8  -2   66.73    9.64
   2  -8  -3  870.85   19.64
   8   2  -3  894.49   22.14
   8  -2  -3  891.40   21.35
   8  -2   3  926.96   22.56
   8   2   3  877.75   21.01
   2  -8   3  868.68   19.05
   2   8   3  915.31   19.57
  -8  -2  -3  864.68   22.99
  -8   2  -3  869.81   19.65
  -2   8  -3  858.75   20.24
   2   8  -3  860.57   20.62
  -2  -8   3  910.58   23.22
  -2  -8  -3  837.83   21.49
   2  -8  -4  423.41   11.91
   8   2  -4  414.29   13.68
   8  -2  -4  410.44   13.40
   8  -2   4  421.36   13.89
   8   2   4  375.07   15.44
   2  -8   4  367.03   10.70
   2   8   4  420.11   11.64
  -8  -2  -4  407.97   13.70
  -8   2  -4  378.02   13.81
  -2   8  -4  397.99   15.62
   2   8  -4  386.39   13.04
   8  -2  -4  394.09   12.07
  -2  -8   4  394.89   11.65
  -2  -8  -4  384.96   12.20
   2   8  -5 1004.86   24.98
   2  -8  -5 1037.95   27.14
   8   2  -5 1039.93   29.14
   8  -2  -5 1031.96   29.71
   8  -2   5 1056.65   30.15
   8   2   5 1050.63   30.81
   2  -8   5 1038.43   26.18
   2   8   5 1040.76   26.00
  -8  -2  -5 1027.52   27.21
  -8   2  -5 1025.64   26.56
   2   8  -5 1086.92   34.05
   8   2  -5 1070.42   30.21
  -2  -8   5 1096.63   31.09
  -2  -8  -5 1073.11   29.98
  -8  -2   5 1058.02   28.11
   2   8  -6   74.90    3.90
   2  -8  -6   64.55    8.17
   8   2  -6   96.42   16.36
   8  -2  -6   88.70   10.14
   8  -2   6   86.96   17.48
   8   2   6   85.68   12.50
   2  -8   6   83.01    5.24
   2   8   6   70.62   10.18
  -8  -2  -6   71.45    7.45
  -8   2  -6   83.18   11.58
  -2   8  -6   99.79   19.15
   8  -2  -6   78.35    7.85
   2   8  -6   94.64   12.38
   8   2  -6   74.67    9.51
  -2  -8   6   81.98    8.93
  -2  -8  -6   66.39    8.50
  -8  -2   6   92.37    6.85
   2   8  -7  723.82   14.54
   2  -8  -7  750.46   13.67
   8   2  -7  723.58   22.55
   8  -2  -7  734.73   14.88
   8  -2   7  725.21   20.11
   8   2   7  769.86   18.69
   2  -8   7  752.11   12.43
   2   8   7  694.67   16.38
  -2  -8  -7  750.35   15.35
  -8  -2  -7  682.42   16.27
  -8   2  -7  754.72   16.07
  -2   8  -7  715.11   17.20
   8  -2  -7  738.16   13.56
   2   8  -7  718.16   14.58
   8   2  -7  727.52   16.18
  -2  -8   7  711.35   18.76
  -2  -8  -7  751.41   17.80
  -8  -2   7  753.25   15.71
   2   8  -8  161.57    9.33
   2  -8  -8  154.92   11.35
   8   2  -8  145.19   12.20
   8  -2  -8  167.90   10.26
   8  -2   8  145.00   12.14
   8   2   8  174.58   15.17
   2  -8   8  165.65   10.15
   2   8   8  177.10   10.20
  -2  -8  -8  194.61   14.44
  -8  -2  -8  149.25   16.22
  -8   2  -8  172.90    9.68
  -2   8  -8  158.07   13.98
   8  -2  -8  172.66   12.69
   2   8  -8  187.89   16.91
   8   2  -8  141.74   18.26
  -2  -8   8  156.40    8.97
  -2  -8  -8  168.52   10.57
  -8  -2   8  192.93   11.24
   2   8  -9  352.79   18.45
   2  -8  -9  334.05   14.19
   8  -2  -9  367.74   16.85
   8  -2   9  369.03   19.22
   8   2   9  365.27   16.21
   2  -8   9  371.57   16.18
   2   8   9  344.42   18.06
   2  -8  -9  332.13   15.68
  -2  -8  -9  349.69   14.57
  -8  -2  -9  350.75   21.07
  -8   2  -9  371.64   17.52
   8  -2  -9  390.32   20.58
  -2   8  -9  350.34   16.10
   2   8  -9  364.88   27.91
   8   2  -9  348.76   15.99
  -2  -8   9  354.16   17.94
  -2  -8  -9  400.85   19.62
  -8  -2   9  379.31   15.86
  -8  -2  -9  346.28   16.05
   2   8 -10   67.85    9.03
   2  -8 -10   79.76   13.95
   8   2 -10   77.93   14.14
   8  -2 -10   72.57   15.04
   8  -2  10   97.36   11.96
   8   2  10   76.81    9.89
   2  -8  10   70.02   15.50
   2   8  10   82.00   13.70
   2  -8 -10   83.61   10.00
  -2  -8 -10   73.22   11.51
  -8  -2 -10   96.03   15.36
  -8   2 -10   64.23   11.77
   8  -2 -10   60.62    9.16
  -2   8 -10   98.69   19.42
   2   8 -10   91.31   21.80
   8   2 -10   92.90   17.78
  -2  -8  10   76.04    8.54
  -2  -8 -10   63.31    6.61
  -8  -2  10   61.70    8.24
  -8  -2 -10   81.79   14.12
   2  -8 -11  226.60   46.17
   8   2 -11   32.74    8.30
   8  -2 -11    9.48    3.53
   8  -2  11   34.98    8.30
   8   2  11   12.75    5.30
   2  -8  11   12.60    6.11
   2   8  11   34.22    5.84
   2  -8 -11   35.77    4.76
  -2  -8 -11   22.44    3.62
  -8  -2 -11   30.46   10.06
  -8   2 -11   14.39    4.05
   8  -2 -11   10.69    2.24
  -2   8 -11   35.42    6.88
   2   8 -11   23.57    6.85
   8   2 -11   32.89    6.40
  -2  -8 -11   13.31    3.14
  -8  -2  11   16.20    2.93
  -8  -2 -11   33.26    6.80
   2  -8 -12  106.75   16.04
   8   2 -12  118.72    8.67
   8  -2 -12  117.61    9.31
   8  -2  12  131.05   12.85
   8   2  12  112.32   20.07
   2  -8  12   98.77   16.58
   2   8  12  103.46   16.91
   2  -8 -12  105.09   12.17
  -2  -8 -12  112.45   17.05
  -8  -2 -12  120.53   21.77
  -8   2 -12  110.99   18.19
  -2   8 -12  111.81   10.79
   2   8 -12  106.98   15.37
   8   2 -12  108.48   15.71
  -8  -2 -12   99.23    8.52
   2  -8 -13   71.33   13.49
   8   2 -13   70.00   10.26
   8  -2 -13   80.33   11.86
   8  -2  13   62.86   20.03
   8   2  13   79.86   19.06
   2  -8  13   78.17   14.55
   2   8  13   65.37   12.41
  -2  -8  13   61.36   11.22
  -2  -8 -13   82.26   13.33
  -8  -2 -13   95.66   14.59
  -8   2 -13   89.89    7.86
  -2   8 -13   88.37   14.94
   2   8 -13   65.95   15.73
   8   2 -13   66.96    5.48
   2  -8 -14   32.93    8.84
   8   2 -14   39.05    6.65
   8  -2 -14   52.27   10.05
   8  -2  14   37.13   11.37
   8   2  14   32.03    4.65
   2  -8  14   23.69   10.36
  -2  -8  14   28.09    7.15
  -2  -8 -14   38.45    6.79
  -8  -2 -14   35.35    7.39
  -8   2 -14   35.36    5.54
  -2   8 -14   34.71    6.59
   8   2 -14   22.73    5.18
   2   8 -14   29.57    8.46
   2  -8 -15   30.93    6.49
   8   2 -15   42.22    7.27
   8  -2 -15   18.71    4.49
   8  -2  15   36.40    9.93
   8   2  15   24.08    6.65
   2  -8  15   20.07    6.93
   2   8  15   24.17    5.95
  -2  -8  15   22.33    6.75
  -2  -8 -15   20.95    5.36
  -8  -2 -15   30.86    5.73
  -8   2 -15   33.42    6.01
  -2   8 -15   29.04    6.60
   8   2 -15   33.35    5.65
   2   8 -15   28.25    7.15
   2  -8 -16   49.97   10.99
   8   2 -16   38.76    8.70
   8  -2 -16   59.55   12.09
   8  -2  16   39.95   15.75
   8   2  16   49.18   14.76
   2  -8  16   36.15   11.00
   2   8  16   44.09   10.23
  -2  -8  16   36.37   11.44
  -2  -8 -16   39.04    7.30
  -8  -2 -16   50.72    9.59
  -8   2 -16   59.18    8.06
  -2   8 -16   46.62    8.56
   8   2 -16   33.65    7.23
   2   8 -16   47.39   10.51
   2  -8 -17   11.36    4.09
   8   2 -17   10.41    4.36
   8  -2 -17   16.81    7.26
   8  -2  17    9.27    3.09
   8   2  17   11.77    7.59
   2  -8  17    7.58    3.25
   2   8  17   18.57    6.08
  -2  -8  17   13.00    3.88
  -2  -8 -17   12.88    3.28
  -8  -2 -17   10.76    4.90
  -8   2 -17    9.57    3.04
  -2   8 -17   14.70    5.21
   8   2 -17    7.98    5.39
   2   8 -17   -0.44    5.68
   2  -8 -18    3.85    3.60
   8   2 -18    6.39    2.70
   8  -2 -18   11.46    4.18
   8  -2  18    4.92    3.17
   8   2  18    7.08    1.81
   2  -8  18    5.29    3.34
   2   8  18    4.92    4.70
  -2  -8  18    8.30    4.82
  -2  -8 -18    4.03    2.34
  -8  -2 -18    6.76    2.86
  -8   2 -18   -0.04    4.30
  -2   8 -18    6.96    4.49
   2   8 -18    2.44    4.08
   8   2 -19   12.84    4.54
   8  -2 -19   11.99    5.12
   8  -2  19    7.58    4.31
   8   2  19    4.62    4.74
   2  -8  19    4.68    3.44
   2   8  19    5.29    4.01
  -2   8  19    5.03    1.84
  -8  -2 -19    3.95    3.83
  -8   2 -19   12.70    5.68
  -2   8 -19   12.95    6.28
   2   8 -19    9.59    5.01
   8   2 -20   10.51    4.43
   8  -2 -20    8.95    3.12
   8  -2  20    3.89    3.26
   8   2  20   17.00    4.52
   2  -8  20    7.55    3.53
   2   8  20    6.77    3.75
  -2  -8  20    6.01    3.07
  -2   8  20    8.98    2.88
  -8  -2 -20   12.25    3.95
  -8   2 -20   12.13    5.17
  -2   8 -20    6.55    3.69
   2   8 -20   17.38    7.05
   2  -8  21   17.45   10.86
   2   8  21   22.54    6.16
  -2  -8  21   24.22    7.86
   3  -8   0  125.17    6.99
   8  -3   0  123.90   17.09
   8   3   0  125.86    7.83
  -3   8   0  127.26    9.93
  -3  -8   0  124.04   11.95
  -8  -3   0  141.05   14.01
   3   8   1  684.70   14.29
   3  -8  -1  722.55   16.09
   3   8   1  757.04   15.96
   3  -8   1  787.30   17.83
   8   3  -1  746.19   19.02
   8  -3  -1  821.03   20.38
   8  -3   1  749.91   18.96
   8   3   1  819.30   20.31
  -3  -8   1  771.56   15.92
  -8   3  -1  785.40   17.67
  -3   8  -1  741.54   19.03
  -3   8   1  819.22   20.36
  -3  -8   1  787.98   19.65
  -3  -8  -1  815.60   21.46
  -8  -3   1  810.45   19.15
  -8  -3  -1  774.85   23.97
   3   8  -2   20.03    3.19
   3  -8  -2   31.31    4.71
   8   3  -2   36.38    6.79
   8  -3  -2   29.54    6.52
   3  -8   2   32.22    6.41
   8  -3   2   36.97    6.47
   8   3   2   33.64    7.07
   3   8   2   31.69    4.14
  -3  -8   2   24.56    2.38
  -8   3  -2   31.90    5.69
  -3   8  -2   34.23    6.54
  -3   8   2   27.67    5.99
   3   8  -2   32.38    8.57
  -3  -8   2   26.73    8.39
  -3  -8  -2   25.27    7.34
  -8  -3   2   30.49    4.84
  -8  -3  -2   41.60    8.54
   3   8  -3  437.92   11.44
   3  -8  -3  456.20   13.36
   8   3  -3  461.35   14.79
   8  -3  -3  466.62   18.02
   8  -3   3  461.56   14.91
   3  -8   3  460.64   12.52
   8   3   3  465.40   17.37
   3   8   3  479.53   13.26
  -8  -3  -3  500.42   21.04
  -8   3  -3  460.78   15.53
  -3   8   3  447.95   13.80
   3   8  -3  439.03   15.43
  -3  -8   3  447.32   16.30
  -3  -8  -3  451.89   14.62
  -8  -3   3  470.98   18.28
  -8  -3  -3  479.57   15.52
   3   8  -4  507.12   13.71
   3  -8  -4  492.56   13.06
   8   3  -4  509.09   15.94
   8  -3  -4  471.41   15.25
   8  -3   4  494.66   17.90
   8   3   4  473.06   15.59
   3  -8   4  475.51   13.90
   3   8   4  479.56   13.69
  -8  -3  -4  468.47   15.28
  -8   3  -4  496.32   16.98
  -3   8  -4  521.78   15.72
   3   8  -4  496.08   23.58
  -3  -8   4  472.86   14.84
  -3  -8  -4  455.35   19.64
  -8  -3   4  492.04   17.04
  -8  -3  -4  480.26   14.22
   3   8  -5  465.97   13.01
   3  -8  -5  391.19   12.49
   8   3  -5  412.27   14.22
   8  -3  -5  458.49   14.83
   8  -3   5  429.19   20.22
   8   3   5  447.89   16.82
   3  -8   5  445.34   14.65
   3   8   5  443.51   13.17
  -8  -3  -5  403.44   14.93
  -8   3  -5  457.89   12.87
  -3   8  -5  392.41   12.25
   3   8  -5  427.10   15.72
   8   3  -5  412.72   16.01
  -3  -8   5  409.81   18.04
  -3  -8  -5  446.22   15.35
  -8  -3   5  462.44   13.66
  -8  -3  -5  409.19   12.62
   3  -8  -6  696.41   14.96
   8   3  -6  713.06   16.63
   8  -3  -6  695.79   14.90
   8  -3   6  716.81   15.50
   8   3   6  670.22   14.13
   3  -8   6  681.61   12.05
   3   8   6  711.16   15.45
  -8  -3  -6  729.88   16.50
  -8   3  -6  688.98   11.98
  -3   8  -6  704.52   18.39
   8   3  -6  707.42   22.18
  -3  -8   6  733.05   13.56
  -3  -8  -6  681.53   15.73
  -8  -3   6  751.98   13.60
  -8  -3  -6  684.64   13.35
   3   8  -7  117.47   12.21
   3  -8  -7  110.31   14.57
   8   3  -7  130.24   12.62
   8  -3  -7  121.02   12.38
   8  -3   7  136.38   15.12
   8   3   7  129.17   14.53
   3  -8   7  141.33   16.34
   3   8   7  122.07   16.96
  -3  -8  -7  127.26   12.58
  -8  -3  -7  125.60   11.93
  -8   3  -7  134.27   14.04
  -3   8  -7  130.14   14.90
   3   8  -7  132.23   15.57
   8   3  -7  119.22   18.24
  -3  -8   7  126.57   12.15
  -3  -8  -7  136.84   15.56
  -8  -3   7  130.31   11.95
  -8  -3  -7  127.62   12.23
   3   8  -8  472.62   18.89
   3  -8  -8  488.85   20.06
   8   3  -8  500.78   23.63
   8  -3  -8  453.50   20.13
   8  -3   8  472.56   20.81
   8   3   8  490.15   22.20
   3  -8   8  485.45   20.11
   3   8   8  465.35   24.11
  -3  -8  -8  490.22   19.94
  -8  -3  -8  495.36   21.08
  -8   3  -8  495.58   25.56
   8  -3  -8  491.12   19.32
  -3   8  -8  451.29   19.62
   3   8  -8  493.00   23.33
   8   3  -8  492.88   29.23
  -3  -8   8  490.62   20.49
  -3  -8  -8  483.98   21.68
  -8  -3   8  488.88   20.57
  -8  -3  -8  448.11   20.41
   3   8  -9   23.33    5.86
   3  -8  -9   48.39    9.04
   8   3  -9   41.95    7.46
   8  -3  -9   29.11    5.67
   8  -3   9   49.83   10.60
   8   3   9   27.66    6.55
   3  -8   9   33.12    5.29
   3   8   9   39.66    7.21
   3  -8  -9   32.67    5.98
  -3  -8  -9   32.00    6.14
  -8  -3  -9   32.51    6.92
  -8   3  -9   29.61    6.49
   8  -3  -9   20.56    3.20
  -3   8  -9   37.30    7.12
   3   8  -9   24.70    7.05
   8   3  -9   38.59    6.63
  -3  -8   9   38.08    8.21
  -3  -8  -9   27.33    5.10
  -8  -3   9   28.91    6.11
  -8  -3  -9   36.00    5.78
   3   8 -10  103.03    5.20
   3  -8 -10   94.66   16.61
   8   3 -10   86.59   16.81
   8  -3 -10  103.05   14.36
   8  -3  10  106.50   21.42
   8   3  10   98.72   15.96
   3  -8  10   93.37   14.04
   3   8  10  104.82   10.70
   3  -8 -10   92.87   11.72
  -3  -8 -10   98.42   11.23
  -8  -3 -10  106.64    8.21
  -8   3 -10  106.03    6.38
  -3   8 -10  101.41   18.08
   3   8 -10  119.75   17.34
   8   3 -10   97.24   15.26
  -3  -8  10  115.68    6.19
  -3  -8 -10  109.64    7.54
  -8  -3  10   98.53    8.48
  -8  -3 -10  108.76   10.65
   3   8 -11   62.57    6.95
   3  -8 -11   54.05   10.56
   8   3 -11   54.68    9.94
   8  -3 -11   68.42   12.35
   8  -3  11   57.87   15.35
   8   3  11   62.69   14.74
   3  -8  11   64.31   12.79
   3   8  11   60.18   11.38
  -3  -8 -11   75.21   15.02
  -8  -3 -11   64.83   14.92
  -8   3 -11   67.86   13.38
  -3   8 -11   52.89    9.52
   3   8 -11   72.04   14.55
   8   3 -11   52.24    7.28
  -3  -8  11   45.62    8.69
  -3  -8 -11   65.38   10.10
  -8  -3  11   52.88    7.24
  -8  -3 -11   55.80    9.78
   3   8 -12    3.94    2.85
   3  -8 -12    4.59    1.70
   8   3 -12    8.38    3.06
   8  -3 -12    4.47    2.85
   8  -3  12    6.85    4.98
   8   3  12    6.27    4.67
   3  -8  12    4.94    3.41
   3   8  12    2.99    2.49
  -3  -8 -12    7.56    2.60
  -8  -3 -12   12.91    4.50
  -8   3 -12    7.16    3.50
  -3   8 -12    3.31    5.44
   3   8 -12    7.54    6.05
   8   3 -12   14.04    4.89
  -8  -3 -12    0.71    3.34
   3   8 -13  202.24   10.21
   3  -8 -13  264.19    9.84
   8   3 -13  227.25   11.09
   8  -3 -13  203.19   17.85
   8  -3  13  210.71   18.07
   8   3  13  186.94   22.75
   3  -8  13  185.79   14.80
   3   8  13  174.35   13.57
  -3  -8 -13  198.47   16.23
  -8  -3 -13  224.46   15.08
  -8   3 -13  212.02    8.91
  -3   8 -13  190.31   13.31
   3   8 -13  203.95   19.20
   8   3 -13  188.25   19.57
   3   8 -14   15.24    5.13
   3  -8 -14   17.06    4.27
   8   3 -14   27.03    4.81
   8  -3 -14   30.07    7.43
   8  -3  14   24.53    6.53
   8   3  14   24.75    8.38
   3  -8  14   14.63    5.55
   3   8  14   26.13    4.95
  -3  -8 -14   21.97    4.95
  -8  -3 -14   32.17    6.54
  -8   3 -14   21.84    7.64
  -3   8 -14   27.83    7.74
   8   3 -14   25.68    4.75
   3   8 -14   19.74    5.77
   3  -8 -15  143.70   23.93
   8   3 -15  151.70   24.29
   8  -3 -15  144.70   23.86
   8  -3  15  140.45   17.71
   8   3  15  165.33   20.86
   3  -8  15  169.46   17.24
   3   8  15  135.11   18.89
  -3  -8 -15  165.89   26.88
  -8  -3 -15  187.26   15.00
  -8   3 -15  186.73   24.61
  -3   8 -15  187.18   18.24
   8   3 -15  136.07   26.71
   3   8 -15  169.02   18.17
   3  -8 -16   19.21    3.86
   8   3 -16   22.85    7.38
   8  -3 -16   25.79    6.72
   8  -3  16   21.85    8.93
   8   3  16   17.81    6.55
   3  -8  16   15.79    4.05
   3   8  16    8.78    4.28
  -3  -8  16   21.68    7.09
  -3  -8 -16   20.83    4.93
  -8  -3 -16   27.64    6.17
  -8   3 -16   33.35    8.53
  -3   8 -16   13.82    4.31
   8   3 -16   16.54    4.75
   3   8 -16   21.53    7.88
   3  -8 -17   44.36   10.41
   8   3 -17   55.25    9.40
   8  -3 -17   77.57   15.28
   8  -3  17   51.00   10.72
   8   3  17   48.97   10.40
   3  -8  17   49.51   10.22
   3   8  17   30.69    9.55
  -3  -8  17   41.85   13.18
  -3  -8 -17   41.30    7.89
  -8  -3 -17   75.46   14.02
  -8   3 -17   73.95   11.90
  -3   8 -17   51.54   11.94
   8   3 -17   34.46   10.61
   3   8 -17   63.98   14.06
   3  -8 -18    2.97    3.49
   8   3 -18   15.97    5.57
   8  -3 -18   17.04    3.95
   8  -3  18    7.87    5.29
   8   3  18   11.87    6.03
   3  -8  18   13.55    5.29
   3   8  18   14.50    5.06
  -3  -8  18    6.24    3.19
  -3  -8 -18   13.57    4.50
  -8  -3 -18    5.95    3.87
  -8   3 -18   12.00    4.23
  -3   8 -18    4.49    4.29
   8   3 -18   10.02    4.97
   3   8 -18   14.24    5.84
   3  -8 -19    5.99    6.04
   8   3 -19    8.98    5.52
   8  -3 -19    5.23    3.57
   8  -3  19    4.49    4.40
   8   3  19   15.86    8.14
   3  -8  19    6.77    5.35
   3   8  19    5.22    1.62
  -3  -8  19    5.93    4.23
  -3  -8 -19    8.38    4.01
  -8  -3 -19   15.91    5.19
  -8   3 -19   10.61    2.93
  -3   8 -19    3.81    2.58
   3   8 -19   12.64    7.85
   8   3 -20    3.13    2.94
   8  -3  20    4.17    3.62
   8   3  20    4.20    2.53
   3  -8  20    5.50    2.54
   3   8  20    1.91    2.54
  -3  -8  20    1.67    1.92
  -8  -3 -20    7.40    3.36
  -3   8 -20    2.51    3.85
   3   8 -20    7.09    4.73
   3  -8  21    7.36    6.00
  -3  -8  21    8.93    6.57
   4   8   0    4.06    1.59
   4  -8   0    2.93    1.95
   8  -4   0    7.30    5.43
   8   4   0    5.18    2.73
  -8   4   0    3.15    1.48
  -4   8   0    3.87    2.00
  -4  -8   0    5.03    3.70
  -8  -4   0    6.54    4.12
   4   8  -1  433.46   11.33
   4  -8  -1  497.02   13.06
   8   4  -1  572.29   16.99
   8  -4  -1  438.60   13.25
   4  -8   1  450.56   12.24
   4   8   1  491.58   13.27
   8  -4   1  528.10   19.81
   8   4   1  457.86   14.03
  -8   4   1  482.71   12.18
  -8   4  -1  482.61   16.41
  -4   8  -1  488.24   14.28
  -4   8   1  451.12   13.12
  -4  -8   1  501.82   16.02
  -4  -8  -1  444.81   15.87
  -8  -4   1  442.95   14.33
  -8  -4  -1  524.10   15.22
   4   8  -2  717.18   18.09
   4  -8  -2  733.13   18.98
   8   4  -2  716.73   21.42
   8  -4  -2  729.01   25.24
   4  -8   2  725.61   20.64
   8  -4   2  778.20   22.89
   8   4   2  757.75   21.07
   4   8   2  742.18   19.15
  -8   4  -2  748.28   19.14
  -4   8  -2  716.32   19.62
  -4   8   2  714.87   18.84
  -4  -8   2  739.04   21.67
  -4  -8  -2  726.89   22.30
  -8  -4   2  751.02   23.62
  -8  -4  -2  718.80   22.63
   4   8  -3   38.36    6.08
   4  -8  -3   44.71    6.56
   8   4  -3   38.94    7.74
   8  -4  -3   50.64    9.59
   4  -8   3   50.26    6.04
   8  -4   3   55.74   10.24
   8   4   3   55.50   10.53
   4   8   3   44.30    4.06
  -8  -4  -3   39.07    8.79
  -8   4  -3   43.78    4.00
   8  -4  -3   37.24    2.20
  -4   8  -3   45.28    7.63
  -4   8   3   41.51    5.37
   8  -4  -3   40.98    2.41
   4   8  -3   53.38   10.93
  -4  -8   3   43.36    5.43
  -4  -8  -3   41.95    8.64
  -8  -4   3   71.88   13.56
  -8  -4  -3   45.47    8.40
   4   8  -4  195.26    5.05
   4  -8  -4  220.14    5.57
   8   4  -4  235.50    9.99
   8  -4  -4  216.33    8.29
   8  -4   4  205.72   10.85
   4  -8   4  205.96    5.11
   8   4   4  199.10    7.31
   4   8   4  210.97    4.32
  -8  -4  -4  248.78   10.33
  -8   4  -4  180.76    7.71
  -4   8  -4  232.43   11.01
  -4   8   4  210.88    3.00
   4   8  -4  197.63   19.28
  -4  -8   4  203.10   13.50
  -4  -8  -4  196.14    9.09
  -8  -4   4  210.31    8.08
  -8  -4  -4  223.39   18.95
   4   8  -5   29.61    7.50
   4  -8  -5   29.82    6.45
   8   4  -5   18.61    4.67
   8  -4  -5   37.99    8.99
   8  -4   5   29.98    5.40
   8   4   5   40.13    9.05
   4  -8   5   36.23    6.03
   4   8   5   22.84    3.35
  -8  -4  -5   28.52    6.95
  -8   4  -5   34.27    7.60
  -4   8  -5   27.76    6.42
   4   8  -5   39.63    7.75
   8   4  -5   26.68    5.56
  -4   8   5   28.18    4.75
  -4  -8   5   26.55    6.80
  -4  -8  -5   35.59    8.63
  -8  -4   5   38.51    8.05
  -8  -4  -5   29.85    5.57
   4   8  -6  147.05   13.14
   4  -8  -6  134.24   13.30
   8   4  -6  139.97   13.03
   8  -4  -6  153.65   14.36
   8  -4   6  149.89   16.34
   8   4   6  164.45   15.08
   4  -8   6  152.16   14.65
   4   8   6  139.20   13.39
  -8  -4  -6  149.99   14.62
  -8   4  -6  160.45   18.88
  -4   8  -6  139.52   13.29
   4   8  -6  148.57   23.05
   8   4  -6  149.83   23.26
  -4  -8   6  145.08   17.25
  -4  -8  -6  158.38   18.99
  -8  -4   6  156.09   14.10
  -8  -4  -6  144.66   13.69
   4   8  -7   55.83   10.39
   4  -8  -7   58.43    9.21
   8   4  -7   65.62   13.52
   8  -4  -7   73.93   13.80
   8  -4   7   72.92   10.96
   8   4   7   72.65   13.59
   4  -8   7   60.39   12.41
   4   8   7   61.65   10.34
  -4  -8  -7   66.80   14.28
  -8  -4  -7   65.78   10.66
  -8   4  -7   65.59   12.78
  -4   8  -7   68.46   12.60
   4   8  -7   73.78   16.80
   8   4  -7   69.29   11.03
  -4  -8   7   65.26   11.52
  -4  -8  -7   62.87   11.02
  -8  -4   7   66.15   12.66
  -8  -4  -7   60.82    7.16
   4   8  -8   34.54   10.02
   4  -8  -8   48.27    7.93
   8   4  -8   53.71    9.86
   8  -4  -8   40.24    4.49
   8  -4   8   55.08    9.51
   8   4   8   42.49    8.22
   4  -8   8   44.99    9.10
   4   8   8   55.48    7.34
  -4  -8  -8   47.09    6.63
  -8  -4  -8   63.19    8.00
  -8   4  -8   49.22    7.00
  -4   8  -8   50.42    8.67
   4   8  -8   45.96    9.24
   8   4  -8   70.40   11.27
  -4  -8   8   53.53    9.32
  -4  -8  -8   38.24    6.04
  -8  -4   8   43.75    6.18
  -8  -4  -8   54.32    6.60
   4   8  -9    9.48    2.11
   4  -8  -9   13.49    2.56
   8   4  -9   13.95    5.26
   8  -4  -9   12.64    6.23
   8  -4   9   11.97    5.28
   8   4   9   11.42    4.49
   4  -8   9    8.33    3.94
   4   8   9   16.72    2.82
  -4  -8  -9   10.35    3.13
  -8  -4  -9   17.33    6.23
  -8   4  -9   11.16    4.62
  -4   8  -9   18.14    4.53
   4   8  -9    0.41    4.74
   8   4  -9    8.22    4.00
  -4  -8   9   22.50    4.79
  -4  -8  -9    7.83    3.21
  -8  -4   9    6.91    2.40
  -8  -4  -9    9.46    3.33
   4   8 -10  230.57   19.89
   4  -8 -10  188.10   10.43
   8   4 -10  181.27   13.62
   8  -4 -10  187.60   22.94
   8  -4  10  185.73   13.61
   8   4  10  180.28   10.34
   4  -8  10  201.54   10.32
   4   8  10  184.51   11.16
  -4  -8 -10  199.73   10.88
  -8  -4 -10  187.10   13.14
  -8   4 -10  191.82   14.53
  -4   8 -10  201.07   14.67
   4   8 -10  191.19   18.11
   8   4 -10  197.89   11.95
  -4  -8  10  177.27   11.71
  -4  -8 -10  196.62   12.98
  -8  -4  10  187.73   12.36
  -8  -4 -10  188.32   16.29
   4   8 -11   42.64    6.91
   4  -8 -11   52.69    7.62
   8   4 -11   46.42    9.33
   8  -4 -11   53.66   11.45
   8  -4  11   38.90   11.00
   8   4  11   53.46   13.53
   4  -8  11   53.35    8.42
   4   8  11   39.06   11.22
  -4  -8 -11  242.65   43.72
  -8  -4 -11   51.48    9.43
  -8   4 -11   55.51   10.42
  -4   8 -11   50.01   10.64
   4   8 -11   69.72   11.01
   8   4 -11   35.39    9.13
  -4  -8  11   37.30    9.78
  -4  -8 -11   42.56    7.41
  -8  -4  11   45.68    7.64
  -8  -4 -11   42.99    8.18
   4   8 -12    0.48    1.96
   4  -8 -12    6.93    3.38
   8   4 -12    5.83    2.98
   8  -4 -12    3.65    2.35
   8  -4  12   -1.69    4.35
   8   4  12    3.48    2.54
   4  -8  12   -0.37    2.88
   4   8  12    7.02    3.99
  -4  -8 -12    3.51    2.31
  -8  -4 -12    3.89    3.76
  -8   4 -12    5.27    2.19
  -4   8 -12    7.62    3.13
   4   8 -12    2.29    3.80
   8   4 -12    4.77    4.41
  -4  -8  12    2.32    2.61
  -8  -4 -12    2.74    2.48
   4   8 -13   69.13   16.80
   4  -8 -13   80.17   13.31
   8   4 -13   88.37   13.28
   8  -4 -13   71.71   10.58
   8  -4  13   90.61   18.70
   8   4  13   74.57   16.58
   4  -8  13   70.02    7.59
   4   8  13   65.74   16.90
  -4  -8 -13   75.03   13.17
  -8  -4 -13   71.68   13.93
  -4   8 -13   72.16    8.23
   4   8 -13   73.04   11.70
   8   4 -13   71.48   12.50
   4   8 -14  240.07   21.96
   4  -8 -14  213.79   26.75
   8   4 -14  214.96   31.11
   8  -4 -14  275.15   24.97
   8  -4  14  205.94   28.89
   8   4  14  214.39   26.64
   4  -8  14  251.65   22.55
   4   8  14  219.85   20.42
  -4  -8 -14  238.29   27.02
  -8  -4 -14  226.36   22.18
  -8   4 -14  251.45   22.90
  -4   8 -14  207.38   19.36
   4   8 -14  236.70   25.42
   8   4 -14  195.94   28.45
   4   8 -15   33.29    8.97
   4  -8 -15   60.70   15.35
   8   4 -15   53.21   12.72
   8  -4 -15   49.90    9.82
   8  -4  15   59.02   16.81
   8   4  15   37.25   12.52
   4  -8  15   34.53   10.32
   4   8  15   39.81   11.35
  -4  -8 -15   44.85    7.29
  -8  -4 -15   46.49    8.64
  -8   4 -15   42.46   10.25
  -4   8 -15   48.87   17.39
   8   4 -15   42.18   10.33
   4   8 -15   56.25   13.65
   4   8 -16    5.60    5.02
   4  -8 -16    6.37    1.84
   8   4 -16    3.74    3.34
   8  -4 -16   14.47    4.10
   8  -4  16    2.02    4.16
   8   4  16    8.43    7.24
   4  -8  16    6.78    3.33
   4   8  16    9.29    4.47
  -4  -8 -16    6.49    3.76
  -8  -4 -16    8.43    5.17
  -8   4 -16   11.07    4.00
  -4   8 -16   11.01    5.06
   8   4 -16    5.06    3.73
   4   8 -16    7.16    6.07
   4  -8 -17   43.71   14.23
   8   4 -17   37.08    9.35
   8  -4 -17   62.43   10.89
   8  -4  17   33.43   12.74
   8   4  17   45.86   10.29
   4  -8  17   40.01   10.95
   4   8  17   40.77   11.29
  -4  -8 -17   43.16    8.67
  -8  -4 -17   54.86    7.18
  -8   4 -17   39.84   11.20
  -4   8 -17   35.80   13.00
   8   4 -17   45.68    7.89
   4   8 -17   44.91   13.76
   4  -8 -18   42.90   10.02
   8   4 -18   37.90   10.65
   8  -4 -18   38.88    8.83
   8  -4  18   32.73   14.45
   8   4  18   36.41   10.86
   4  -8  18   40.26   10.69
   4   8  18   41.32   11.94
  -4  -8  18   43.59    9.71
  -4  -8 -18   46.47    8.69
  -8  -4 -18   59.77   10.25
  -8   4 -18   45.58   11.60
  -4   8 -18   60.09    8.79
   8   4 -18   34.10   13.41
   4   8 -18   30.47    9.28
   4  -8 -19   -0.25    2.96
   8   4 -19    5.63    6.24
   8  -4 -19    3.47    3.77
   8  -4  19   -4.03    4.62
   8   4  19    2.39    2.93
   4  -8  19    5.27    3.46
   4   8  19    0.84    3.18
  -4  -8  19    2.36    2.71
  -4  -8 -19    4.60    1.34
  -8  -4 -19    1.02    2.84
  -8   4 -19    7.82    4.78
  -4   8 -19    4.70    2.52
   8   4 -19    4.27    4.49
   4   8 -19    7.07    4.60
   4  -8 -20    1.53    2.61
   8   4 -20    2.35    4.41
   8  -4 -20    5.82    4.29
   8  -4  20    8.40    8.02
   8   4  20    6.71    3.72
   4  -8  20    2.02    1.76
   4   8  20    3.29    1.73
  -4  -8  20    1.84    3.56
  -4  -8 -20    9.45    3.93
  -8  -4 -20   10.74    3.54
   4   8 -20    1.13    3.43
   5   8   0  516.45   14.46
   5  -8   0  485.08   14.14
   8  -5   0  485.63   14.85
   8   5   0  476.36   14.42
  -8   5   0  493.18   13.04
  -5   8   0  506.37   14.85
  -5  -8   0  483.65   14.79
  -8  -5   0  472.01   14.65
   5   8  -1  227.88   18.53
   5  -8  -1  236.51   11.99
   8   5  -1  238.13    8.86
   8  -5  -1  221.47   19.22
   5  -8   1  215.71    7.78
   5   8   1  226.28   18.39
   8  -5   1  228.47   20.02
   8   5   1  232.96   14.38
  -8   5   1  240.46    6.51
  -8   5  -1  214.94    4.25
  -5   8  -1  224.53   18.38
  -5   8   1  219.65    5.55
  -5  -8   1  225.26   20.57
  -5  -8  -1  229.71    9.20
  -8  -5   1  226.41   21.43
  -8  -5  -1  248.58    9.81
   5   8  -2  194.21    7.12
   5  -8  -2  235.36    9.19
   8   5  -2  228.86    8.47
   8  -5  -2  217.38   13.55
   5  -8   2  209.28    6.00
   8  -5   2  222.12   19.59
   5   8   2  247.90    9.37
   8   5   2  260.12   10.47
  -8   5  -2  212.98    8.35
  -5   8  -2  238.88    9.43
  -5   8   2  211.26    3.64
   8  -5  -2  207.02    1.84
  -5  -8   2  232.79   10.70
  -5  -8  -2  202.35   11.81
  -8  -5   2  239.08   18.92
  -8  -5  -2  252.56   16.11
   5   8  -3   88.10    5.61
   5  -8  -3   78.04    9.62
   8   5  -3   95.52    7.45
   8  -5  -3   91.55   15.06
   5  -8   3   78.47    4.86
   8  -5   3   96.96   17.17
   8   5   3   78.30   13.32
   5   8   3   87.23    5.23
  -8   5  -3   72.88    6.30
  -5   8  -3   90.48    7.07
  -5   8   3   81.72    1.74
   5   8  -3   87.99   17.24
  -5  -8   3   80.84    8.65
  -5  -8  -3   80.03   12.03
  -8  -5   3   92.09   15.17
  -8  -5  -3   85.15   11.81
   5   8  -4   -0.69    1.17
   5  -8  -4    9.49    2.56
   8   5  -4    4.51    2.27
   8  -5  -4   -1.30    3.99
   8  -5   4    6.83    5.11
   5  -8   4    1.57    1.70
   8   5   4   -0.49    3.31
   5   8   4    6.79    2.55
  -8  -5  -4    7.59    3.77
  -8   5  -4    2.85    1.28
  -5   8  -4   12.21    3.96
   5   8  -4    2.13    2.11
  -5  -8   4    4.70    2.41
  -5  -8  -4    4.11    3.12
  -8  -5   4    2.27    2.32
  -8  -5  -4    6.84    4.17
   5   8  -5  521.95   11.22
   5  -8  -5  517.03   12.32
   8   5  -5  492.48   19.97
   8  -5  -5  532.70   14.27
   8  -5   5  523.93   14.46
   5  -8   5  500.98   10.17
   8   5   5  525.71   11.92
   5   8   5  506.84   13.56
  -8  -5  -5  566.17   13.54
  -8   5  -5  547.63   10.87
  -5   8  -5  524.97   17.18
   5   8  -5  518.91   14.72
   8   5  -5  505.66   18.26
  -5  -8   5  513.64   13.69
  -5  -8  -5  513.79   17.43
  -8  -5   5  533.60   17.68
  -8  -5  -5  523.91   13.45
   5   8  -6   18.86    3.82
   5  -8  -6   15.46    3.50
   8   5  -6    7.40    5.03
   8  -5  -6   21.19    4.88
   8  -5   6   16.52    3.60
   5  -8   6   25.74    5.47
   8   5   6   24.47    5.53
   5   8   6   15.43    3.04
  -8  -5  -6    9.53    2.56
  -8   5  -6   26.55    5.29
  -5   8  -6   11.91    2.71
   5   8  -6   27.80    8.19
   8   5  -6    8.99    5.37
  -5  -8   6   12.35    3.99
  -5  -8  -6   25.85    4.70
  -8  -5   6   22.50    4.62
  -8  -5  -6   14.33    5.40
   5   8  -7  568.31   23.10
   5  -8  -7  538.57   21.95
   8   5  -7  518.58   26.99
   8  -5  -7  585.52   28.34
   8  -5   7  553.82   26.32
   5  -8   7  562.45   29.86
   8   5   7  604.60   24.85
   5   8   7  551.93   23.23
  -5  -8  -7  553.49   23.65
  -8  -5  -7  610.78   26.63
  -8   5  -7  580.94   27.90
  -5   8  -7  539.43   24.08
   5   8  -7  585.87   28.88
   8   5  -7  540.74   29.87
  -5  -8   7  538.29   21.76
  -5  -8  -7  581.15   26.30
  -8  -5   7  579.12   23.44
  -8  -5  -7  555.94   23.20
   5   8  -8   53.15   11.76
   5  -8  -8   43.04   10.27
   8   5  -8   47.04    5.73
   8  -5  -8   62.02   11.30
   8  -5   8   53.10    8.11
   5  -8   8   55.58   12.28
   8   5   8   64.86   13.26
   5   8   8   46.35    8.25
  -5  -8  -8   57.41    9.83
  -8  -5  -8   52.17   10.54
  -8   5  -8   59.62   11.94
  -5   8  -8   47.98   10.69
   5   8  -8   53.72   10.52
   8   5  -8   47.47    7.08
  -5  -8   8   52.21   10.26
  -5  -8  -8   64.20   11.13
  -8  -5   8   64.11   11.69
  -8  -5  -8   48.84    8.90
   5   8  -9  314.45   14.17
   5  -8  -9  329.23   15.86
   8   5  -9  317.73   10.47
   8  -5  -9  364.59   11.28
   8  -5   9  336.69   15.26
   8   5   9  317.21   18.46
   5  -8   9  296.43   13.03
   5   8   9  328.54    9.46
  -5  -8  -9  314.16   13.28
  -8  -5  -9  311.46   19.03
  -8   5  -9  342.34   22.97
  -5   8  -9  331.92   12.80
   5   8  -9  313.77   13.14
   8   5  -9  334.33   16.47
  -5  -8   9  320.87   11.68
  -5  -8  -9  321.72   10.04
  -8  -5   9  308.40    9.64
  -8  -5  -9  313.33   11.04
   5   8 -10   78.44    6.66
   5  -8 -10   63.42   10.64
   8   5 -10   71.99   10.21
   8  -5 -10   79.11   14.92
   8  -5  10   67.10   12.60
   8   5  10   87.28   16.80
   5  -8  10   76.51    6.59
   5   8  10   71.67   13.78
  -5  -8 -10   80.12   13.18
  -8  -5 -10   70.11   13.45
  -8   5 -10   87.74   13.58
  -5   8 -10   65.43   10.68
   5   8 -10   81.48   11.97
   8   5 -10   69.64   14.32
  -5  -8  10   71.26    9.34
  -5  -8 -10   88.53   10.16
  -8  -5  10   98.56    7.96
  -8  -5 -10   65.51   10.77
   5   8 -11  267.50   12.90
   5  -8 -11  261.73   20.31
   8   5 -11  293.88   10.42
   8  -5 -11  263.09   21.19
   8  -5  11  285.41   22.42
   8   5  11  264.31   12.45
   5  -8  11  271.43    8.95
   5   8  11  276.57   13.44
  -5  -8 -11  258.54   11.56
  -8  -5 -11  297.76   17.43
  -8   5 -11  245.10   20.06
  -5   8 -11  277.19   10.26
   5   8 -11  263.36   34.74
   8   5 -11  298.85   15.83
  -5  -8  11  258.84   10.63
  -5  -8 -11  283.35   14.39
  -8  -5  11  253.00   15.68
  -8  -5 -11  267.99   17.72
   5   8 -12  230.00   48.40
   5  -8 -12   37.43    7.59
   8   5 -12   42.12    8.88
   8  -5 -12   44.30    7.58
   8  -5  12   40.70    8.29
   8   5  12   40.07    9.30
   5  -8  12   28.24    6.69
   5   8  12   28.42    7.94
  -5  -8 -12   50.45   11.44
  -8  -5 -12   47.06    8.18
  -8   5 -12   43.75    8.71
  -5   8 -12   46.63    8.04
   5   8 -12   45.87    8.13
   8   5 -12   44.30    7.40
  -5  -8 -12   35.41    5.87
  -8  -5 -12   28.17    5.55
   5   8 -13    2.53    2.95
   5  -8 -13   13.85    4.99
   8   5 -13    7.77    3.20
   8  -5 -13   10.54    4.43
   8  -5  13    9.55    4.02
   8   5  13    4.10    2.26
   5  -8  13    2.97    3.27
   5   8  13    3.40    3.81
  -5  -8 -13    9.73    3.54
  -8  -5 -13   -0.13    3.42
  -8   5 -13    6.07    2.83
  -5   8 -13    6.15    3.77
   5   8 -13   -0.25    5.04
   8   5 -13    8.81    5.12
   5   8 -14   -0.10    2.36
   5  -8 -14    5.71    3.02
   8   5 -14    4.39    3.70
   8  -5 -14    0.75    2.37
   8  -5  14    2.11    2.66
   8   5  14   -2.38    3.33
   5  -8  14    5.40    4.12
   5   8  14    1.34    1.50
  -5  -8 -14    4.78    3.36
  -8  -5 -14    3.63    2.90
  -8   5 -14   -0.45    3.90
  -5   8 -14    1.96    4.70
   5   8 -14    2.37    3.04
   8   5 -14    7.44    4.28
   5   8 -15    7.88    3.58
   5  -8 -15   17.12    5.39
   8   5 -15   14.64    6.18
   8  -5 -15   13.17    7.40
   8  -5  15   18.99    5.61
   8   5  15   12.16    5.59
   5  -8  15   19.07    7.68
   5   8  15   24.52    6.54
  -5  -8 -15   14.49    3.65
  -8  -5 -15   14.73    4.74
  -8   5 -15    9.34    5.53
  -5   8 -15   12.83    6.50
   5   8 -15    2.63    3.70
   8   5 -15   17.66    7.49
   5   8 -16   12.91    5.67
   5  -8 -16   31.11    6.22
   8   5 -16   33.65    5.48
   8  -5 -16   16.22    7.14
   8  -5  16   33.36    7.96
   8   5  16   16.91    7.45
   5  -8  16   26.61    8.07
   5   8  16   30.58    8.27
  -5  -8 -16   31.94    5.40
  -8  -5 -16   31.14    6.48
  -8   5 -16   33.59    5.31
  -5   8 -16   32.91    7.66
   5   8 -16   28.22    9.33
   8   5 -16   39.41    6.19
   5   8 -17   59.66   17.64
   5  -8 -17   67.25   15.06
   8   5 -17   95.79   20.28
   8  -5 -17   73.74   11.94
   8  -5  17   70.85   22.39
   8   5  17   84.30   15.53
   5  -8  17   86.19   10.17
   5   8  17   85.23   11.65
  -5  -8 -17   71.99   15.45
  -8  -5 -17   67.89   12.38
  -8   5 -17   80.27   17.04
  -5   8 -17   80.54    9.82
   8   5 -17   66.78   14.67
   5   8 -17   70.70   17.76
   5   8 -18   14.77    6.94
   5  -8 -18    5.19    4.53
   8   5 -18   10.42    2.38
   8  -5 -18   14.64    5.70
   8  -5  18    8.67    6.03
   8   5  18   12.60    6.02
   5  -8  18    7.39    3.37
   5   8  18    5.72    3.47
  -5  -8 -18   13.28    5.35
  -8  -5 -18    5.90    3.87
  -8   5 -18    9.45    4.38
  -5   8 -18    9.35    3.98
   8   5 -18   11.02    3.76
   5   8 -18   14.19    5.46
   5  -8 -19   34.69    9.47
   8   5 -19   29.32   10.38
   8  -5 -19   37.78   12.55
   8  -5  19   35.14   12.64
   8   5  19   35.17   10.44
   5  -8  19   23.97    9.25
   5   8  19   24.47    8.31
  -5  -8  19   22.65    8.27
  -5  -8 -19   29.52    8.94
  -8  -5 -19   22.90    6.46
  -8   5 -19   31.28    9.24
  -5   8 -19   35.58   11.27
   8   5 -19   20.91    7.11
   5   8 -19   27.46    9.08
   5  -8 -20    4.98    3.56
   8   5 -20    5.32    3.62
   8   5  20    5.60    3.64
   5  -8  20    3.67    2.03
   5   8  20    3.37    3.72
  -5  -8  20    4.89    3.32
  -5  -8 -20   -2.01    3.21
   5   8 -20    2.89    3.61
   6   8   0  338.05   13.30
   6  -8   0  332.45   10.80
   8  -6   0  362.63   14.23
   8   6   0  358.30   18.21
  -8   6   0  346.72    9.55
  -6   8   0  359.89   10.48
  -6  -8   0  337.30   11.04
  -8  -6   0  335.51   17.08
   6   8  -1  259.19    6.10
   6  -8  -1  237.44   10.68
   8   6  -1  232.97    8.27
   8  -6  -1  261.57    9.23
   6  -8   1  255.81    9.41
   6   8   1  251.68    7.81
   8  -6   1  244.66   14.62
   8   6   1  257.44    7.49
  -8   6  -1  274.12    7.51
  -6   8   1  262.52    5.18
  -6   8  -1  239.52    9.65
  -6  -8   1  241.51    9.20
  -6  -8  -1  248.38   14.89
  -8  -6   1  254.43   11.56
  -8  -6  -1  253.39   15.56
   6   8  -2  135.76   13.73
   6  -8  -2  161.04   14.80
   8   6  -2  159.67   17.54
   8  -6  -2  145.91   13.95
   6  -8   2  130.65   11.51
   8  -6   2  154.42   16.48
   6   8   2  156.91   15.16
   8   6   2  141.29   13.05
  -8   6  -2  139.03   13.01
  -6   8  -2  153.76   15.31
  -6  -8   2  157.80   15.14
  -6  -8  -2  144.09   20.57
  -8  -6   2  149.95   14.22
  -8  -6  -2  167.91   15.22
   6   8  -3  379.78    9.38
   6  -8  -3  371.53   13.89
   8   6  -3  371.04   11.56
   8  -6  -3  389.27   21.64
   6  -8   3  405.86   17.18
   8  -6   3  453.60   28.37
   8   6   3  372.68    9.08
   6   8   3  388.54   10.31
  -8   6  -3  393.29   13.10
  -6   8  -3  368.27    9.27
  -6  -8   3  387.94   10.91
  -6  -8  -3  397.55   11.53
  -8  -6   3  383.47   13.55
  -8  -6  -3  370.65   11.85
   6   8  -4  492.27    9.12
   6  -8  -4  417.06   12.06
   8   6  -4  422.37   17.15
   8  -6  -4  509.18   16.24
   6  -8   4  460.29   12.41
   8  -6   4  420.43   14.57
   8   6   4  490.22   18.54
   6   8   4  439.99   10.09
  -8   6  -4  476.43    9.95
  -6   8  -4  433.57   14.59
   6   8  -4  484.26   15.76
  -6  -8   4  457.80   12.40
  -6  -8  -4  459.63   19.70
  -8  -6   4  468.38   17.24
  -8  -6  -4  431.05   17.36
   6   8  -5   99.90   10.56
   6  -8  -5  102.35   16.77
   8   6  -5  117.94   11.25
   8  -6  -5  112.43   17.93
   8  -6   5  118.78    9.71
   6  -8   5   90.84    8.88
   8   6   5   98.98   11.90
   6   8   5  105.49   10.20
  -8  -6  -5  114.65   12.14
  -8   6  -5  107.80    6.29
  -6   8  -5  107.56    9.53
   6   8  -5  103.96   18.38
   8   6  -5  114.29   20.09
  -6  -8   5  111.54   14.25
  -6  -8  -5  111.21   11.68
  -8  -6   5   93.81    5.23
  -8  -6  -5  123.10   13.48
   6   8  -6    4.73    2.25
   6  -8  -6    6.68    2.72
   8   6  -6    7.10    5.36
   8  -6  -6   13.81    5.13
   8  -6   6   10.92    6.40
   6  -8   6   10.72    3.89
   8   6   6    5.96    2.38
   6   8   6    8.13    3.27
  -8  -6  -6   17.69    3.91
  -8   6  -6   10.51    3.21
  -6   8  -6    8.81    4.36
   6   8  -6    7.68    4.62
   8   6  -6    7.82    4.81
  -6  -8   6   12.10    3.88
  -6  -8  -6    5.11    3.00
  -8  -6   6   11.04    4.35
  -8  -6  -6   13.99    2.65
   6   8  -7  107.29    9.79
   6  -8  -7   94.03   13.66
   8   6  -7   92.96   18.64
   8  -6  -7  118.55   18.56
   8  -6   7   87.40    8.21
   6  -8   7  121.58   12.55
   8   6   7  124.75    6.74
   6   8   7   83.49   10.69
  -6  -8  -7  115.59   21.22
  -8  -6  -7   96.83   17.30
  -8   6  -7  113.82    6.28
  -6   8  -7  102.49    5.89
   6   8  -7  113.27    8.79
   8   6  -7   98.64   16.27
  -6  -8   7   99.26   10.69
  -6  -8  -7  120.04   14.15
  -8  -6   7  117.01   10.02
  -8  -6  -7   87.44   10.63
   6   8  -8  314.47   13.81
   6  -8  -8  339.21   13.77
   8   6  -8  358.64   16.48
   8  -6  -8  302.85    9.41
   8  -6   8  316.25   18.33
   6  -8   8  319.90   12.98
   8   6   8  322.71   11.80
   6   8   8  366.01   10.63
  -6  -8  -8  310.39   11.21
  -8  -6  -8  337.16   14.52
  -8   6  -8  327.07   11.67
  -6   8  -8  344.78   10.23
   6   8  -8  323.71   12.76
   8   6  -8  317.08   13.83
  -6  -8   8  348.29   10.96
  -6  -8  -8  320.47    9.68
  -8  -6   8  325.76   12.39
  -8  -6  -8  322.50   13.91
   6   8  -9   94.89   10.19
   6  -8  -9   95.86   17.53
   8   6  -9  101.43    8.40
   8  -6  -9  106.04   10.26
   8  -6   9  102.91   19.53
   6  -8   9  101.68   16.42
   8   6   9  101.84   10.19
   6   8   9   95.25   16.17
  -6  -8  -9  141.83   20.72
  -8  -6  -9  539.49   95.56
  -8   6  -9   98.54    8.12
  -6   8  -9   94.24    8.28
   6   8  -9   88.90   11.28
   8   6  -9   94.94   14.97
  -6  -8   9  102.11   15.27
  -6  -8  -9   99.29   11.28
  -8  -6   9  111.60    7.51
  -8  -6  -9   88.44    6.18
   6   8 -10    5.82    2.83
   6  -8 -10    6.98    2.61
   8   6 -10    4.85    2.95
   8  -6 -10    2.83    4.70
   8  -6  10   -0.78    4.34
   6  -8  10    3.28    2.33
   8   6  10    4.35    2.25
   6   8  10    1.54    2.32
  -6  -8 -10    0.48    1.81
  -8  -6 -10    5.76    3.27
  -8   6 -10    5.59    3.91
  -6   8 -10    2.58    4.03
   8   6 -10    1.42    4.11
  -6  -8  10   -0.40    2.12
  -6  -8 -10    3.99    2.97
  -8  -6 -10    1.83    1.71
   6   8 -11   88.06   12.58
   6  -8 -11  112.55   18.85
   8   6 -11  115.16   16.53
   8  -6 -11  110.50   17.70
   8  -6  11  107.68    9.27
   6  -8  11   98.93    8.25
   8   6  11  108.62   14.46
   6   8  11  100.60   20.95
  -6  -8 -11   98.50   17.37
  -8  -6 -11  115.89   18.58
  -8   6 -11  109.91   20.26
  -6   8 -11  116.62   10.47
   6   8 -11  119.70   16.42
   8   6 -11   92.63   12.36
  -6  -8  11  101.98    7.41
  -6  -8 -11  107.73   16.45
  -8  -6  11  104.94   13.37
  -8  -6 -11  102.40    9.13
   6   8 -12  233.58   11.40
   6  -8 -12  239.20   20.88
   8   6 -12  232.71   19.83
   8  -6 -12  221.01   23.34
   8  -6  12  241.97   12.28
   6  -8  12  229.19    8.38
   8   6  12  232.55   10.76
   6   8  12  231.38   14.58
  -6  -8 -12  259.63   19.02
  -8  -6 -12  223.55   16.95
  -8   6 -12  241.81   16.33
  -6   8 -12  247.69   13.57
   6   8 -12  227.72   22.12
   8   6 -12  220.74   12.98
  -6  -8 -12  243.37   14.87
  -8  -6 -12  223.81   17.64
   6   8 -13   57.22   16.91
   6  -8 -13   68.81   11.78
   8   6 -13   60.84    9.01
   8  -6 -13   62.18   11.11
   8  -6  13   70.11   17.64
   6  -8  13   55.80   15.86
   8   6  13   54.42   13.70
   6   8  13   59.28   14.81
  -6  -8 -13   79.51   14.29
  -8  -6 -13   66.51   10.45
  -8   6 -13   64.82    9.78
  -6   8 -13   56.05   13.02
   6   8 -13   63.09   11.14
   8   6 -13   80.33   14.60
   6   8 -14   24.59    7.87
   6  -8 -14   47.98    8.29
   8   6 -14   29.00    5.29
   8  -6 -14   42.19    8.83
   8  -6  14   32.44    8.70
   6  -8  14   27.37    7.55
   8   6  14   27.22    9.40
   6   8  14   31.75    8.07
  -6  -8 -14   36.66    7.70
  -8  -6 -14   35.28    8.72
  -8   6 -14   35.81    7.46
  -6   8 -14   26.57    6.16
   6   8 -14   26.11    6.06
   8   6 -14   35.56    8.93
   6   8 -15    7.01    3.29
   6  -8 -15    6.17    2.74
   8   6 -15   -0.51    3.93
   8  -6 -15    9.68    4.15
   8  -6  15    8.85    4.11
   6  -8  15    4.56    3.52
   8   6  15    5.86    3.97
   6   8  15    2.55    2.25
  -6  -8 -15    3.41    2.09
  -8  -6 -15    3.57    3.41
  -8   6 -15   -0.16    2.16
  -6   8 -15    3.38    2.52
   6   8 -15    5.38    4.14
   8   6 -15    8.28    3.33
   6   8 -16   35.66   11.22
   8   6 -16   43.71   12.07
   8  -6 -16   53.39   10.09
   8  -6  16   45.45   14.74
   6  -8  16   39.76   11.83
   8   6  16   42.04   13.95
   6   8  16   41.46   13.48
  -8  -6 -16   69.24   11.91
  -8   6 -16   46.27   11.35
  -6   8 -16   50.56   16.02
   8   6 -16   52.05   13.58
   6   8 -16   42.38   13.53
   6   8 -17    4.80    1.91
   6  -8 -17   -1.24    4.35
   8   6 -17    7.42    3.80
   8  -6 -17    2.32    2.85
   8  -6  17    3.30    3.05
   6  -8  17    2.25    1.62
   8   6  17    5.13    3.47
   6   8  17    3.05    2.49
  -6  -8 -17    7.81    4.12
  -8  -6 -17    7.15    4.09
  -8   6 -17    8.23    7.39
  -6   8 -17    6.23    5.04
   6   8 -17    1.48    2.77
   8   6 -17    0.40    2.21
   6   8 -18   -3.66    3.64
   6  -8 -18    0.09    2.28
   8   6 -18   -1.75    3.78
   8  -6 -18    3.31    3.67
   8  -6  18    3.14    3.30
   6  -8  18    4.02    3.28
   8   6  18    8.12    3.59
   6   8  18    5.16    3.74
  -6  -8 -18    4.53    2.83
  -8  -6 -18    2.31    3.57
  -8   6 -18    5.57    4.65
  -6   8 -18    4.45    2.02
   8   6 -18    4.45    3.66
   6   8 -18    2.72    2.79
   6   8 -19    5.41    3.07
   6  -8 -19    8.59    7.21
   8   6 -19    2.07    2.26
   8  -6 -19    6.15    4.20
   8  -6  19   20.35    7.61
   6  -8  19    5.85    4.35
   8   6  19    8.73    5.00
   6   8  19   10.33    7.09
  -6  -8 -19   17.10    5.26
  -8  -6 -19   10.82    7.65
  -8   6 -19    4.43    3.20
  -6   8 -19   10.42    5.28
   8   6 -19    6.48    4.76
   6   8 -19    9.90    4.03
   8   6 -20   20.14    6.66
   6  -8  20   19.15    7.42
   6   8  20   14.78    8.01
  -6  -8 -20   21.39    7.82
   8   6 -20   29.68    6.88
   7   8   0 1096.53   20.68
   7  -8   0 1085.60   20.49
   8   7   0 1127.75   22.49
   8  -7   0 1035.01   25.77
  -8   7   0 1041.03   14.12
  -7   8   0 1080.04   15.30
  -7  -8   0 1048.91   17.93
  -8  -7   0 1046.37   17.70
   7   8  -1  433.39   13.87
   7  -8  -1  478.51   17.58
   8   7  -1  492.31   10.63
   8  -7  -1  454.29   13.42
   7   8   1  488.89   15.03
   7  -8   1  449.61   10.95
   8  -7   1  455.61   16.46
   8   7   1  420.69    9.49
  -8   7   1  482.37    6.78
  -8   7  -1  432.47    9.51
  -7   8   1  427.12    6.62
  -7   8  -1  498.05   10.15
  -7  -8   1  506.56   11.26
  -7  -8  -1  443.02   15.80
  -8  -7   1  451.18   14.79
  -8  -7  -1  462.00   11.56
   7   8  -2    5.63    2.13
   8   7  -2    8.50    3.81
   7  -8  -2    6.79    3.30
   8  -7  -2    5.21    3.02
   7  -8   2    4.74    2.66
   8  -7   2   16.89    4.76
   7   8   2    8.43    4.10
   8   7   2    3.47    1.74
  -8   7  -2    4.95    1.68
  -7   8  -2    4.04    1.94
  -7  -8   2    7.63    3.74
  -7  -8  -2   16.93    5.69
  -8  -7   2    8.20    4.65
  -8  -7  -2   -0.39    3.24
   7   8  -3  140.16   14.80
   8   7  -3  149.76   13.99
   7  -8  -3  161.56   14.09
   8  -7  -3  146.68   12.99
   7  -8   3  149.07   12.24
   8  -7   3  152.41   11.95
   8   7   3  139.66   11.71
   7   8   3  134.77   10.60
  -8   7  -3  136.72   10.56
  -7   8  -3  149.97    8.75
  -7  -8   3  138.12   12.25
  -7  -8  -3  141.65   17.71
  -8  -7   3  158.21   16.04
  -8  -7  -3  159.73    8.95
   7   8  -4  282.61   14.02
   8   7  -4  249.98   11.42
   7  -8  -4  268.72   12.81
   8  -7  -4  281.66   13.52
   7  -8   4  265.95   18.68
   8  -7   4  261.24   13.09
   8   7   4  272.68   13.11
   7   8   4  261.25   12.06
  -8   7  -4  264.71   16.39
  -7   8  -4  247.47   11.50
   7   8  -4  294.79   26.55
   8   7  -4  261.94   16.67
  -7  -8   4  261.48   12.10
  -7  -8  -4  280.39   13.34
  -8  -7   4  275.47   17.18
  -8  -7  -4  245.36   11.86
   7   8  -5  237.30   11.12
   8   7  -5  244.98   15.16
   7  -8  -5  237.32   13.42
   8  -7  -5  199.97   12.85
   8  -7   5  262.77   21.26
   7  -8   5  202.50   12.50
   8   7   5  228.14   17.23
   7   8   5  252.33   11.47
  -8   7  -5  224.86   17.64
  -7   8  -5  254.79   14.88
   7   8  -5  224.92   13.16
   8   7  -5  241.16   23.68
  -7  -8   5  242.80   12.17
  -7  -8  -5  227.35   15.36
  -8  -7   5  211.80   12.32
  -8  -7  -5  239.69   11.56
   7   8  -6   75.20   12.57
   8   7  -6   60.92   12.50
   7  -8  -6   69.26   13.22
   8  -7  -6   75.08   12.41
   8  -7   6   73.14    7.45
   7  -8   6   78.28   14.97
   8   7   6   68.74   14.29
   7   8   6   69.43   11.54
  -8   7  -6   70.27   13.58
  -7   8  -6   70.30   12.53
   7   8  -6   75.54   13.18
   8   7  -6   81.87   12.58
  -7  -8   6   76.35    8.59
  -7  -8  -6   69.66   12.69
  -8  -7   6   71.80    9.06
  -8  -7  -6   62.45   16.21
   7   8  -7  294.89   10.96
   8   7  -7  281.23   13.75
   7  -8  -7  289.37   11.01
   8  -7  -7  283.54    8.91
   8  -7   7  276.25   14.40
   7  -8   7  283.64   19.15
   8   7   7  284.21   18.30
   7   8   7  277.78   12.16
  -8  -7  -7  296.29    9.91
  -8   7  -7  288.48   12.71
  -7   8  -7  270.42   12.09
   7   8  -7  261.35   17.16
   8   7  -7  262.18   15.54
  -7  -8   7  286.42   10.46
  -8  -7   7  281.31    8.99
  -7  -8  -7  283.14   13.55
  -8  -7  -7  278.05   13.24
   7   8  -8   74.55    6.02
   8   7  -8   80.84   13.24
   7  -8  -8   86.73    9.00
   8  -7  -8   75.06   10.40
   8  -7   8   85.69   14.61
   7  -8   8   82.03   12.07
   8   7   8   73.49   14.31
   7   8   8   80.49   12.97
  -7  -8  -8   79.43   17.88
  -8  -7  -8   85.60   14.28
  -8   7  -8   88.84   12.46
  -7   8  -8   73.68   11.76
   7   8  -8   76.64   12.32
   8   7  -8   83.38   13.94
  -7  -8   8  104.98   14.95
  -8  -7   8   76.63   12.76
  -7  -8  -8   77.25   14.25
  -8  -7  -8   83.16    8.04
   7   8  -9   75.74    8.82
   8   7  -9   60.92    8.32
   7  -8  -9   55.49    8.65
   8  -7  -9   70.93   12.17
   8  -7   9   59.51   13.18
   7  -8   9   67.69   12.58
   8   7   9   63.84   12.72
   7   8   9   50.42   12.17
  -7  -8  -9   65.12   13.26
  -8  -7  -9   60.25   14.11
  -8   7  -9   78.54    6.38
  -7   8  -9   62.03    6.74
   7   8  -9   55.99   11.32
   8   7  -9   60.95    8.75
  -7  -8   9   65.74    9.58
  -8  -7   9   75.56   10.97
  -7  -8  -9   75.88   13.28
  -8  -7  -9   52.90   13.13
   7   8 -10    1.54    2.68
   8   7 -10   -0.52    1.80
   7  -8 -10    3.53    4.17
   8  -7 -10    2.36    3.15
   8  -7  10   -0.62    4.17
   7  -8  10    4.76    2.92
   8   7  10    2.26    2.21
   7   8  10    2.17    2.15
  -7  -8 -10   -2.65    4.05
  -8  -7 -10    4.84    3.91
  -8   7 -10    4.29    2.95
  -7   8 -10   -0.51    4.21
   7   8 -10   12.92    6.68
   8   7 -10    2.90    4.67
  -7  -8  10    6.34    2.47
  -8  -7  10    1.65    1.80
  -7  -8 -10    4.67    2.23
  -8  -7 -10    5.33    2.12
   7   8 -11  372.28   24.19
   8   7 -11  394.35   17.00
   7  -8 -11  392.06   12.71
   8  -7 -11  386.37   15.79
   8  -7  11  375.73   14.53
   7  -8  11  338.60   20.54
   8   7  11  375.70   12.87
   7   8  11  347.13   13.37
  -7  -8 -11  381.32   27.26
  -8  -7 -11  399.60   27.48
  -8   7 -11  360.31   15.78
  -7   8 -11  349.53   12.83
   7   8 -11  324.73   32.06
   8   7 -11  365.26   17.95
  -7  -8  11  354.69   10.45
  -8  -7  11  361.24   14.94
  -7  -8 -11  393.10   18.04
  -8  -7 -11  398.67    9.86
   7   8 -12  205.76   21.22
   8   7 -12  189.48   23.54
   7  -8 -12  212.32   32.08
   8  -7 -12  202.84   31.73
   8  -7  12  161.69   22.11
   7  -8  12  201.18   19.16
   8   7  12  194.97   18.07
   7   8  12  167.59   22.03
  -7  -8 -12  187.08   35.24
  -8  -7 -12  255.24   37.80
  -8   7 -12  180.25   18.81
  -7   8 -12  164.11   20.59
   7   8 -12  178.53   35.43
   8   7 -12  196.23   24.89
  -7  -8 -12  215.04   19.95
  -8  -7 -12  183.39   20.44
   7   8 -13   11.87    3.93
   8   7 -13   22.12    4.79
   7  -8 -13    8.46    3.45
   8  -7 -13    9.60    4.61
   8  -7  13   11.65    4.20
   7  -8  13   19.20    4.84
   8   7  13    6.17    3.68
   7   8  13   18.81    4.92
  -7  -8 -13   30.44    6.68
  -8  -7 -13   20.66    4.97
  -8   7 -13   18.81    5.25
  -7   8 -13   14.63    6.31
   7   8 -13   13.47    7.04
   8   7 -13   11.32    3.09
   7   8 -14    0.07    2.05
   8   7 -14    0.27    1.26
   7  -8 -14   -3.69    3.37
   8  -7 -14    3.86    2.45
   8  -7  14    0.92    4.34
   7  -8  14    1.39    2.09
   8   7  14    4.28    3.91
   7   8  14    3.71    1.96
  -7  -8 -14  -10.70   14.12
  -8  -7 -14    3.58    2.69
  -8   7 -14   -0.41    4.25
  -7   8 -14    7.21    5.73
   7   8 -14    6.17    5.10
   8   7 -14    8.81    4.09
   7   8 -15    3.75    3.66
   8   7 -15    8.34    2.80
   7  -8 -15   15.00    5.29
   8  -7 -15   12.04    4.67
   8  -7  15    8.45    4.39
   7  -8  15    2.50    5.29
   8   7  15   10.01    4.81
   7   8  15    8.20    3.21
  -7  -8 -15    6.20    2.32
  -8  -7 -15    9.33    7.11
  -8   7 -15   13.68    6.30
  -7   8 -15    7.78    2.80
   7   8 -15   10.45    4.49
   8   7 -15    7.06    3.61
   8   7 -16   31.45    7.61
   7  -8 -16   20.58    4.85
   8  -7 -16   24.62    6.08
   8  -7  16   29.68   12.19
   7  -8  16   37.25   10.50
   8   7  16   28.76    8.70
   7   8  16   21.28    7.57
  -7  -8 -16   39.41    9.21
  -8  -7 -16   30.00    6.88
  -8   7 -16   32.34    9.15
  -7   8 -16   34.36    7.11
   8   7 -16   18.40    5.20
   7   8 -16   31.84    8.09
   7   8 -17   26.14    6.44
   8   7 -17   28.37   11.82
   7  -8 -17   42.60    9.72
   8  -7 -17   35.21    7.88
   8  -7  17   25.94    9.89
   7  -8  17   26.02    8.03
   8   7  17   26.55    7.14
   7   8  17   23.74    8.43
  -7  -8 -17   33.34    7.95
  -8  -7 -17   38.98    6.79
  -8   7 -17   29.06    9.34
  -7   8 -17   21.75    8.11
   7   8 -17   27.76    9.58
   8   7 -17   54.61    9.45
   7   8 -18    6.02    3.96
   8   7 -18    0.70    2.77
   7  -8 -18    2.88    3.47
   8  -7 -18    8.19    4.66
   8  -7  18    9.09    6.51
   7  -8  18    3.20    2.21
   8   7  18    4.28    1.63
   7   8  18   -0.46    2.17
  -7  -8 -18    3.52    3.17
  -8  -7 -18   -1.96    4.04
  -8   7 -18    4.83    4.08
  -7   8 -18    6.68    5.02
   8   7 -18    3.33    4.06
   7   8 -18    8.40    3.49
   7   8 -19    0.94    2.21
   8   7 -19    2.06    1.27
   7  -8 -19    4.89    3.73
   8  -7 -19    5.07    7.80
   8  -7  19    2.64    3.21
   7  -8  19    1.43    2.42
   8   7  19    8.29    4.20
   7   8  19    3.71    2.25
  -7  -8 -19    5.14    2.43
  -8  -7 -19   -0.45    4.32
   8   7 -19    4.36    2.52
   7   8 -19    5.62    4.66
   8   7 -20    8.33    3.32
   8   8   0  133.67    6.72
   8  -8   0  141.16   13.17
  -8   8   0  126.90    4.47
  -8  -8   0  146.91   17.31
   8   8  -1    0.80    1.18
   8  -8  -1    3.06    3.30
   8  -8   1    4.24    3.64
   8   8   1    7.09    2.72
  -8   8  -1    4.35    2.42
  -8  -8   1    3.76    2.02
  -8  -8  -1    3.71    3.52
   8   8  -2 1067.05   72.87
   8  -8  -2 1033.80   44.00
   8  -8   2 1015.70   41.84
   8   8   2 1023.86   42.08
  -8   8  -2 1041.03   40.46
  -8  -8   2 1096.70   74.93
  -8  -8  -2 1035.90   41.41
   8   8  -3   13.32    2.48
   8  -8  -3   10.42    3.64
   8  -8   3    5.13    5.89
   8   8   3   16.58    3.75
  -8   8  -3   10.30    2.09
  -8  -8   3   12.16    3.45
  -8  -8  -3   10.01    3.65
   8   8  -4    3.88    2.32
   8  -8  -4    7.16    3.55
   8  -8   4   22.10   10.95
   8   8   4    4.11    3.15
  -8   8  -4    2.39    1.84
   8   8  -4    4.87    2.92
  -8  -8   4   -1.73    2.60
  -8  -8  -4   -3.98    3.44
   8   8  -5    1.23    1.77
   8  -8  -5    6.82    3.58
   8  -8   5    4.74    3.97
   8   8   5    3.35    3.07
  -8   8  -5    7.00    3.26
   8   8  -5   -5.10    4.85
  -8  -8   5    3.43    1.90
  -8  -8  -5    5.91    2.83
   8   8  -6   22.51    3.77
   8  -8  -6   20.61    5.54
   8  -8   6   23.18    5.49
   8   8   6   23.73    6.16
  -8   8  -6   77.36   13.73
   8   8  -6   28.29    5.56
  -8  -8   6   30.23    5.23
  -8  -8  -6   25.01    7.41
   8   8  -7  110.01   10.39
   8  -8  -7  117.96   17.42
   8  -8   7  107.78   11.55
   8   8   7   99.82   16.39
  -8   8  -7  133.11   12.32
   8   8  -7  124.26   18.92
  -8  -8   7  124.74   17.52
  -8  -8  -7  117.43   11.48
   8   8  -8  174.74   12.12
   8  -8  -8  189.43    8.04
   8  -8   8  163.97   13.01
   8   8   8  164.00   12.81
  -8  -8  -8  167.91   22.30
   8   8  -8  182.78   23.10
  -8  -8   8  186.28   10.83
  -8  -8  -8  164.50   17.72
   8   8  -9  156.39   12.32
   8  -8  -9  137.84   23.04
   8  -8   9  152.78   11.14
   8   8   9  155.66   19.08
  -8  -8  -9  167.83   19.84
   8   8  -9  153.52   25.74
  -8  -8   9  167.29   14.37
  -8  -8  -9  164.92   16.33
   8   8 -10  238.50   17.57
   8  -8 -10  219.56   27.11
   8  -8  10  229.63   22.02
   8   8  10  232.98   10.73
  -8  -8 -10  227.91   16.17
  -8   8 -10  294.48   15.07
   8   8 -10  207.12   32.28
  -8  -8  10  233.30   13.61
  -8  -8 -10  242.47   14.81
   8   8 -11   16.78    5.06
   8  -8 -11   23.04    4.28
   8  -8  11   28.04    5.09
   8   8  11   19.37    5.83
  -8  -8 -11   21.88    4.78
  -8   8 -11   14.27    4.69
   8   8 -11   12.27    7.48
  -8  -8  11   18.81    3.98
  -8  -8 -11   24.20    4.50
   8   8 -12   19.78    3.88
   8  -8 -12   21.03    4.55
   8  -8  12   10.80    5.32
   8   8  12   17.03    6.02
  -8   8 -12   10.38    2.61
   8   8 -12   10.38    6.03
  -8  -8 -12   19.10    4.82
   8   8 -13   43.23    8.95
   8  -8 -13   56.83    8.77
   8  -8  13   40.67    9.36
   8   8  13   45.17    9.88
  -8  -8 -13   44.52    9.33
  -8   8 -13   48.71    6.47
   8   8 -13   45.20    8.87
   8   8 -14  118.06   13.93
   8  -8 -14  112.12   19.86
   8  -8  14  108.24   12.42
   8   8  14   86.98   22.55
  -8  -8 -14  118.63   23.67
  -8   8 -14  128.57   13.06
   8   8 -14   85.21   19.20
   8   8 -15    1.37    1.55
   8  -8 -15   -0.06    3.66
   8  -8  15   -0.23    3.50
   8   8  15    1.73    2.93
  -8  -8 -15    5.23    2.97
  -8   8 -15    7.09    2.36
   8   8 -15    4.30    2.23
   8   8 -16   51.37   19.73
   8  -8 -16   15.12    7.08
   8  -8  16   15.15    5.08
   8   8  16    7.36    4.19
  -8  -8 -16  100.09   20.97
  -8   8 -16    7.13    3.09
   8   8 -16    8.84    5.29
   8   8 -17   -2.22    3.52
   8  -8 -17   14.84    4.58
   8  -8  17    3.83    1.94
   8   8  17    8.07    5.58
  -8  -8 -17   42.87   19.07
  -8   8 -17   -0.06    3.50
   8   8 -17    1.05    2.98
   8   8 -18    4.87    3.19
   8  -8 -18    6.00    5.22
   8  -8  18    2.59    6.36
   8   8  18    4.05    3.42
  -8  -8 -18   35.08   15.90
  -8   8 -18   12.34    6.18
   8   8 -18    6.55    4.67
   8  -8  19   20.46    6.88
   8   8  19   20.93    6.26
   8   8 -19   19.24    8.54
   9   0   0    4.33    3.51
   0   9   0    2.38    1.77
   0  -9   0    9.89    4.97
   9   0  -1  560.05   16.89
   9   0   1  548.13   16.79
  -9   0  -1  547.46   15.49
   0   9  -1  543.70   15.39
   0  -9   1  631.62   21.30
   0  -9  -1  573.88   20.16
   9   0  -2    9.41    3.91
   9   0   2   14.62   13.55
   0   9   2    6.27    1.20
   0   9   2    5.51    1.01
  -9   0  -2   12.54    2.97
   0   9  -2   12.73    4.05
   0  -9   2    8.91    7.13
   0  -9  -2    3.34    2.01
   9   0  -3 1114.72   34.51
   0  -9   3  989.22   23.78
   9   0   3 1044.79   30.12
   0   9   3 1033.17   25.22
  -9   0  -3  997.73   26.97
   0   9  -3 1054.80   28.31
   0  -9   3 1112.84   31.10
   0  -9  -3 1019.16   28.21
   9   0  -4  452.86   16.27
   9   0   4  470.50   19.83
  -9   0  -4  441.67   16.73
   0   9  -4  459.42   26.66
   0  -9   4  448.85   16.75
   0  -9  -4  479.30   15.22
   0  -9  -5  908.40   14.77
   9   0  -5  889.83   20.66
   9   0   5  865.23   19.00
   0  -9   5  877.86   12.80
  -9   0  -5  864.77   16.92
   0   9  -5  862.92   22.40
   9   0  -5  903.31   15.61
   0  -9   5  903.11   18.84
   0  -9  -6  109.43   11.25
   9   0  -6  123.08   19.93
   9   0   6  116.43   14.09
   0  -9   6  108.83    9.95
  -9   0  -6  101.70   11.43
   0   9  -6  122.32   19.60
   9   0  -6  126.22   14.39
   0  -9  -6  116.97   13.87
   0  -9  -7  690.91   27.37
   9   0  -7  676.36   28.78
   9   0   7  672.89   27.84
   0  -9   7  712.85   28.07
  -9   0  -7  685.47   33.28
   0   9  -7  681.26   39.33
   9   0  -7  688.76   27.87
   0  -9  -7  694.19   29.05
   0  -9  -8  194.66   12.77
   9   0  -8  203.91   12.12
   9   0   8  186.91   13.85
   0  -9   8  191.79   10.25
  -9   0  -8  196.94   17.10
   0   9  -8  219.00   22.69
   9   0  -8  210.94   15.90
   0  -9  -8  197.82   10.65
   0  -9  -9  352.23   10.93
   9   0  -9  369.72   11.69
   9   0   9  327.74   15.16
   0  -9   9  345.84   10.04
   0  -9  -9  350.45    9.37
  -9   0  -9  382.50   12.43
   0   9  -9  331.67   24.96
   9   0  -9  365.49   16.72
   0  -9 -10   63.87   11.43
   9   0 -10   75.11    7.02
   9   0  10   77.39   17.15
   0  -9  10   64.54    7.24
   0  -9 -10   60.31   11.72
  -9   0 -10   73.54   11.97
   0   9 -10   64.02   14.60
   9   0 -10   65.98   10.41
  -9   0  10   73.85    7.63
   9   0 -11  152.78   12.05
   9   0  11  145.65   18.95
   0  -9  11  160.71    9.74
   0  -9 -11  161.78   11.65
  -9   0 -11  164.04    9.56
   0   9 -11  145.59   11.57
   9   0 -11  158.31   14.14
   9   0 -12    5.14    4.59
   9   0  12    5.86    2.84
   0  -9  12    3.10    2.32
   0  -9 -12    2.08    1.53
  -9   0 -12    3.16    3.72
   9   0 -12    1.42    2.44
   0   9 -12    2.99    3.21
   9   0 -13    5.36    2.70
   9   0  13   -1.44    4.25
   0  -9  13   -1.77    2.43
   0   9  13    2.35    2.26
   0  -9 -13    2.10    1.22
  -9   0 -13    4.70    2.58
   0   9 -13    0.76    3.14
   9   0 -14   12.27    4.70
   9   0  14   10.60    7.53
   0  -9  14   11.64    3.43
   0   9  14    8.29    4.17
   0  -9 -14   46.50   14.94
  -9   0 -14   17.61    5.27
   0   9 -14    3.17    4.30
   9   0 -15    8.19    3.67
   9   0  15    5.30    4.10
   0  -9  15    3.28    2.46
   0   9  15   -0.33    2.66
  -9   0 -15   18.11    6.27
   0   9 -15    5.60    5.15
   9   0 -16   16.67    5.85
   9   0  16    0.98    5.34
   0  -9  16    9.42    3.35
   0   9  16    2.57    2.00
  -9   0 -16   12.15    5.21
   0   9 -16    9.86    4.16
   9   0 -17   13.16    4.71
   9   0  17   16.06   10.54
   0  -9  17    9.71    4.54
   0   9  17    8.73    4.81
  -9   0 -17   26.75    7.56
   0   9 -17   28.17    7.15
   9   0 -18   20.19    3.88
   9   0  18    9.93    5.53
   0  -9  18    5.81    5.34
   0   9  18    6.16    2.34
  -9   0 -18   10.30    4.28
   0   9 -18    9.72    3.87
   9   0 -19   38.70    9.55
   9   0  19   43.54   12.41
   0  -9  19   37.91   10.96
   0   9  19   48.42    8.21
  -9   0 -19   49.18   12.03
   0   9 -19   45.92   12.88
   0  -9  20    3.44    3.27
   0   9  20    3.88    2.50
   9  -1   0   58.36   10.89
   9   1   0   65.45   10.78
  -1   9   0   66.12    7.79
   1   9   0   51.33    4.57
   1  -9   0   63.08   12.83
  -1  -9   0   53.10   14.40
   1  -9  -1  519.25   12.62
   9  -1  -1  526.41   16.80
   9   1  -1  529.14   19.43
   9  -1   1  519.99   15.37
   9   1   1  561.61   16.81
  -1   9   1  548.90   13.38
  -9   1  -1  532.58   17.20
  -1   9  -1  542.75   15.57
   1   9  -1  510.20   17.44
  -1   9   1  553.88   20.94
   1  -9  -1  543.48   18.45
  -1  -9   1  533.55   16.11
  -1  -9  -1  542.84   15.77
   1  -9   2  188.51    2.90
   9  -1  -2  187.35    7.34
   9   1  -2  217.51    7.94
   9  -1   2  456.26   43.75
   9   1   2  253.11   11.40
  -9  -1  -2  270.60   14.85
  -9   1  -2  210.44    8.63
  -1   9  -2  216.77   11.57
   1   9  -2  194.48   13.10
   1  -9  -2  228.73    9.54
  -1  -9   2  205.65    9.69
  -1  -9  -2  185.13   11.06
   1  -9  -3    8.72    1.69
   9   1  -3    4.81    2.23
   9  -1  -3    8.94    4.89
   9  -1   3   10.94    6.30
   9   1   3    3.64    2.89
   1   9   3    7.22    1.21
  -9  -1  -3    6.75    4.68
  -9   1  -3    0.50    2.21
  -1   9  -3    5.69    3.30
   1   9  -3    9.79    6.64
   1  -9  -3    4.58    2.35
  -1  -9   3    4.49    3.21
  -1  -9  -3    4.72    3.58
   1  -9  -4 1068.57   27.01
   9   1  -4 1052.55   38.64
   9  -1  -4 1022.12   33.78
   9  -1   4 1034.97   28.72
   9   1   4  967.61   27.21
   1  -9   4  968.58   24.01
   1   9   4 1051.06   25.79
  -9  -1  -4 1033.43   36.55
  -9   1  -4  937.76   24.37
  -1   9  -4 1021.54   28.34
   1   9  -4 1042.64   28.49
   9  -1  -4  990.99   24.85
  -1  -9   4 1061.70   35.19
  -1  -9  -4 1017.96   27.66
   1  -9  -5  253.27    8.91
   9   1  -5  218.12   19.52
   9  -1  -5  218.57   18.89
   9  -1   5  256.72   11.50
   9   1   5  223.62   24.96
   1  -9   5  210.59   17.77
  -1  -9   5  226.12   19.42
   1   9   5  268.11    7.63
  -9  -1  -5  234.02    9.18
  -9   1  -5  238.73   19.19
  -1   9  -5  219.79   22.31
   1   9  -5  219.28   19.45
   9  -1  -5  231.07    7.70
   9   1  -5  232.67    8.51
  -1  -9   5  238.50   18.57
  -1  -9  -5  224.39   20.81
   1  -9  -6   47.28    8.55
   9   1  -6   38.66    8.25
   9  -1  -6   48.39    9.36
   9  -1   6   25.91    7.10
   9   1   6   51.89   10.77
   1  -9   6   40.52    7.83
  -1  -9   6   26.90    4.75
   1   9   6   28.34    4.88
  -9  -1  -6   40.41    7.52
  -9   1  -6   43.42    9.48
  -1   9  -6   37.33    7.59
   1   9  -6   46.23    9.14
   9  -1  -6   38.97    6.77
   9   1  -6   28.53    4.69
  -1  -9   6   39.37   12.94
  -1  -9  -6   50.45   10.58
   1  -9  -7   38.29    6.65
   9   1  -7   42.91    8.36
   9  -1  -7   36.27    6.35
   9  -1   7   42.34    7.70
   9   1   7   42.21    7.67
   1  -9   7   36.26    6.15
  -1  -9   7   34.56    4.91
   1   9   7   32.55    6.82
  -9  -1  -7   33.59    8.70
  -9   1  -7   44.21    9.80
  -1   9  -7   44.39    8.44
   1   9  -7   42.65    7.31
   9  -1  -7   37.18    5.07
   9   1  -7   33.44    5.78
  -1  -9   7   32.29    9.43
  -1  -9  -7   41.74    6.09
   1  -9  -8  305.25   13.92
   9   1  -8  303.14   22.00
   9  -1  -8  287.56   13.59
   9  -1   8  320.59   24.28
   9   1   8  297.00   14.99
   1  -9   8  313.22   13.87
  -1  -9   8  332.39   15.98
   1   9   8  287.36   17.76
  -9  -1  -8  307.96   19.85
  -9   1  -8  302.36   18.67
  -1   9  -8  297.97   23.08
   9  -1  -8  309.50   14.08
   1   9  -8  332.08   27.25
   9   1  -8  292.37   17.76
  -1  -9  -8  322.71   18.96
  -9  -1   8  317.65   15.80
   1  -9  -9   28.47    5.18
   9   1  -9   31.91    6.51
   9  -1  -9   30.57    6.07
   9  -1   9   13.75    5.65
   9   1   9   37.33    9.69
   1  -9   9   35.73    8.45
  -1  -9   9   28.56    5.14
   1   9   9   23.48    5.88
  -1  -9  -9   32.55    6.54
  -9  -1  -9   33.54    7.93
  -9   1  -9   37.00    7.59
  -1   9  -9   53.71   12.05
   9  -1  -9   29.02    4.74
   1   9  -9   31.23    6.30
   9   1  -9   25.95    5.52
  -1  -9  -9   35.97    6.55
  -9  -1   9   31.15    5.95
   1  -9 -10   76.65   13.96
   9   1 -10  100.02   13.66
   9  -1 -10  203.88   20.90
   9  -1  10   87.47   10.83
   9   1  10   88.03   16.59
   1  -9  10   86.88   12.13
  -1  -9  10   89.91    7.33
   1   9  10   74.56    8.63
   1  -9 -10   81.79    9.04
  -1  -9 -10   89.17    5.93
  -9  -1 -10   92.72    6.90
  -9   1 -10   93.39   15.07
   9  -1 -10   77.61    7.10
  -1   9 -10   96.67    9.40
   1   9 -10   94.01   17.69
   9   1 -10   68.51   13.31
  -1  -9 -10   78.78   13.11
  -9  -1  10   84.92    5.07
   1  -9 -11  123.27   20.47
   9   1 -11  133.12   23.86
   9  -1 -11   88.21   15.57
   9  -1  11  133.89   15.57
   9   1  11   96.82   14.36
   1  -9  11   91.18   17.12
  -1  -9  11  120.36    6.86
   1   9  11  119.85    5.99
   1  -9 -11  117.73   12.87
  -1  -9 -11   94.62   16.64
  -9  -1 -11  157.57   11.46
  -9   1 -11  115.26    9.35
   9  -1 -11   87.22    9.82
  -1   9 -11  121.00   21.34
   1   9 -11  114.02   20.27
   9   1 -11  125.55   18.05
  -9  -1  11   96.31   10.49
   1  -9 -12   56.30   10.03
   9   1 -12   58.65   11.11
   9  -1 -12   63.49    9.20
   9  -1  12   52.82   13.20
   9   1  12   67.34   15.10
   1  -9  12   49.56    9.75
  -1  -9  12   60.38   10.89
   1   9  12   47.60   11.21
   1  -9 -12   53.41    8.20
  -1  -9 -12   56.86    9.33
  -9  -1 -12   68.49   15.20
  -9   1 -12   65.75   10.92
  -1   9 -12   60.11   12.39
   1   9 -12   64.44    7.66
   9   1 -12   45.50   11.56
  -9  -1 -12   59.58   11.06
   1  -9 -13   91.07   16.16
   9   1 -13   92.83   10.60
   9  -1 -13   87.06   13.78
   9  -1  13   90.12    8.37
   9   1  13   89.96   17.26
   1  -9  13   78.44   17.46
  -1  -9  13   90.36   19.66
   1   9  13   81.44    8.74
  -1  -9 -13   84.13   10.95
  -9  -1 -13  111.02   16.77
  -9   1 -13   95.73    7.51
  -1   9 -13   99.53   12.68
   9   1 -13   88.35   13.85
   1   9 -13   69.22   12.73
   1  -9 -14   47.04   10.10
   9   1 -14   57.76    9.82
   9  -1 -14   57.93   11.70
   9  -1  14   48.73   12.93
   9   1  14   51.72   11.81
   1  -9  14   33.70    7.29
  -1  -9  14  101.19   25.90
   1   9  14   48.22   10.98
  -1  -9 -14  220.52   35.93
  -9  -1 -14   45.93    9.56
  -9   1 -14   47.99    8.86
  -1   9 -14   58.64    9.98
   9   1 -14   45.11    9.13
   1   9 -14   42.68    9.17
   9   1 -15   80.20   14.96
   9  -1 -15   80.50   15.22
   9  -1  15   79.95   19.97
   9   1  15   87.79   22.91
   1  -9  15   66.15   14.60
  -1  -9  15   56.13   17.51
   1   9  15   62.76   10.30
  -1  -9 -15   68.99   12.57
  -9  -1 -15   62.87    9.09
  -9   1 -15   89.97   14.61
  -1   9 -15   63.60   14.96
   1   9 -15   89.26   15.23
   9   1 -16   52.52   11.45
   9  -1 -16   41.72    9.57
   9  -1  16   20.43   13.70
   9   1  16   43.28    8.25
   1  -9  16   42.51    7.49
  -1  -9  16   45.55    7.26
   1   9  16   32.02    8.82
  -1   9  16   32.16    5.63
  -9  -1 -16   42.32    8.70
  -9   1 -16   46.98    8.91
  -1   9 -16   39.29   10.96
   1   9 -16   44.86    9.62
   9   1 -17   40.94    8.40
   9  -1 -17   34.32    9.25
   9  -1  17   34.35    9.41
   9   1  17   26.43    9.64
   1  -9  17   28.25    7.73
  -1  -9  17   23.22    8.96
   1   9  17   32.43    9.81
  -1   9  17   28.21    9.56
  -9  -1 -17   51.37    9.39
  -9   1 -17   32.00    6.02
  -1   9 -17   26.81    8.70
   1   9 -17   32.69    9.72
   9   1 -18   12.46    4.90
   9  -1 -18   -0.68    4.18
   9  -1  18    7.21    9.66
   9   1  18   13.79    4.80
   1  -9  18   10.57    3.87
  -1  -9  18   13.06    3.60
   1   9  18   11.28    6.77
  -1   9  18   19.34    7.88
  -9  -1 -18    5.85    2.04
  -9   1 -18   14.43    3.60
  -1   9 -18   16.03    6.03
   1   9 -18   11.36    5.37
   9   1 -19    4.56    4.79
   9  -1 -19    5.78    2.26
   9  -1  19    5.62    3.10
   9   1  19    7.22    3.04
   1  -9  19    3.63    3.22
  -1  -9  19    4.24    3.01
   1   9  19    3.95    3.72
  -1   9  19    1.68    2.28
  -9  -1 -19   12.25    2.98
  -9   1 -19    3.45    3.67
  -1   9 -19    4.99    4.43
   1   9 -19    4.64    4.43
   1  -9  20   15.01    6.19
   1   9  20   13.37    4.80
  -1   9  20    8.30    4.47
   9  -2   0  513.94   16.69
   9   2   0  493.29   19.39
  -9   2   0  522.98   17.16
  -2   9   0  479.63   13.57
  -2  -9   0  500.26   14.22
   9  -2  -1  760.06   23.05
   9   2  -1  700.95   27.13
   9  -2   1  696.49   20.77
   9   2   1  752.88   20.82
  -2   9  -1  708.58   19.15
  -2   9   1  768.95   24.68
   2   9  -1  779.18   25.98
  -2  -9   1  697.25   21.31
  -2  -9  -1  760.89   21.42
   2  -9  -2   65.83    3.52
   9   2  -2   60.30   10.88
   9  -2  -2   47.69    8.15
   2  -9   2   37.59    4.44
   9  -2   2   63.78    6.93
   9   2   2   87.98   21.42
  -9  -2  -2   64.43   13.03
  -9   2  -2   41.92    7.33
  -2   9  -2   70.14   12.50
  -2   9   2   46.32    8.80
   2   9  -2   40.90    9.99
  -2  -9   2   67.22   15.43
  -2  -9  -2   37.88    9.75
   2  -9  -3  697.91   18.61
   9   2  -3  691.70   25.53
   9  -2  -3  767.81   22.19
   2  -9   3  742.03   18.78
   9  -2   3  738.39   25.36
   9   2   3  740.56   20.71
   2   9   3  744.48   18.25
  -9  -2  -3  730.41   24.04
  -9   2  -3  694.30   18.50
  -2   9  -3  662.47   20.79
   2   9  -3  772.50   24.24
  -2  -9   3  729.82   20.93
  -2  -9  -3  718.66   20.60
   2  -9  -4  344.21   10.17
   9   2  -4  354.64   12.88
   9  -2  -4  353.02   12.92
   9  -2   4  361.50   13.59
   9   2   4  350.02   12.99
   2  -9   4  326.55   10.89
   2   9   4  377.83   11.38
  -9   2  -4  350.01   14.27
  -2   9  -4  364.24   12.62
   2   9  -4  344.64   18.07
   9  -2  -4  341.58   10.62
  -2  -9   4  374.47   11.87
  -2  -9  -4  337.36   11.10
   2  -9  -5  156.40   13.25
   9   2  -5  156.66   22.66
   9  -2  -5  167.71   15.98
   9  -2   5  154.83   18.52
   9   2   5  167.60   18.68
   2  -9   5  183.38   15.78
   2   9   5  152.13   13.75
  -2  -9   5  142.86   12.35
  -9  -2  -5  146.98   13.75
  -9   2  -5  175.45   16.66
  -2   9  -5  154.87   21.35
   2   9  -5  174.34   17.89
   9  -2  -5  184.44   17.33
   9   2  -5  158.62   22.91
  -2  -9   5  144.23   14.40
  -2  -9  -5  179.78   17.35
  -9  -2   5  195.38   16.81
   2  -9  -6   34.47    6.27
   9   2  -6   40.39    6.18
   9  -2  -6   29.59    6.39
   9  -2   6   40.85    8.58
   9   2   6   36.03    7.23
   2  -9   6   25.72    4.46
   2   9   6   33.58    5.36
  -2  -9   6   27.90    4.96
  -9  -2  -6   38.79    8.89
  -9   2  -6   28.28    6.31
  -2   9  -6   42.89   10.18
   9  -2  -6   24.32    3.97
   2   9  -6   33.42    8.67
   9   2  -6   31.94    6.36
  -2  -9   6   32.92    6.93
  -2  -9  -6   32.02    7.12
  -9  -2   6   26.30    6.13
   2  -9  -7   28.87    5.24
   9   2  -7   25.49    4.81
   9  -2  -7   33.76    6.02
   9  -2   7   23.66    5.28
   9   2   7   28.58    5.85
   2  -9   7   21.36    4.16
   2   9   7   23.35    4.38
  -2  -9   7   17.58    3.32
  -9  -2  -7   25.95    3.65
  -9   2  -7   33.91    6.16
  -2   9  -7   30.16    5.52
   9  -2  -7   22.31    3.11
   2   9  -7   24.51    5.03
   9   2  -7   22.73    5.38
  -2  -9   7   27.50    6.74
  -2  -9  -7   29.83    4.31
  -9  -2   7   21.89    4.69
   2  -9  -8  101.16   11.07
   9   2  -8   94.21    6.68
   9  -2  -8   98.24   11.78
   9  -2   8   94.71   15.19
   9   2   8   95.01   18.30
   2  -9   8   92.05    8.92
   2   9   8   84.84   11.01
  -2  -9   8   85.13    8.59
  -9  -2  -8  101.14    8.00
  -9   2  -8   94.18    7.07
  -2   9  -8   99.73   17.96
   9  -2  -8   90.42    7.06
   2   9  -8  105.11   12.07
   9   2  -8   92.86   12.40
  -2  -9   8  111.89   10.27
  -2  -9  -8  118.98   11.40
  -9  -2   8  106.35   10.18
   2  -9  -9   30.08    6.17
   9   2  -9   37.95    7.50
   9  -2  -9   31.13    6.11
   9  -2   9   45.98    8.16
   9   2   9   27.76    9.06
   2  -9   9   27.18    5.17
   2   9   9   31.94    6.13
  -2  -9   9   32.72    7.60
  -2  -9  -9   26.85    5.68
  -9  -2  -9   41.65   12.52
  -9   2  -9   28.08    4.97
   9  -2  -9   23.79    4.00
  -2   9  -9   39.40    6.40
   2   9  -9   33.19    5.97
   9   2  -9   36.31    7.51
  -2  -9   9   34.48    8.30
  -2  -9  -9   27.08    4.99
  -9  -2   9   25.91    4.43
  -9  -2  -9   38.83    8.94
   2  -9 -10  570.83   86.80
   9   2 -10   98.28    7.75
   9  -2  10  105.06   15.83
   9   2  10  121.10   19.93
   2  -9  10  118.43    8.51
   2   9  10   90.84   14.93
  -2  -9  10   91.04   10.04
  -2  -9 -10  125.94    8.18
  -9  -2 -10  113.23    9.23
  -9   2 -10  127.22   10.51
  -2   9 -10   94.75    9.46
   2   9 -10  117.68   11.61
   9   2 -10   96.21   15.74
  -2  -9 -10  120.67   10.05
  -9  -2  10  106.87    9.61
  -9  -2 -10   83.96   16.78
   2  -9 -11  203.55   17.73
   9   2 -11  208.22   10.43
   9  -2 -11  219.45   18.16
   9  -2  11  208.78   10.73
   9   2  11  178.33   18.03
   2  -9  11  203.93   10.00
   2   9  11  203.84   10.40
  -2  -9  11  186.67   11.60
  -2  -9 -11  207.32    8.31
  -9  -2 -11  199.31   13.23
  -9   2 -11  206.29   12.21
  -2   9 -11  200.47   28.95
   2   9 -11  202.71   33.25
   9   2 -11  189.51   28.37
  -2  -9 -11  195.32   13.23
  -9  -2  11  191.02   11.88
  -9  -2 -11  176.44   14.08
   2  -9 -12   87.71   14.61
   9   2 -12  141.72   11.07
   9  -2 -12  132.36   22.30
   9  -2  12  121.82   15.89
   9   2  12  108.66    9.60
   2  -9  12  111.94   15.10
   2   9  12   98.33   18.71
  -2  -9  12  105.79   12.37
  -2  -9 -12  115.75   16.80
  -9  -2 -12  125.22   11.38
  -9   2 -12  130.92   19.95
  -2   9 -12  120.78    9.58
   2   9 -12  109.21   20.14
   9   2 -12  113.28   16.81
  -9  -2 -12   92.86   15.75
   2  -9 -13  173.74   17.46
   9   2 -13  193.05   13.06
   9  -2 -13  206.43   21.89
   9  -2  13  187.92   21.41
   9   2  13  187.91   12.15
   2  -9  13  182.03    8.77
   2   9  13  169.43   16.93
  -2  -9  13  181.84   10.88
  -2  -9 -13  195.30   12.92
  -9  -2 -13  187.37   15.32
  -9   2 -13  192.97    7.55
  -2   9 -13  168.05   10.40
   2   9 -13  170.35   15.83
   9   2 -13  175.10   16.67
   2  -9 -14   48.14   10.25
   9   2 -14   50.37   12.20
   9  -2 -14   48.91   11.20
   9  -2  14   47.44   11.49
   9   2  14   45.14    9.83
   2  -9  14   38.80    8.21
   2   9  14   41.85   10.54
  -2  -9  14   42.69    7.97
  -2  -9 -14  193.52   34.20
  -9  -2 -14   57.57    9.88
  -9   2 -14   61.60   11.22
  -2   9 -14   48.83    9.66
   9   2 -14   39.81    9.02
   2   9 -14   40.13   10.70
   2  -9 -15  122.99   26.00
   9   2 -15  165.48   23.37
   9  -2 -15  175.98   24.49
   9  -2  15  174.40   23.42
   9   2  15  173.24   21.09
   2  -9  15  178.41   14.94
   2   9  15  113.80   16.22
  -2  -9  15  143.75   12.54
  -2  -9 -15  159.61   20.60
  -9  -2 -15  172.54   19.88
  -9   2 -15  190.87   22.19
  -2   9 -15  131.63   28.83
   9   2 -15  138.58   24.25
   2   9 -15  165.21   37.01
   2  -9 -16   39.84    7.16
   9   2 -16   46.69   10.22
   9  -2 -16   38.22    6.32
   9  -2  16   36.24    9.53
   9   2  16   30.94    7.86
   2  -9  16   27.18    7.34
   2   9  16   31.85    9.20
  -2  -9  16   36.31    7.55
  -2  -9 -16   32.98    7.83
  -9  -2 -16   52.97    9.89
  -9   2 -16   28.51    6.86
  -2   9 -16   28.98    8.19
   2   9 -16   35.28    6.72
   2  -9 -17   21.32    6.94
   9   2 -17   30.23    9.50
   9  -2 -17   35.01    8.03
   9  -2  17   40.03    8.30
   9   2  17   30.28   11.46
   2  -9  17   25.98    9.40
   2   9  17   30.35    6.41
  -2  -9  17   24.20    8.16
  -2  -9 -17   37.14    8.92
  -9  -2 -17   38.68    7.34
  -9   2 -17   41.09    7.68
  -2   9 -17   25.11    7.58
   2   9 -17   28.28    8.30
   9   2 -18    4.57    3.34
   9  -2 -18    9.86    4.78
   9  -2  18    1.35    3.22
   9   2  18    6.41    4.15
   2  -9  18   -0.49    3.53
   2   9  18    3.92    2.88
  -2  -9  18    4.32    4.17
  -9  -2 -18    1.78    2.06
  -9   2 -18    6.64    3.37
  -2   9 -18   -4.26    4.53
   2   9 -18   -0.52    4.75
   9   2 -19   17.01    6.91
   9  -2 -19   18.75    6.02
   9  -2  19   12.90    5.35
   9   2  19   10.25    3.88
   2  -9  19    3.77    4.09
   2   9  19    8.04    3.85
  -2  -9  19   15.64    4.99
  -2   9  19    6.47    4.75
  -9  -2 -19   18.12    5.43
  -9   2 -19   12.54    3.79
  -2   9 -19    4.27    4.88
   2   9 -19    6.93    2.90
   9   2 -20    5.27    2.51
   2  -9  20   10.37    3.62
   2   9  20   12.57    4.32
  -2   9  20    6.99    2.56
   3  -9   0  601.24   16.15
   9  -3   0  567.56   20.02
   9   3   0  574.05   17.01
  -9   3   0  558.38   14.62
  -3   9   0  581.88   17.21
  -3  -9   0  580.86   16.88
  -9  -3   0  592.51   17.04
   3  -9  -1   63.45    4.09
   3  -9   1   61.63    6.15
   9   3  -1   67.61   14.20
   9  -3  -1   81.87   14.50
   9  -3   1   87.95   17.08
   9   3   1   65.30   13.24
  -9   3  -1   63.11    3.43
  -3   9  -1   62.06    6.49
  -3   9   1   64.19    4.12
  -3  -9   1   61.45   11.09
  -3  -9  -1   63.38   11.90
  -9  -3   1   78.44   15.34
  -9  -3  -1   76.33   13.10
   3  -9  -2  282.66    9.07
   9   3  -2  295.24   20.66
   9  -3  -2  302.20   11.63
   3  -9   2  266.94    9.61
   3   9   2  299.78    8.21
   9  -3   2  299.03   11.48
   9   3   2  364.93   18.54
  -9   3  -2  302.41   11.57
  -3   9  -2  318.99   13.77
  -3   9   2  282.26    8.64
   3   9  -2  321.09   22.73
  -3  -9   2  309.05   14.00
  -3  -9  -2  282.36    9.64
  -9  -3   2  293.03   11.33
  -9  -3  -2  299.87   11.09
   3  -9  -3  208.38    4.86
   9   3  -3  216.17   14.53
   9  -3  -3  215.32   17.93
   3  -9   3  261.56   12.78
   9  -3   3  208.91    8.92
   9   3   3  225.60   19.67
   3   9   3  222.19   18.18
  -9  -3  -3  225.14   22.65
  -9   3  -3  220.68    8.33
  -3   9  -3  210.39    9.23
  -3   9   3  224.40   18.82
   3   9  -3  224.58   26.04
  -3  -9   3  210.58   13.55
  -3  -9  -3  219.90    6.40
  -9  -3   3  225.60   19.83
  -9  -3  -3  214.00    7.33
   3   9  -4   64.18    5.88
   3  -9  -4   92.41    9.07
   9   3  -4   96.95   17.91
   9  -3  -4   63.19    8.94
   9  -3   4   83.91    8.82
   3  -9   4   79.43   10.15
   9   3   4   77.17   18.29
   3   9   4   76.87    8.54
  -9  -3  -4   83.50    9.38
  -9   3  -4   66.60   11.77
  -3   9  -4  102.97   11.89
   3   9  -4   74.11    9.96
  -3   9   4   70.45    7.00
  -3  -9   4   89.67   13.11
  -3  -9  -4   72.59   13.03
  -9  -3   4   88.27   14.92
  -9  -3  -4  103.42   16.38
   3   9  -5  288.25    7.16
   3  -9  -5  303.88    7.46
   9   3  -5  307.40   13.24
   9  -3  -5  316.22   10.15
   9  -3   5  316.96    9.88
   9   3   5  292.47   15.31
   3  -9   5  301.01    8.44
   3   9   5  314.72    9.10
  -9  -3  -5  358.91   11.10
  -9   3  -5  290.44   14.60
  -3   9  -5  304.80   10.26
   3   9  -5  283.37   16.20
   9   3  -5  315.70   10.47
  -3  -9   5  301.62   11.04
  -3  -9  -5  293.93    8.25
  -9  -3   5  304.13   12.62
  -9  -3  -5  317.71   11.60
   3   9  -6  341.39    8.77
   3  -9  -6  350.51    9.30
   9   3  -6  343.89   12.34
   9  -3  -6  371.14   11.31
   9  -3   6  334.44   13.40
   9   3   6  370.74   15.97
   3  -9   6  355.89    8.76
   3   9   6  313.94    9.05
  -9  -3  -6  352.51   10.79
  -9   3  -6  358.57   14.12
  -3   9  -6  315.64   10.13
   9   3  -6  334.86   14.54
  -3  -9   6  332.07   11.89
  -3  -9  -6  347.99    9.81
  -9  -3   6  371.08   10.72
  -9  -3  -6  341.90    9.57
   3   9  -7  375.06   15.73
   3  -9  -7  405.09   17.63
   9   3  -7  392.90   23.46
   9  -3  -7  410.82   25.40
   9  -3   7  408.46   18.97
   9   3   7  416.22   18.09
   3  -9   7  407.97   17.09
   3   9   7  386.72   19.24
  -9  -3  -7  402.40   25.66
  -9   3  -7  407.98   22.10
  -3   9  -7  392.37   19.43
   3   9  -7  389.67   17.41
   9   3  -7  417.02   19.26
  -3  -9   7  399.71   22.38
  -3  -9  -7  387.34   20.89
  -9  -3   7  406.07   19.78
  -9  -3  -7  406.82   18.78
   3   9  -8   32.34    6.42
   3  -9  -8   39.45    6.43
   9   3  -8   44.04    6.94
   9  -3  -8   38.65    8.35
   9  -3   8   47.81    9.33
   9   3   8   30.40    5.52
   3  -9   8   31.50    5.18
   3   9   8   36.48    6.99
  -9  -3  -8   48.99   12.36
  -9   3  -8   34.94    7.11
  -3   9  -8   37.57    6.04
   3   9  -8   31.40    6.20
   9   3  -8   57.02   11.65
  -3  -9   8   46.18   10.59
  -3  -9  -8   37.59    7.44
  -9  -3   8   37.92    7.01
  -9  -3  -8   46.04    9.84
   3   9  -9  381.62   12.16
   3  -9  -9  358.53   16.89
   9   3  -9  349.80   14.64
   9  -3  -9  347.90   11.01
   9  -3   9  362.83   24.52
   9   3   9  368.10   14.26
   3  -9   9  359.89    9.45
   3   9   9  342.89   10.21
  -3  -9  -9  366.37   13.28
  -9  -3  -9  359.60   22.17
  -9   3  -9  350.70   18.36
  -3   9  -9  345.94   17.75
   3   9  -9  323.04   23.39
   9   3  -9  369.35   12.72
  -3  -9   9  371.95   16.18
  -3  -9  -9  366.03   18.22
  -9  -3   9  352.86   13.16
  -9  -3  -9  348.33   17.37
   3   9 -10   74.51    7.93
   3  -9 -10   88.51   13.08
   9   3 -10   76.19   10.79
   9  -3 -10  208.66   18.74
   9  -3  10   86.02   20.27
   9   3  10   86.96   15.19
   3  -9  10   71.45   16.29
   3   9  10   82.63   10.86
  -3  -9 -10   80.64   14.65
  -9  -3 -10   90.81   18.06
  -9   3 -10   75.09   13.43
  -3   9 -10   92.66   14.62
   3   9 -10   75.69    9.26
   9   3 -10   85.87   14.37
  -3  -9  10  111.71   10.30
  -3  -9 -10   80.74   13.74
  -9  -3  10   79.32    7.09
  -9  -3 -10   93.22    8.74
   3   9 -11   25.25    4.71
   3  -9 -11   45.87    9.03
   9   3 -11   41.21    7.35
   9  -3 -11   39.52    8.00
   9  -3  11   46.09    8.19
   9   3  11   35.88    8.17
   3  -9  11   37.41    5.98
   3   9  11   42.26    9.72
  -3  -9 -11   30.43    5.86
  -9  -3 -11   48.66    8.67
  -9   3 -11   32.02    5.76
  -3   9 -11   47.70    7.69
   3   9 -11   48.92   11.94
   9   3 -11   45.49    5.30
  -3  -9  11   35.53    6.99
  -3  -9 -11   33.86    5.70
  -9  -3  11   26.16    6.35
  -9  -3 -11   47.09    7.20
   3   9 -12   47.25   11.53
   3  -9 -12   63.64   10.20
   9   3 -12   63.51   13.83
   9  -3 -12   50.54    8.82
   9  -3  12   79.87   15.03
   9   3  12   56.38   12.34
   3  -9  12   54.37   10.10
   3   9  12   49.18   12.18
  -3  -9 -12   60.70    9.41
  -9  -3 -12   70.46   11.65
  -9   3 -12   75.27   13.17
  -3   9 -12   64.79   11.13
   3   9 -12   46.87    7.25
   9   3 -12   56.54   11.19
  -9  -3 -12   49.34    8.66
   3  -9 -13    5.24    3.42
   9   3 -13    2.49    2.13
   9  -3 -13    4.53    2.91
   9  -3  13    0.13    2.47
   9   3  13    0.18    2.98
   3  -9  13    3.07    2.14
   3   9  13    6.96    2.67
  -3  -9 -13    3.38    2.40
  -9  -3 -13    6.55    3.79
  -9   3 -13    2.92    2.63
  -3   9 -13    0.36    2.49
   3   9 -13   -1.58    3.54
   9   3 -13    0.35    1.89
   3  -9 -14  175.19   15.97
   9   3 -14  168.83   13.71
   9  -3 -14  178.78   26.10
   9  -3  14  160.61   12.27
   9   3  14  183.29   12.56
   3  -9  14  171.91   15.60
   3   9  14  169.80   12.18
  -3  -9  14  206.02   12.15
  -3  -9 -14  188.97   27.81
  -9  -3 -14  190.80   16.19
  -9   3 -14  198.11   16.43
  -3   9 -14  168.28   21.44
   9   3 -14  163.97   17.51
   3   9 -14  174.13   23.44
   3  -9 -15    9.24    4.88
   9   3 -15    6.41    2.80
   9  -3 -15    2.43    3.38
   9  -3  15    9.62    7.49
   9   3  15    8.28    5.20
   3  -9  15    6.88    4.47
   3   9  15    8.26    4.85
  -3  -9  15    3.94    3.32
  -3  -9 -15   17.82    7.22
  -9  -3 -15   11.17    5.77
  -9   3 -15   14.21    3.12
  -3   9 -15   14.16    5.51
   9   3 -15    5.65    2.19
   3   9 -15   10.13    4.22
   3  -9 -16   17.55    4.45
   9   3 -16   11.93    4.19
   9  -3 -16   18.76    4.66
   9  -3  16   14.93    7.23
   9   3  16   17.95    7.28
   3  -9  16   29.12    7.59
   3   9  16   17.20    6.00
  -3  -9 -16   24.52    7.00
  -9  -3 -16   27.01    5.97
  -9   3 -16   20.60    5.12
  -3   9 -16   20.29    7.22
   9   3 -16   14.90    4.43
   3   9 -16   19.06    7.61
   3  -9 -17   10.62    3.94
   9   3 -17   15.77    2.58
   9  -3  17   28.96    5.24
   9   3  17   19.80    8.39
   3  -9  17   21.09    6.40
   3   9  17   18.19    6.00
  -3  -9  17   27.56    7.01
  -3  -9 -17   22.11    6.43
  -9  -3 -17   15.71    4.92
  -9   3 -17   23.35    3.33
  -3   9 -17   13.20    7.48
   3   9 -17   27.63   10.14
   3  -9 -18   10.40    4.09
   9   3 -18    9.00    5.88
   9  -3 -18   13.37    6.03
   9  -3  18    8.41    5.32
   9   3  18   14.67    7.86
   3  -9  18   13.49    7.31
   3   9  18    5.88    3.62
  -3  -9  18    7.47    4.31
  -3  -9 -18    7.76    3.78
  -9  -3 -18   13.79    5.17
  -9   3 -18    8.47    2.65
  -3   9 -18    7.34    2.84
   3   9 -18   15.60    7.92
   3  -9 -19    6.89    4.13
   9   3 -19   20.00    7.09
   9  -3 -19   19.36    8.16
   9  -3  19   24.61    6.48
   9   3  19   10.48    4.94
   3   9  19   15.02    4.36
  -9  -3 -19   20.24    6.42
  -9   3 -19   13.85    3.32
  -3   9 -19   14.94    5.39
   3   9 -19    9.38    3.01
   3  -9  20    2.48    2.62
   3   9  20    8.60    3.46
  -3   9  20   -0.59    3.41
   4   9   0   28.73    3.62
   4  -9   0   34.97    4.84
   9  -4   0   39.27    8.43
   9   4   0   37.97    8.30
  -9   4   0   36.04    4.11
  -4   9   0   44.16    6.69
  -4  -9   0   39.53   11.34
  -9  -4   0   47.08    8.54
   4   9  -1   34.77    2.36
   4  -9  -1   39.79    3.52
   4   9   1   40.44    2.92
   4  -9   1   38.35    5.71
   9   4  -1   39.69    9.07
   9  -4  -1   45.16    9.60
   9  -4   1   53.57    7.28
   9   4   1   48.19   10.02
  -4  -9   1   38.56    1.82
  -9   4  -1   41.96    6.16
  -4   9  -1   52.03    9.35
  -4   9   1   43.01    7.67
  -4  -9   1   51.04    9.56
  -4  -9  -1   47.42   11.45
  -9  -4   1   50.68   10.89
  -9  -4  -1   43.69    7.03
   4   9  -2  279.03    7.12
   4  -9  -2  264.18    9.44
   9   4  -2  282.12   17.62
   9  -4  -2  300.23   11.24
   4  -9   2  272.44    8.49
   4   9   2  278.58    8.21
   9  -4   2  248.06    9.37
   9   4   2  290.92   10.53
  -9   4  -2  296.26    8.83
  -4   9  -2  300.32   11.40
  -4   9   2  295.82    8.70
   4   9  -2  288.45   14.77
  -4  -9   2  288.39   15.54
  -4  -9  -2  274.53    9.83
  -9  -4   2  314.87   15.84
  -9  -4  -2  265.99   10.16
   4   9  -3  158.99   13.42
   4  -9  -3  174.33   15.72
   9   4  -3  195.25   18.69
   9  -4  -3  175.26   15.86
   4  -9   3  171.96   14.46
   9  -4   3  172.23   15.32
   9   4   3  179.53   20.20
   4   9   3  186.08   15.55
  -9   4  -3  169.91   15.20
  -4   9  -3  197.15   17.68
  -4   9   3  165.23   13.87
   4   9  -3  175.00   20.21
  -4  -9   3  183.36   19.39
  -4  -9  -3  169.92   18.54
  -9  -4   3  185.14   22.03
  -9  -4  -3  170.60   15.33
   4   9  -4   63.45    6.74
   4  -9  -4  163.90   15.76
   9   4  -4   72.18   15.81
   9  -4  -4   79.64   10.98
   9  -4   4   58.33   13.79
   4  -9   4   69.16   12.14
   9   4   4   97.98   20.76
   4   9   4   67.83    9.85
  -9  -4  -4   72.46   13.50
  -9   4  -4   81.49   10.37
  -4   9  -4   73.89    9.46
  -4   9   4   78.67    7.03
   4   9  -4   67.80   11.93
  -4  -9   4   74.21   15.63
  -4  -9  -4   87.74   13.76
  -9  -4   4   89.27   19.44
  -9  -4  -4   87.98   15.31
   4   9  -5  173.46   14.52
   4  -9  -5  203.61   18.67
   9   4  -5  216.13   19.45
   9  -4  -5  202.25   20.09
   9  -4   5  220.82   24.08
   9   4   5  186.09   22.91
   4  -9   5  173.09   16.56
   4   9   5  205.82   18.81
  -9  -4  -5  187.63   16.22
  -9   4  -5  189.37   18.68
  -4   9  -5  199.08   17.31
   4   9  -5  181.34   21.57
  -4   9   5  195.73   16.91
   9   4  -5  206.81   23.99
  -4  -9   5  206.71   18.70
  -4  -9  -5  186.27   19.45
  -9  -4   5  176.43   16.00
  -9  -4  -5  191.80   16.79
   4   9  -6  657.15   25.55
   4  -9  -6  687.31   29.08
   9   4  -6  685.23   29.56
   9  -4  -6  616.03   26.56
   9  -4   6  683.11   31.44
   9   4   6  648.21   29.06
   4  -9   6  637.91   26.02
   4   9   6  703.76   28.47
  -9  -4  -6  691.49   36.56
  -9   4  -6  635.51   26.76
  -4   9  -6  637.86   28.92
   4   9  -6  628.89   34.16
   9   4  -6  705.77   31.43
  -4  -9   6  707.33   28.93
  -4  -9  -6  623.95   27.26
  -9  -4   6  626.27   27.03
  -9  -4  -6  700.21   28.64
   4   9  -7  163.37    9.92
   4  -9  -7  108.14   11.70
   9   4  -7  112.10    7.30
   9  -4  -7  121.32   14.30
   9  -4   7  116.68   15.09
   9   4   7  138.93   11.63
   4  -9   7  141.36   14.95
   4   9   7   90.06    9.44
  -9  -4  -7  113.03    6.66
  -9   4  -7  143.61   15.26
  -4   9  -7  109.64    6.94
   4   9  -7  130.14    9.85
   9   4  -7  113.61   14.77
  -4  -9   7  109.69    7.45
  -4  -9  -7  140.27   12.96
  -9  -4   7  146.21   15.43
  -9  -4  -7  114.70    5.95
   4   9  -8   79.86   14.26
   4  -9  -8   67.93   10.70
   9   4  -8   67.47    7.53
   9  -4  -8   78.93   15.87
   9  -4   8   71.57   13.65
   9   4   8   87.08   18.65
   4  -9   8   73.62   13.07
   4   9   8   65.93   11.63
  -9  -4  -8   70.71   11.21
  -9   4  -8   85.86   16.89
  -4   9  -8   88.49   15.79
   4   9  -8   84.58   18.59
   9   4  -8   68.12   15.97
  -4  -9   8   72.20    7.67
  -4  -9  -8   89.70   11.35
  -9  -4   8   76.20    8.32
  -9  -4  -8   70.88    9.07
   4   9  -9   97.33    9.31
   4  -9  -9  111.98   17.94
   9   4  -9  117.37    8.64
   9  -4  -9   97.63   11.66
   9  -4   9  110.81   17.30
   9   4   9   93.93   17.37
   4  -9   9  100.34   13.59
   4   9   9   98.03   10.93
  -4  -9  -9   99.62   20.04
  -9  -4  -9  110.94   20.15
  -9   4  -9  119.83    9.98
  -4   9  -9  114.56   19.86
   4   9  -9   94.51   18.93
   9   4  -9  112.44   21.52
  -4  -9   9  110.84    7.57
  -4  -9  -9  110.32    9.65
  -9  -4   9   99.00    8.90
  -9  -4  -9  108.43   14.69
   4   9 -10  408.77   11.82
   4  -9 -10  425.84   14.48
   9   4 -10  435.62   13.01
   9  -4 -10  437.12   24.91
   9  -4  10  429.19   15.34
   9   4  10  438.05   14.53
   4  -9  10  399.64   16.34
   4   9  10  435.91   12.80
  -4  -9 -10  433.38   18.03
  -9  -4 -10  445.11   14.10
  -9   4 -10  427.44   15.01
  -4   9 -10  409.23   16.52
   4   9 -10  401.05   17.94
   9   4 -10  457.56   13.58
  -4  -9  10  435.55   16.50
  -4  -9 -10  430.83   15.31
  -9  -4  10  443.91   11.81
  -9  -4 -10  423.77   10.77
   4   9 -11   22.94    4.57
   4  -9 -11   23.46    4.71
   9  -4 -11   18.14    6.95
   9  -4  11   21.73    4.87
   9   4  11   14.53    5.24
   4  -9  11   20.21    4.05
   4   9  11    7.98    2.87
  -4  -9 -11   21.60    4.76
  -9  -4 -11   17.64    5.33
  -9   4 -11   31.16    6.23
  -4   9 -11   18.66    7.70
   4   9 -11   17.42    8.03
   9   4 -11   20.78    5.02
  -4  -9  11   23.15    5.83
  -4  -9 -11   17.46    4.12
  -9  -4  11   15.87    5.27
  -9  -4 -11   19.13    4.49
   4   9 -12   31.61    7.91
   4  -9 -12   22.90    3.45
   9   4 -12   27.95    5.87
   9  -4 -12   41.20    6.17
   9  -4  12   35.24    7.91
   9   4  12   33.45    8.41
   4  -9  12   27.59    4.87
   4   9  12   21.62    7.07
  -4  -9 -12   40.38    7.84
  -9  -4 -12   32.21    5.60
  -9   4 -12   27.04    4.80
  -4   9 -12   13.88    3.93
   4   9 -12   13.87    8.25
   9   4 -12   20.63    5.37
  -4  -9  12   21.14    5.79
  -9  -4 -12   20.18    6.49
   4   9 -13   16.73    4.92
   4  -9 -13   20.59    5.33
   9   4 -13   19.42    3.40
   9  -4 -13   12.43    5.43
   9  -4  13   12.73    3.83
   9   4  13   19.44    3.60
   4  -9  13   11.25    4.20
   4   9  13   12.20    4.42
  -4  -9 -13   15.89    4.51
  -9  -4 -13   17.29    4.85
  -9   4 -13   13.10    5.60
  -4   9 -13   24.89    6.71
   4   9 -13   25.41    5.75
   9   4 -13   18.89    4.87
   4   9 -14   24.88    7.61
   4  -9 -14   34.22    9.05
   9   4 -14   27.01    4.46
   9  -4 -14   30.22    8.90
   9  -4  14   32.12    6.59
   9   4  14   24.03    6.71
   4  -9  14    8.65    5.64
   4   9  14    9.61    5.00
  -4  -9 -14   14.80    3.60
  -9  -4 -14   30.19    8.89
  -4   9 -14   27.49    6.97
   4   9 -14   32.51    6.51
   9   4 -14   21.54    6.32
   4   9 -15    0.84    2.99
   4  -9 -15    5.63    2.93
   9   4 -15    0.34    2.00
   9  -4 -15    5.90    5.33
   9  -4  15    8.83    6.39
   9   4  15    6.84    3.80
   4  -9  15    4.56    3.95
   4   9  15    2.11    3.14
  -4  -9 -15   24.41   13.43
  -9  -4 -15    6.98    5.15
  -9   4 -15    6.15    4.10
  -4   9 -15    6.51    3.44
   4   9 -15    7.32    4.38
   9   4 -15    6.26    4.95
   4  -9 -16   16.45    4.11
   9   4 -16   12.84    5.57
   9  -4 -16    7.05    6.56
   9  -4  16   11.12    5.62
   9   4  16    7.47    4.08
   4  -9  16    4.70    2.66
   4   9  16   11.40    4.62
  -4  -9  16    5.69    2.31
  -4  -9 -16   21.32    7.51
  -9  -4 -16   11.82    4.67
  -9   4 -16   10.55    3.59
  -4   9 -16    8.50    3.41
   9   4 -16    7.65    3.48
   4   9 -16   11.45    5.98
   4  -9 -17    2.56    2.28
   9   4 -17    9.80    3.84
   9  -4 -17    6.04    2.20
   9  -4  17    0.48    4.01
   9   4  17    4.52    3.19
   4  -9  17    9.06    5.74
   4   9  17    3.32    3.51
  -4  -9  17    2.76    3.29
  -4  -9 -17    4.60    1.87
  -9  -4 -17   -2.42    4.03
  -9   4 -17    6.77    4.30
  -4   9 -17   -0.54    4.51
   9   4 -17    4.07    4.58
   4   9 -17    4.78    7.24
   4  -9 -18   47.52   13.83
   9   4 -18   64.98   13.58
   9  -4 -18   65.46   13.63
   9  -4  18   70.77   12.19
   9   4  18   59.04   18.23
   4  -9  18   41.88   14.71
   4   9  18   36.03   14.46
  -4  -9 -18   64.94   16.08
  -9  -4 -18   54.79   10.72
  -9   4 -18   68.13   10.13
  -4   9 -18   55.24    9.16
   4   9 -18   53.28   18.14
   4  -9 -19   12.56    6.55
   9   4 -19    5.29    4.45
   9  -4 -19   16.80    4.86
   9  -4  19   13.76    5.31
   9   4  19   22.07    7.79
   4   9  19    8.30    6.17
  -4  -9 -19    9.55    6.07
  -9  -4 -19   17.99    5.24
  -9   4 -19   15.72    5.82
  -4   9 -19   19.65    8.83
   4   9 -19   13.76    6.26
   4  -9 -20    3.56    3.43
   4  -9  20    6.39    3.96
   4   9  20   11.61    4.84
   5   9   0   47.93    7.27
   5  -9   0   49.03    8.99
   9  -5   0   65.39   15.20
   9   5   0   49.81   11.37
  -9   5   0   50.09    5.33
  -5   9   0   54.26    7.43
  -5  -9   0   64.80   17.64
  -9  -5   0   54.88   10.43
   5   9  -1  172.28   14.02
   5  -9  -1  238.14    5.89
   5   9   1  222.60   18.50
   9   5  -1  225.22   22.09
   9  -5  -1  170.34   15.33
   5  -9   1  184.90   15.70
   9  -5   1  228.51   12.01
   9   5   1  167.59   15.98
  -9   5  -1  186.83   17.17
  -5   9  -1  215.33   19.26
  -5   9   1  186.19   16.01
  -5  -9   1  200.86   20.62
  -5  -9  -1  184.77   18.36
  -9  -5   1  177.49   16.14
  -9  -5  -1  215.11   18.59
   5   9  -2  241.11    3.68
   5  -9  -2  216.41   18.18
   9   5  -2  213.81   18.64
   9  -5  -2  230.57   10.24
   5  -9   2  218.45   18.21
   5   9   2  211.10   17.50
   9  -5   2  201.98   21.52
   9   5   2  224.91   22.41
  -9   5  -2  235.73    6.63
  -5   9  -2  218.50   20.11
  -5   9   2  224.66   18.50
  -5  -9   2  205.32   20.47
  -5  -9  -2  224.80   21.50
  -9  -5   2  229.10    7.83
  -9  -5  -2  223.72   24.84
   5   9  -3  369.86    7.35
   5  -9  -3  357.08   12.22
   9   5  -3  354.68   15.38
   9  -5  -3  379.16   20.34
   5  -9   3  380.54    8.45
   9   5   3  399.86   10.40
   5   9   3  360.73    8.03
  -9   5  -3  383.11    8.67
  -5   9  -3  352.68    8.15
  -5   9   3  403.41    6.37
   5   9  -3  374.57   10.69
  -5  -9   3  342.29    9.18
  -5  -9  -3  373.11   13.07
  -9  -5   3  395.27   17.47
  -9  -5  -3  374.79   15.72
   5   9  -4  239.43    5.42
   5  -9  -4  238.98    8.13
   9   5  -4  244.43    9.69
   9  -5  -4  256.62    9.98
   5  -9   4  243.00   10.72
   9  -5   4  246.02   11.44
   9   5   4  231.00   10.08
   5   9   4  260.13    6.19
  -9   5  -4  236.25   13.02
  -5   9  -4  262.16    9.27
   5   9  -4  232.73   11.13
  -5  -9   4  247.53    7.51
  -5  -9  -4  230.84    7.38
  -9  -5   4  241.71   10.73
  -9  -5  -4  266.04    9.90
   5   9  -5   37.37    7.94
   5  -9  -5   60.99    8.38
   9   5  -5   58.55    9.87
   9  -5  -5   55.00    9.56
   9  -5   5   60.06   10.17
   5  -9   5   50.98    9.53
   9   5   5   46.99    5.61
   5   9   5   54.70    6.15
  -9  -5  -5   54.60   13.14
  -9   5  -5   50.88    9.53
  -5   9  -5   66.91    9.25
   5   9  -5   58.33   11.23
   9   5  -5   52.19    9.39
  -5  -9   5   64.59   10.51
  -5  -9  -5   49.19    9.69
  -9  -5   5   43.32    7.84
  -9  -5  -5   56.18    9.41
   5   9  -6   19.26    4.40
   5  -9  -6   20.48    3.97
   9   5  -6   26.51    4.45
   9  -5  -6   20.03    5.79
   9  -5   6   25.62    4.25
   5  -9   6   14.49    3.37
   9   5   6   23.61    4.67
   5   9   6   20.41    3.30
  -9  -5  -6   31.70    5.01
  -9   5  -6   26.85    6.70
  -5   9  -6   22.80    5.12
   5   9  -6   15.09    5.11
   9   5  -6   14.65    4.93
  -5  -9   6   22.51    4.82
  -5  -9  -6   24.91    3.57
  -9  -5   6   26.20    6.00
  -9  -5  -6   26.52    5.47
   5   9  -7  203.51   10.46
   5  -9  -7  236.91   12.58
   9   5  -7  228.99   10.37
   9  -5  -7  216.71   12.59
   9  -5   7  239.65    8.68
   9   5   7  226.26    8.61
   5  -9   7  213.63    8.53
   5   9   7  227.69    8.14
  -9  -5  -7  237.01    9.79
  -9   5  -7  198.52    9.25
  -5   9  -7  226.27   11.58
   5   9  -7  208.46   20.92
   9   5  -7  245.38    9.80
  -5  -9   7  234.50   11.09
  -5  -9  -7  217.83   14.18
  -9  -5   7  226.38   14.56
  -9  -5  -7  246.62    8.93
   5   9  -8  210.58   12.80
   5  -9  -8  185.69   11.27
   9   5  -8  180.89   11.86
   9  -5  -8  218.67   11.15
   9  -5   8  198.58   14.53
   9   5   8  212.57   13.23
   5  -9   8  210.04   14.95
   5   9   8  193.68   11.12
  -9   5  -8  220.10   11.86
  -5   9  -8  192.72   11.53
   5   9  -8  231.08   20.73
   9   5  -8  184.09   20.97
  -5  -9   8  192.87    9.78
  -5  -9  -8  227.29   16.30
  -9  -5   8  203.42   11.24
  -9  -5  -8  188.18   11.57
   5   9  -9  202.91   14.54
   5  -9  -9  211.40   17.54
   9   5  -9  218.50   13.84
   9  -5  -9  204.52   19.60
   9  -5   9  210.12   13.28
   9   5   9  201.06   21.63
   5  -9   9  197.72   11.19
   5   9   9  207.16   12.66
  -5  -9  -9  204.05   10.99
  -9  -5  -9  208.52   16.45
  -9   5  -9  204.87   12.06
  -5   9  -9  232.78   17.52
   5   9  -9  210.86   17.26
   9   5  -9  203.01   23.81
  -5  -9   9  222.90   13.79
  -5  -9  -9  218.85   14.66
  -9  -5   9  206.55   10.33
  -9  -5  -9  216.72   14.56
   5   9 -10   75.27   13.81
   5  -9 -10   71.52   13.03
   9   5 -10   76.30   12.57
   9  -5 -10   66.69   13.30
   9  -5  10   61.84   11.81
   9   5  10   77.98    8.72
   5  -9  10   72.64   11.16
   5   9  10   68.31   12.65
  -5  -9 -10   68.61   12.05
  -9  -5 -10   83.03    9.85
  -9   5 -10   65.41   15.74
  -5   9 -10   78.69   13.21
   5   9 -10   73.68   17.59
   9   5 -10   59.38   10.68
  -5  -9  10   70.19   11.03
  -5  -9 -10   73.30   10.26
  -9  -5  10   81.34    9.21
  -9  -5 -10   70.11   12.93
   5   9 -11   50.93   11.46
   5  -9 -11   41.78    7.73
   9   5 -11   54.15   10.70
   9  -5 -11   56.75    8.39
   9  -5  11   45.68   14.27
   9   5  11   61.47   12.88
   5  -9  11   48.74    9.89
   5   9  11   45.23   10.44
  -5  -9 -11   60.57   12.34
  -9  -5 -11   60.50    9.59
  -9   5 -11   59.21   13.02
  -5   9 -11   47.67    8.70
   5   9 -11   40.86    7.85
   9   5 -11   42.55    7.64
  -5  -9  11   41.36    8.82
  -5  -9 -11   58.75    7.72
  -9  -5  11   63.15    8.34
  -9  -5 -11   53.27    8.86
   5   9 -12   50.91    9.39
   5  -9 -12   73.13   10.13
   9   5 -12   68.23   11.14
   9  -5 -12   62.48    9.37
   9  -5  12   69.82   14.18
   9   5  12   52.23   12.51
   5  -9  12   62.28    8.65
   5   9  12   47.49   17.53
  -5  -9 -12   50.81    9.80
  -9  -5 -12   59.12   10.38
  -9   5 -12   55.69   11.91
  -5   9 -12   58.15   10.06
   5   9 -12   52.09    9.57
   9   5 -12   56.26    9.53
  -9  -5 -12   51.15    9.02
   5   9 -13   69.28   13.88
   5  -9 -13   89.95   13.45
   9   5 -13   99.11   16.34
   9  -5 -13   74.60   12.99
   9  -5  13   98.61   21.44
   9   5  13   76.73   11.98
   5  -9  13   59.15   12.67
   5   9  13   70.45   17.77
  -5  -9 -13   67.69   14.86
  -9  -5 -13   95.98   15.99
  -9   5 -13   81.98    9.69
  -5   9 -13   92.34   15.41
   5   9 -13   70.03   18.38
   9   5 -13   80.10   16.14
   5   9 -14    5.34    3.86
   5  -9 -14   -0.26    3.44
   9   5 -14    2.57    4.14
   9  -5 -14    5.15    3.51
   9  -5  14    2.30    3.32
   9   5  14    3.91    3.43
   5  -9  14    5.02    4.43
   5   9  14    4.41    3.57
  -5  -9 -14   10.97    3.39
  -9  -5 -14   -0.44    2.95
  -9   5 -14    6.00    2.53
  -5   9 -14    8.48    5.55
   5   9 -14    6.23    3.79
   9   5 -14    7.44    5.31
   5   9 -15   59.65   14.01
   5  -9 -15   84.87   14.07
   9   5 -15   81.82   15.18
   9  -5 -15   77.28   13.25
   9  -5  15   72.76   18.86
   9   5  15   73.57   20.51
   5  -9  15   62.18   13.73
   5   9  15   62.04   17.83
  -5  -9 -15   71.27   12.18
  -9  -5 -15  102.21   22.32
  -9   5 -15   70.76   18.67
  -5   9 -15   75.53   17.95
   5   9 -15   82.79   20.91
   9   5 -15   70.73   15.40
   5   9 -16    5.62    2.56
   5  -9 -16    7.60    2.55
   9   5 -16    7.98    3.41
   9  -5 -16   16.64    5.95
   9  -5  16   11.34    2.76
   9   5  16    5.97    5.49
   5  -9  16   14.17    5.16
   5   9  16    9.14    4.63
  -5  -9 -16    8.44    4.81
  -9  -5 -16   11.34    4.74
  -9   5 -16   22.15    5.27
  -5   9 -16    1.91    2.92
   5   9 -16    7.69    8.74
   9   5 -16    1.93    3.20
   5  -9 -17   19.82    5.94
   9   5 -17   22.56    6.94
   9  -5 -17   29.72    5.27
   9  -5  17   12.31    6.73
   9   5  17   13.94    7.05
   5  -9  17   18.15    5.47
   5   9  17   16.23    8.60
  -5  -9 -17   78.60   39.22
  -9  -5 -17   15.93    5.44
  -9   5 -17   24.70    6.40
  -5   9 -17   22.80    7.57
   9   5 -17   18.80    5.94
   5   9 -17   14.10    7.72
   5  -9 -18    2.52    3.96
   9   5 -18   -0.64    3.96
   9  -5 -18    5.16    3.05
   9  -5  18    3.15    4.89
   9   5  18    6.70    6.35
   5  -9  18    3.98    4.55
   5   9  18    1.98    3.61
  -5  -9 -18    8.13    9.55
  -9  -5 -18    7.70    3.96
  -9   5 -18    1.63    3.27
  -5   9 -18    5.55    4.05
   9   5 -18    5.66    4.30
   5   9 -18   11.95    5.81
   5  -9 -19   23.34    5.50
   9   5 -19  109.79   47.21
   9  -5 -19   25.52    5.31
   9  -5  19   23.18   10.42
   9   5  19    9.77    7.27
   5  -9  19   20.97    7.54
   5   9  19   21.97    6.26
  -5  -9 -19   74.77   23.88
  -9  -5 -19   22.82    8.54
  -9   5 -19   22.59    7.93
  -5   9 -19   64.52   21.05
   5   9 -19   16.89    9.63
   5  -9  20    4.37    3.84
   5   9  20   -0.09    3.15
  -5  -9 -20    3.26    3.44
   6   9   0 1498.50   22.09
   6  -9   0 1415.20   25.68
   9   6   0 1375.21   34.03
   9  -6   0 1433.31   29.25
  -9   6   0 1375.63   18.43
  -6   9   0 1432.35   19.74
  -6  -9   0 1439.23   30.32
  -9  -6   0 1413.45   26.36
   6   9  -1  259.74    6.62
   6  -9  -1  261.91    9.93
   9   6  -1  242.33    8.04
   9  -6  -1  247.77   11.45
   6   9   1  257.14    6.18
   6  -9   1  244.33   11.03
   9  -6   1  260.78    9.41
   9   6   1  234.21   17.98
  -9   6  -1  253.05    9.30
  -6   9   1  252.13    6.21
  -6   9  -1  245.70    8.98
  -6  -9   1  270.45   13.11
  -6  -9  -1  256.69   16.91
  -9  -6   1  234.54    8.04
  -9  -6  -1  251.79   12.18
   6   9  -2  349.76   15.80
   6  -9  -2  333.97   17.17
   9   6  -2  358.46   17.02
   9  -6  -2  344.93   15.68
   6  -9   2  347.24   16.44
   6   9   2  364.12   14.95
   9  -6   2  338.30   16.00
   9   6   2  323.26   18.13
  -9   6  -2  331.97   15.05
  -6   9  -2  359.88   16.62
  -6  -9   2  341.22   15.31
  -6  -9  -2  360.14   15.83
  -9  -6   2  340.06   15.17
  -9  -6  -2  338.29   17.55
   6   9  -3    5.32    2.45
   6  -9  -3   24.54    3.13
   9   6  -3   15.50    4.67
   9  -6  -3    6.33    4.95
   6  -9   3   12.04    2.71
   9  -6   3   14.24    5.34
   9   6   3    8.77    4.06
   6   9   3   15.29    3.53
  -9   6  -3    7.94    3.07
  -6   9  -3   22.67    4.01
   6   9  -3   14.67    4.60
  -6  -9   3   12.17    3.14
  -6  -9  -3   10.77    4.13
  -9  -6   3    8.68    3.77
  -9  -6  -3   22.12    3.94
   6   9  -4  702.00   27.38
   6  -9  -4  701.30   31.69
   9   6  -4  730.75   29.27
   9  -6  -4  696.50   29.14
   6  -9   4  715.70   30.58
   9  -6   4  733.84   33.89
   9   6   4  718.14   29.51
   6   9   4  718.63   30.33
  -9   6  -4  691.49   27.17
  -6   9  -4  701.10   30.18
   6   9  -4  683.40   37.90
  -6  -9   4  743.50   31.35
  -6  -9  -4  680.74   30.46
  -9  -6   4  720.61   30.70
  -9  -6  -4  710.37   32.46
   6   9  -5  211.47   10.59
   6  -9  -5  188.84   12.30
   9   6  -5  187.69   11.31
   9  -6  -5  196.53   16.61
   9  -6   5  198.28   10.56
   6  -9   5  204.07   16.22
   9   6   5  225.67   12.92
   6   9   5  184.92   11.01
  -9   6  -5  217.39   12.19
  -6   9  -5  187.45   10.99
   6   9  -5  248.77   27.23
   9   6  -5  182.14   19.60
  -6  -9   5  195.77   11.46
  -6  -9  -5  217.31   13.68
  -9  -6   5  221.20   12.78
  -9  -6  -5  185.25   10.13
   6   9  -6   21.39    5.57
   6  -9  -6   31.32    7.27
   9   6  -6   33.07    6.76
   9  -6  -6   32.26    5.10
   9  -6   6   36.86    7.39
   6  -9   6   22.74    4.85
   9   6   6   25.21    5.14
   6   9   6   35.98    5.47
  -9  -6  -6   35.38    7.22
  -9   6  -6   23.62    4.36
  -6   9  -6   30.26    6.84
   6   9  -6   35.26    7.08
   9   6  -6   44.25    8.98
  -6  -9   6   31.77    5.60
  -6  -9  -6   31.79    5.28
  -9  -6   6   32.89    5.43
  -9  -6  -6   37.68    7.49
   6   9  -7   24.82    4.77
   6  -9  -7   31.58    6.16
   9   6  -7   22.49    4.24
   9  -6  -7   19.54    4.31
   9  -6   7   18.51    5.32
   6  -9   7   19.25    4.66
   9   6   7   25.43    5.95
   6   9   7   23.38    3.47
  -9  -6  -7   27.74    7.27
  -9   6  -7   23.96    4.87
  -6   9  -7   31.15    5.08
   6   9  -7   21.09    6.31
   9   6  -7   24.47    5.45
  -6  -9   7   32.43    5.67
  -6  -9  -7   19.30    4.77
  -9  -6   7   21.49    4.08
  -9  -6  -7   30.03    6.09
   6   9  -8   79.04    6.47
   6  -9  -8   68.13   11.01
   9   6  -8   78.82    7.05
   9  -6  -8   60.07    5.61
   9  -6   8   61.09   12.25
   6  -9   8   69.44   13.64
   9   6   8   67.31   12.81
   6   9   8   50.46    9.59
  -9  -6  -8   67.72   13.81
  -9   6  -8   64.10   10.56
  -6   9  -8   70.24   12.89
   6   9  -8   60.49   11.50
   9   6  -8   76.34    9.47
  -6  -9   8   71.14    7.26
  -6  -9  -8   68.78   10.85
  -9  -6   8   72.03    7.93
  -9  -6  -8   63.96    9.72
   6   9  -9  152.73   14.73
   6  -9  -9  139.30   14.94
   9   6  -9  150.76   20.61
   9  -6  -9  144.64   17.61
   9  -6   9  145.60   24.04
   6  -9   9  145.75   13.91
   9   6   9  155.73    7.29
   6   9   9  135.38   13.88
  -6  -9  -9  151.26   16.82
  -9  -6  -9  137.81   21.78
  -9   6  -9  156.08   11.67
  -6   9  -9  148.51    8.50
   6   9  -9  161.05   17.11
   9   6  -9  144.46   19.34
  -6  -9   9  160.43    7.35
  -6  -9  -9  159.06   19.44
  -9  -6   9  148.75    7.31
  -9  -6  -9  165.10   12.25
   6   9 -10  126.50   12.38
   6  -9 -10  134.90   20.04
   9   6 -10  131.27   10.66
   9  -6 -10  111.70   19.02
   9  -6  10  122.64   12.20
   6  -9  10  128.26    8.04
   9   6  10  115.71   11.87
   6   9  10  126.58    9.17
  -6  -9 -10  136.36   22.63
  -9   6 -10  136.76   14.11
  -6   9 -10  130.68   14.72
   6   9 -10  117.82   21.00
   9   6 -10  110.87   22.14
  -6  -9  10  132.57    6.36
  -6  -9 -10  141.32   12.98
  -9  -6  10  117.85    7.35
  -9  -6 -10  132.91   10.60
   6   9 -11   53.66   11.79
   6  -9 -11   51.35    8.91
   9   6 -11   48.50    7.93
   9  -6 -11   54.84   11.24
   9  -6  11   62.74   14.19
   6  -9  11   48.67   10.88
   9   6  11   48.86   11.26
   6   9  11   43.37   13.35
  -6  -9 -11   61.65   11.94
  -9  -6 -11   58.91   10.61
  -9   6 -11   47.26   10.91
  -6   9 -11   63.22    6.41
   6   9 -11   50.04   10.22
   9   6 -11   54.93   10.89
  -6  -9  11   47.17    9.83
  -6  -9 -11   49.74    7.14
  -9  -6  11   55.18    8.31
  -9  -6 -11   44.75   10.20
   6   9 -12  379.18   13.18
   6  -9 -12  278.73   36.79
   9   6 -12  295.43   27.12
   9  -6 -12  306.78   33.44
   9  -6  12  301.31   31.78
   6  -9  12  287.83   24.38
   9   6  12  294.12   27.46
   6   9  12  277.69   24.94
  -6  -9 -12  317.52   10.96
  -9  -6 -12  319.53   16.68
  -9   6 -12  311.77   20.33
  -6   9 -12  280.61   24.92
   6   9 -12  277.66   38.66
   9   6 -12  265.16   42.52
  -9  -6 -12  299.30   26.42
   6   9 -13   13.81    2.85
   6  -9 -13   19.30    3.99
   9   6 -13   10.41    3.84
   9  -6 -13   11.81    4.28
   9  -6  13    5.23    3.04
   6  -9  13   11.37    4.04
   9   6  13    6.32    2.78
   6   9  13   11.63    2.96
  -6  -9 -13   15.49    4.08
  -9  -6 -13    9.50    2.42
  -9   6 -13    9.37    3.18
  -6   9 -13    5.64    2.58
   6   9 -13   15.67    6.21
   9   6 -13    8.98    3.07
   6   9 -14    3.25    2.81
   6  -9 -14   10.57    3.95
   9   6 -14   11.95    3.19
   9  -6 -14   13.17    3.19
   9  -6  14    6.69    4.06
   6  -9  14    5.91    5.24
   9   6  14    4.27    5.29
   6   9  14    3.84    2.83
  -6  -9 -14    5.14    2.02
  -9  -6 -14   11.54    4.53
  -9   6 -14   13.37    7.09
  -6   9 -14   13.37    5.90
   6   9 -14    7.09    6.02
   9   6 -14    5.94    4.15
   6   9 -15   -1.70    3.02
   6  -9 -15    3.79    1.82
   9   6 -15   17.50    4.79
   9  -6 -15    4.70    3.31
   9  -6  15    1.93    3.80
   6  -9  15    6.96    3.93
   9   6  15    0.68    2.64
   6   9  15    3.95    3.00
  -9  -6 -15    3.91    2.75
  -9   6 -15    2.89    3.33
  -6   9 -15    0.01    3.08
   9   6 -15    5.68    4.15
   6   9 -15    1.92    3.23
   6   9 -16   37.57    9.04
   6  -9 -16   42.00    8.89
   9   6 -16   45.16    9.52
   9  -6 -16   51.46    7.55
   9  -6  16   44.35   13.41
   9   6  16   52.58   11.36
   6  -9  16   41.16   10.72
   6   9  16   39.72   11.92
  -6  -9 -16   44.16   10.00
  -9  -6 -16   62.51   11.15
  -9   6 -16   40.33   12.44
  -6   9 -16   45.43   11.88
   9   6 -16   87.55    8.80
   6   9 -16   39.01   16.11
   6  -9 -17    8.20    5.55
   9   6 -17    4.42    5.03
   9  -6 -17    2.24    2.95
   9  -6  17    5.53    3.53
   6  -9  17    7.35    5.05
   9   6  17    8.50    5.47
   6   9  17    0.85    3.00
  -6  -9 -17    6.59    4.78
  -9  -6 -17    9.80    5.42
  -9   6 -17    3.60    2.67
  -6   9 -17   15.86   13.16
   9   6 -17    6.73    3.79
   6   9 -17   16.55    5.02
   6  -9 -18    2.16    2.72
   9   6 -18    4.48    3.64
   9  -6 -18   -1.80    4.38
   9  -6  18    2.60    4.43
   6  -9  18    5.96    4.69
   9   6  18    8.29    5.63
   6   9  18   -0.66    3.54
  -6  -9 -18    2.82    4.49
  -9  -6 -18    1.02    4.36
  -9   6 -18   10.23    4.91
  -6   9 -18   10.19    5.22
   9   6 -18    4.09    3.54
   6   9 -18   -2.80    4.60
   6  -9 -19    3.64    2.46
   9   6 -19    3.37    2.84
   9  -6  19   10.96    6.42
   6  -9  19    7.62    5.19
   9   6  19    9.56    6.22
   6   9  19    9.12    3.23
  -6  -9 -19    8.40    3.11
   9   6 -19    5.41    2.59
   6   9 -19    8.25    4.73
   7   9   0   74.76    8.91
   7  -9   0   90.11   10.52
   9   7   0   87.78    6.01
   9  -7   0   84.42   11.91
  -9   7   0   64.17    6.23
  -7   9   0   75.90    4.59
  -7  -9   0   87.09   13.55
  -9  -7   0   95.24   16.38
   7   9  -1  148.68   12.89
   7  -9  -1  154.67    8.64
   9   7  -1  147.71   15.55
   9  -7  -1  153.15   11.50
   7   9   1  164.30    9.48
   7  -9   1  156.47   13.24
   9  -7   1  157.59   13.09
   9   7   1  147.72   14.55
  -9   7  -1  144.45   13.41
  -7   9  -1  165.02    9.03
  -7  -9   1  136.92   13.37
  -7  -9  -1  174.90   18.73
  -9  -7   1  156.49    8.80
  -9  -7  -1  151.00    8.80
   7   9  -2   65.83    8.44
   7  -9  -2   85.77   14.47
   9   7  -2   82.42   13.71
   9  -7  -2   77.21   13.13
   7  -9   2   79.73   11.70
   7   9   2   74.21   10.66
   9  -7   2   91.99   11.18
   9   7   2   67.31   12.53
  -9   7  -2   72.38    7.76
  -7   9  -2   76.91   11.38
  -7  -9   2   84.30   17.13
  -7  -9  -2   60.82    8.91
  -9  -7   2   82.88   12.32
  -9  -7  -2   84.55   11.98
   7   9  -3  219.47    9.96
   7  -9  -3  169.63   13.72
   9   7  -3  182.05   17.34
   9  -7  -3  222.48   11.57
   7  -9   3  204.59   14.48
   9  -7   3  175.88    9.03
   7   9   3  180.04   12.47
   9   7   3  198.95   11.26
  -9   7  -3  223.49   12.29
  -7   9  -3  176.56   10.40
  -7  -9   3  191.27   11.43
  -7  -9  -3  211.89   11.94
  -9  -7   3  201.18   11.42
  -9  -7  -3  187.13   16.61
   7   9  -4   16.22    4.61
   7  -9  -4   10.88    5.48
   9   7  -4   10.97    3.82
   9  -7  -4   25.15    5.57
   7  -9   4   19.26    4.87
   9  -7   4   51.26   11.10
   9   7   4   24.56    4.71
   7   9   4   12.31    3.18
  -9   7  -4   17.86    3.39
  -7   9  -4   19.45    3.42
   7   9  -4   13.46    6.65
  -7  -9   4    8.44    2.53
  -7  -9  -4   13.43    5.00
  -9  -7   4   24.05    5.42
  -9  -7  -4   17.50    6.04
   7   9  -5  218.48    9.48
   7  -9  -5  234.47   12.28
   9   7  -5  233.70   10.69
   9  -7  -5  202.07   14.91
   7  -9   5  201.69   14.35
   9  -7   5  242.84   16.77
   9   7   5  224.95    8.30
   7   9   5  240.70    8.64
  -9   7  -5  203.72   12.15
  -7   9  -5  249.15    8.61
   7   9  -5  213.93   20.29
   9   7  -5  233.64   25.13
  -7  -9   5  242.73    8.33
  -7  -9  -5  198.55   19.32
  -9  -7   5  219.26    8.19
  -9  -7  -5  239.90    9.58
   7   9  -6   57.61   10.94
   7  -9  -6   69.40    6.41
   9   7  -6   65.71   12.39
   9  -7  -6   52.12   11.04
   9  -7   6   72.15   13.04
   7  -9   6   65.96   12.08
   9   7   6   49.93   12.21
   7   9   6   66.57    8.18
  -9   7  -6   55.92   10.76
  -7   9  -6   70.10    5.78
   7   9  -6   58.21    7.52
   9   7  -6   76.35   11.71
  -7  -9   6   81.94    8.58
  -7  -9  -6   61.82   10.77
  -9  -7   6   46.40   12.43
  -9  -7  -6   66.34    8.97
   7   9  -7  227.50   11.94
   7  -9  -7  243.21   14.23
   9   7  -7  220.81   16.25
   9  -7  -7  216.33   17.07
   9  -7   7  225.98   16.91
   7  -9   7  229.11   12.75
   9   7   7  231.39   19.40
   7   9   7  229.34   11.72
  -9  -7  -7  239.75   19.22
  -9   7  -7  224.69   16.60
  -7   9  -7  229.62   12.72
   7   9  -7  232.97   33.15
   9   7  -7  222.29   13.27
  -7  -9   7  237.41   11.88
  -7  -9  -7  235.35   13.46
  -9  -7   7  228.29   18.15
  -9  -7  -7  231.32   17.06
   7   9  -8  339.28   13.27
   7  -9  -8  369.15   17.41
   9   7  -8  351.13   15.43
   9  -7  -8  348.65   10.98
   9  -7   8  352.27   19.45
   7  -9   8  344.26   13.31
   9   7   8  305.82   11.31
   7   9   8  383.92    9.63
  -9  -7  -8  377.34   15.35
  -9   7  -8  343.17   17.70
  -7   9  -8  351.54   12.62
   7   9  -8  350.60   19.67
   9   7  -8  385.96   14.28
  -7  -9   8  364.04   13.52
  -7  -9  -8  358.72   10.71
  -9  -7   8  334.32   20.46
  -9  -7  -8  362.12   11.64
   7   9  -9  180.59   17.67
   7  -9  -9  187.30    7.61
   9   7  -9  194.54   25.90
   9  -7  -9  185.87   19.72
   9  -7   9  183.18   18.94
   7  -9   9  164.23   23.84
   9   7   9  186.87   18.99
   7   9   9  194.01   13.39
  -7  -9  -9  201.73   18.79
  -9  -7  -9  261.06   18.51
  -9   7  -9  169.38   14.72
  -7   9  -9  175.11   18.84
   7   9  -9  181.94   30.73
   9   7  -9  204.09   24.36
  -7  -9   9  207.56   12.08
  -7  -9  -9  192.35   15.19
  -9  -7   9  189.92   16.51
  -9  -7  -9  193.41   11.75
   7   9 -10   21.92    4.93
   7  -9 -10   31.29    5.50
   9   7 -10   38.11    8.00
   9  -7 -10   37.02    8.22
   9  -7  10   36.75   10.08
   7  -9  10   27.19    5.19
   9   7  10   28.65    6.48
   7   9  10   26.34    7.45
  -7  -9 -10   32.57    7.83
  -9  -7 -10   33.79    5.89
  -9   7 -10   30.29    5.92
  -7   9 -10   33.46    5.65
   7   9 -10   32.51    7.61
   9   7 -10   29.94    8.50
  -7  -9  10   39.10    5.88
  -7  -9 -10   37.98    6.13
  -9  -7  10   35.07    6.38
  -9  -7 -10   27.17    6.78
   7   9 -11    7.65    3.52
   7  -9 -11   13.14    5.74
   9   7 -11   15.56    6.14
   9  -7 -11    7.53    2.81
   9  -7  11    7.10    3.25
   7  -9  11   18.37    4.90
   7   9  11   10.03    4.34
  -7  -9 -11   12.81    4.31
  -9  -7 -11   18.03    4.83
  -9   7 -11   17.72    5.39
  -7   9 -11   12.36    4.17
   7   9 -11   13.85    5.88
   9   7 -11    7.95    3.90
  -7  -9  11    7.69    3.46
  -7  -9 -11   15.08    2.41
  -9  -7  11   13.82    3.78
  -9  -7 -11    5.40    2.46
   7   9 -12   38.68    8.53
   7  -9 -12   48.46    8.65
   9   7 -12   37.24    6.56
   9  -7 -12   53.62    9.30
   9  -7  12   44.99    7.52
   7  -9  12   41.68   10.43
   9   7  12   47.05    8.63
   7   9  12   46.73   11.74
  -7  -9 -12   62.20    9.38
  -9  -7 -12   70.68   12.73
  -9   7 -12   47.34    9.13
  -7   9 -12   50.24   10.69
   7   9 -12   36.64    9.74
   9   7 -12   38.81    9.72
  -7  -9 -12   42.71    7.65
  -9  -7 -12   31.16   10.50
   7   9 -13   66.45   16.27
   7  -9 -13   74.03   12.67
   9   7 -13   76.33   13.36
   9  -7 -13   99.19   17.85
   9  -7  13   79.63   18.87
   7  -9  13   82.60   22.53
   9   7  13   64.47   18.14
   7   9  13   67.22   18.01
  -7  -9 -13   79.49   16.24
  -9  -7 -13  417.41   70.76
  -9   7 -13   68.31   18.67
  -7   9 -13   76.50   17.82
   7   9 -13   74.41   16.28
   9   7 -13   70.36   15.50
   7   9 -14    8.15    5.51
   7  -9 -14    9.03    4.62
   9   7 -14   20.35    5.93
   9  -7 -14    6.02    3.32
   9  -7  14   10.33    4.72
   7  -9  14    0.50    2.91
   9   7  14    7.01    5.66
   7   9  14    7.17    5.74
  -7  -9 -14    2.22    2.39
  -9  -7 -14    4.29    5.98
  -9   7 -14    7.02    2.74
  -7   9 -14    5.77    4.01
   7   9 -14   13.30    6.49
   9   7 -14    5.05    2.41
   7   9 -15   24.38    6.91
   7  -9 -15   40.88    8.06
   9   7 -15   32.95    5.64
   9  -7 -15   30.07    6.95
   9  -7  15   27.73    5.76
   7  -9  15   25.12    6.57
   9   7  15   23.80    7.69
   7   9  15   20.11    8.50
  -7  -9 -15   32.25    6.59
  -9  -7 -15   39.97   11.04
  -9   7 -15   32.05   10.64
  -7   9 -15   95.75   35.13
   9   7 -15   30.16    9.61
   7   9 -15   30.87    8.26
   9   7 -16    5.45    5.96
   7  -9 -16    5.12    2.93
   9  -7 -16   11.50    3.75
   9  -7  16    3.31    4.18
   7  -9  16    2.81    2.71
   9   7  16   -2.58    3.62
   7   9  16    2.90    1.56
  -7  -9 -16   -0.59    4.16
  -9  -7 -16   -2.39    4.02
  -9   7 -16    1.08    4.06
  -7   9 -16   -0.10    4.04
   9   7 -16    6.48    4.10
   7   9 -16    1.41    4.94
   7  -9 -17    6.62    4.69
   9   7 -17    6.37    3.60
   9  -7 -17    3.42    3.53
   9  -7  17    0.98    2.86
   7  -9  17    2.51    4.24
   9   7  17   -1.35    3.42
   7   9  17    6.34    5.58
  -7  -9 -17    7.87    3.47
  -9  -7 -17    4.97    4.23
  -9   7 -17   10.02    3.84
  -7   9 -17    6.05    4.78
   7   9 -17   -4.03    4.76
   9   7 -17    9.19    3.68
   7  -9 -18    9.06    5.38
   9   7 -18   12.64    7.25
   9  -7 -18    9.54    4.49
   9  -7  18    4.62    3.62
   7  -9  18    4.21    2.80
   9   7  18   -3.56    3.72
   7   9  18    4.44    2.94
  -7  -9 -18    6.78    5.85
  -9  -7 -18    4.72    3.04
  -9   7 -18    3.69    1.75
  -7   9 -18    4.41    3.10
   9   7 -18    2.58    2.14
   7   9 -18    2.68    3.14
   9   7 -19   26.20    5.82
   7  -9 -19   24.59   10.24
   7  -9  19   26.14    8.39
   9   7  19   21.89    7.53
   7   9  19   23.51   11.06
  -7  -9 -19   19.97    6.88
   9   7 -19   26.62    7.88
   8   9   0    3.55    1.51
   8  -9   0    7.03    4.58
   9   8   0    5.45    1.79
   9  -8   0    0.00    3.75
  -8  -9   0    2.49    3.22
  -9  -8   0    6.40    2.68
   8   9  -1  458.85   10.39
   9   8  -1  458.04   13.01
   8  -9  -1  400.57   10.45
   9  -8  -1  432.95   16.24
   8   9   1  429.85   10.87
   8  -9   1  437.41   16.80
   9   8   1  439.21   11.62
   9  -8   1  384.44   22.26
  -8  -9   1  395.09   16.50
  -8  -9  -1  509.90   14.65
  -9  -8   1  490.88   14.48
  -9  -8  -1  437.67   13.14
   8   9  -2    1.04    1.53
   9   8  -2    0.89    1.38
   8  -9  -2   -1.74    3.54
   9  -8  -2    2.62    3.88
   8  -9   2    1.21    3.21
   8   9   2    1.82    1.50
   9  -8   2    4.12    2.49
   9   8   2    6.12    2.11
  -9   8  -2    2.52    1.15
  -8   9  -2    1.44    1.94
  -8  -9   2    2.91    2.53
  -8  -9  -2    6.86    2.73
  -9  -8   2    1.25    3.32
  -9  -8  -2    2.47    2.46
   8   9  -3   30.93    7.92
   9   8  -3   31.79    6.80
   8  -9  -3   39.33    9.19
   9  -8  -3   56.39   10.48
   8  -9   3   45.43    9.09
   9  -8   3   43.39    9.57
   8   9   3   38.87    7.27
   9   8   3   35.91    6.67
  -9   8  -3   38.70    7.06
  -8   9  -3  139.84   24.94
  -8  -9   3   38.95    7.70
  -8  -9  -3   46.87   18.52
  -9  -8   3   53.66    8.22
  -9  -8  -3   50.23    9.47
   8   9  -4    3.98    2.80
   8  -9  -4    5.77    3.09
   9  -8  -4    7.86    4.25
   8  -9   4    3.42    3.05
   9  -8   4   14.40    3.32
   8   9   4    7.91    2.80
   9   8   4    6.71    4.36
  -9   8  -4    5.02    1.64
  -8   9  -4   12.06    2.45
   8   9  -4    7.97    5.32
   9   8  -4   13.27    6.29
  -8  -9   4   12.35    2.76
  -8  -9  -4   14.91    4.32
  -9  -8   4    6.33    2.05
  -9  -8  -4   11.26    5.46
   8   9  -5  205.90   25.67
   9   8  -5   95.19    9.00
   8  -9  -5  109.49   15.80
   9  -8  -5  122.42   17.38
   8  -9   5  119.91   19.37
   9  -8   5   96.58   12.16
   9   8   5   87.34   18.35
   8   9   5   92.62   13.99
  -9   8  -5  103.99   10.31
  -8   9  -5   93.49    7.94
   8   9  -5  111.13   26.02
   9   8  -5   88.30    8.90
  -8  -9   5  100.67   16.14
  -8  -9  -5  117.44   16.66
  -9  -8   5  103.14   10.91
  -9  -8  -5   99.92   16.52
   8   9  -6  585.19   23.73
   9   8  -6  566.17   25.60
   8  -9  -6  606.48   27.93
   9  -8  -6  560.62   32.09
   9  -8   6  557.53   24.73
   8  -9   6  591.39   28.37
   9   8   6  618.37   24.01
   8   9   6  587.14   23.69
  -9   8  -6  600.99   24.78
  -8   9  -6  558.90   21.57
   8   9  -6  621.69   34.69
   9   8  -6  537.98   25.53
  -8  -9   6  608.65   25.30
  -8  -9  -6  613.46   26.35
  -9  -8   6  602.38   29.33
  -9  -8  -6  578.46   24.45
   8   9  -7   92.63   14.51
   9   8  -7   98.77    7.43
   8  -9  -7   87.02   14.82
   9  -8  -7   90.67   18.04
   9  -8   7   81.67   14.71
   8  -9   7   87.80   13.28
   9   8   7   82.16   14.06
   8   9   7   83.62   14.35
  -9   8  -7   97.56   10.82
  -8   9  -7   95.16    8.12
   8   9  -7   90.67   24.13
   9   8  -7  105.68    9.30
  -8  -9   7  106.08   14.38
  -9  -8   7  103.19   13.37
  -8  -9  -7   93.59    9.80
  -9  -8  -7   84.35   14.91
   8   9  -8   71.43   12.85
   9   8  -8   83.36   12.77
   8  -9  -8   65.43    9.87
   9  -8  -8   68.68   16.42
   9  -8   8   75.79   10.75
   8  -9   8   69.26   10.95
   9   8   8   73.12   13.59
   8   9   8   64.29   12.57
  -9   8  -8   73.67    6.43
  -8   9  -8   69.93   11.00
   8   9  -8   73.77   15.85
   9   8  -8   85.11   14.52
  -8  -9   8   81.65   12.46
  -9  -8   8   84.86   12.21
  -8  -9  -8   91.04   13.66
  -9  -8  -8   86.52    7.85
   8   9  -9   15.65    4.46
   9   8  -9   10.11    3.53
   8  -9  -9   15.38    3.66
   9  -8  -9    7.78    2.23
   9  -8   9   -0.13    3.35
   8  -9   9    9.87    1.93
   9   8   9   15.61    4.88
   8   9   9   11.40    3.65
  -9  -8  -9    8.93    4.26
  -9   8  -9   18.75    3.91
  -8   9  -9    2.43    1.84
   8   9  -9    6.61    2.49
   9   8  -9    8.20    7.52
  -8  -9   9    8.44    2.92
  -9  -8   9    4.44    2.59
  -8  -9  -9   16.20    4.08
  -9  -8  -9    7.00    3.79
   8   9 -10  194.92   12.98
   9   8 -10  199.96   16.06
   8  -9 -10  174.16   24.89
   9  -8 -10  196.67   22.40
   9  -8  10  222.37    9.91
   8  -9  10  198.33   14.71
   9   8  10  207.82   12.82
   8   9  10  202.10    9.19
  -8  -9 -10  182.86   17.82
  -9  -8 -10  223.10   24.37
  -8   9 -10  212.10   10.18
   8   9 -10  191.94   28.06
   9   8 -10  189.90   32.66
  -8  -9  10  214.91   14.96
  -9  -8  10  196.45   11.39
  -8  -9 -10  208.28   20.50
  -9  -8 -10  212.48   16.49
   8   9 -11   70.83   13.77
   9   8 -11   62.54   12.82
   8  -9 -11   71.62   11.15
   9  -8 -11   71.17   14.48
   9  -8  11   75.24   15.21
   8  -9  11   61.23   13.88
   9   8  11   67.36   11.57
   8   9  11   65.82   17.96
  -8  -9 -11   71.80   15.74
  -9  -8 -11   80.02   13.80
  -9   8 -11   70.23   14.63
  -8   9 -11   79.68   17.73
   8   9 -11   66.54   16.24
   9   8 -11   74.50   11.12
  -8  -9  11   62.53   12.51
  -9  -8  11   71.89   11.39
  -8  -9 -11   77.53   12.57
  -9  -8 -11   64.99   10.88
   8   9 -12    5.68    2.65
   9   8 -12    4.94    2.51
   8  -9 -12   11.28    3.30
   9  -8 -12   22.14    6.16
   9  -8  12   12.88    4.78
   8  -9  12    7.76    3.70
   9   8  12    5.02    2.69
   8   9  12    2.79    3.06
  -8  -9 -12    8.73    2.80
  -9  -8 -12   10.31    3.39
  -9   8 -12   13.11    5.28
  -8   9 -12   14.16    6.25
   8   9 -12   13.18    7.26
   9   8 -12    4.38    3.44
  -8  -9 -12   12.29    3.02
  -9  -8 -12   14.19    2.85
   8   9 -13   15.32    6.04
   9   8 -13   20.26    5.00
   8  -9 -13   26.10    4.66
   9  -8 -13   36.18    5.70
   9  -8  13   15.37    6.47
   8  -9  13   25.79    6.93
   9   8  13   28.18    7.78
   8   9  13   15.47    4.91
  -8  -9 -13   49.06   10.48
  -9  -8 -13   27.93    6.75
  -9   8 -13   20.88    6.56
  -8   9 -13   20.63    5.89
   8   9 -13   20.69    7.68
   9   8 -13   22.84    5.40
   8   9 -14    2.01    3.51
   9   8 -14    2.64    2.27
   8  -9 -14    7.62    4.02
   9  -8 -14    8.18    3.59
   9  -8  14   -0.11    3.55
   8  -9  14    6.80    2.26
   9   8  14   10.77    4.90
   8   9  14    6.61    4.88
  -8  -9 -14    9.34    6.69
  -9  -8 -14    6.11    3.55
  -9   8 -14    7.43    3.75
  -8   9 -14    9.24    4.62
   9   8 -14   -0.48    4.97
   8   9 -14    5.39    6.51
   9   8 -15   11.09    3.77
   8  -9 -15   12.02    3.90
   9  -8 -15    5.10    4.88
   9  -8  15    9.58    5.60
   8  -9  15    1.61    3.23
   9   8  15    7.89    5.63
   8   9  15    8.85    3.89
  -8  -9 -15    8.81    3.76
  -9  -8 -15   11.59    4.90
  -9   8 -15   12.56    5.48
  -8   9 -15   12.31    5.49
   9   8 -15   12.97    6.17
   8   9 -15   12.01    5.38
   9   8 -16    2.31    2.66
   8  -9 -16    7.62    4.51
   9  -8 -16    6.24    4.07
   9  -8  16    2.14    2.60
   8  -9  16    2.80    4.61
   9   8  16    0.65    3.67
   8   9  16    0.05    3.29
  -8  -9 -16   -5.22    4.03
  -9  -8 -16    8.21    4.98
  -9   8 -16   -0.37    4.07
  -8   9 -16    5.68    4.92
   9   8 -16    4.81    5.62
   8   9 -16    4.02    2.39
   9   8 -17   66.41   25.40
   8  -9 -17   12.05    5.67
   9  -8 -17    9.03    2.89
   9  -8  17    6.45    5.12
   8  -9  17    5.63    3.65
   9   8  17    3.90    3.90
   8   9  17    7.94    3.56
  -8  -9 -17   11.13    5.78
  -9  -8 -17   11.54    5.02
  -9   8 -17    7.51    4.16
  -8   9 -17   12.38    7.74
   9   8 -17   12.13    5.40
   8   9 -17   12.92    5.16
   8  -9 -18   44.40   11.61
   9  -8 -18   26.58    9.22
   9  -8  18   33.68    9.90
   8  -9  18   34.67   11.78
   9   8  18   31.23   14.47
   8   9  18   16.86    9.95
  -8  -9 -18   19.67    6.18
  -9  -8 -18   27.92    7.91
  -9   8 -18   35.87    8.28
  -8   9 -18   30.88   11.69
   8   9 -18   40.82    9.84
   9   8 -18   26.78    7.28
   9   9   0   56.25   11.36
   9  -9   0   68.37   11.21
  -9  -9   0   80.62   15.00
   9   9  -1  154.98    8.80
   9  -9  -1  162.92   11.75
   9   9   1  156.18   10.56
   9  -9   1  174.15   23.13
  -9  -9   1  172.95   16.32
  -9  -9  -1  147.64   14.38
   9   9  -2  434.74   17.49
   9  -9  -2  442.19   27.11
   9  -9   2  402.58   26.64
   9   9   2  434.78   18.27
  -9  -9   2  448.03   19.32
  -9  -9  -2  432.02   23.88
   9   9  -3  124.51   10.90
   9  -9  -3  122.26   16.39
   9  -9   3  109.60   19.78
   9   9   3  125.20    9.19
  -9   9  -3  118.30   12.12
  -9  -9   3  147.75   22.12
  -9  -9  -3  140.62   14.42
   9   9  -4    5.19    2.92
   9  -9  -4   16.39   12.56
   9  -9   4    1.25    1.32
   9   9   4    3.45    2.16
  -9   9  -4    4.94    2.32
   9   9  -4    2.44    5.93
  -9  -9   4    7.60    3.62
  -9  -9  -4    3.03    2.28
   9   9  -5   -1.20    2.42
   9  -9  -5    1.82    1.65
   9  -9   5    1.07    2.01
   9   9   5    1.31    1.59
  -9   9  -5    1.88    1.58
   9   9  -5    2.55    6.35
  -9  -9   5    7.17    2.49
  -9  -9  -5    5.13    2.98
   9   9  -6    3.56    1.78
   9  -9  -6    4.66    2.55
   9  -9   6    2.38    2.34
   9   9   6    2.86    0.95
  -9   9  -6    2.14    1.35
   9   9  -6    0.48    5.63
  -9  -9   6   -3.62    3.45
  -9  -9  -6    5.31    4.01
   9   9  -7   28.53    5.95
   9  -9  -7   26.64    7.76
   9  -9   7   33.76    5.46
   9   9   7   29.18    8.00
  -9   9  -7   33.44    6.01
   9   9  -7   26.42    7.52
  -9  -9   7   38.30    6.08
  -9  -9  -7   39.61    7.54
   9   9  -8    9.13    2.49
   9  -9  -8   10.02    3.23
   9  -9   8    4.99    2.74
   9   9   8   18.51    4.67
  -9   9  -8    6.34    3.63
   9   9  -8   13.02    4.99
  -9  -9   8   20.04    3.70
  -9  -9  -8   14.23    4.79
   9   9  -9   80.98   11.92
   9  -9  -9   82.50   16.54
   9  -9   9   72.05    9.81
   9   9   9   64.40   14.07
  -9   9  -9   72.21    6.87
   9   9  -9   71.52   17.39
  -9  -9   9   79.39   13.47
  -9  -9  -9   78.20   14.37
   9   9 -10  113.55   14.08
   9  -9 -10  121.72   18.08
   9  -9  10  111.08   15.49
   9   9  10  104.91   18.51
  -9   9 -10  128.31   13.05
   9   9 -10  120.83   20.82
  -9  -9  10  112.80   12.58
  -9  -9 -10  122.10   21.86
   9   9 -11    2.71    2.11
   9  -9 -11   17.55    4.69
   9  -9  11   11.81    3.79
   9   9  11   10.72    5.08
  -9  -9 -11    7.89    3.38
  -9   9 -11   15.47    4.31
   9   9 -11   10.63    5.27
  -9  -9  11   17.84    4.85
  -9  -9 -11   14.49    3.52
   9   9 -12    2.44    2.50
   9  -9 -12    0.17    2.37
   9  -9  12   11.14    4.04
   9   9  12    4.32    2.31
  -9  -9 -12    4.49    5.28
  -9   9 -12    3.33    1.56
   9   9 -12    2.49    5.16
  -9  -9 -12   -1.41    2.59
   9  -9 -13   24.18    5.59
   9  -9  13   16.74    4.91
   9   9  13    9.20    4.81
  -9  -9 -13   27.52    6.60
  -9   9 -13   14.67    5.49
   9   9 -13   24.28    8.00
   9  -9 -14  104.88   16.26
   9  -9  14   69.41   17.09
   9   9  14   63.77   17.43
  -9  -9 -14   93.75   17.84
  -9   9 -14   67.96   17.81
   9   9 -14   92.24   17.31
   9  -9 -15    8.24    5.43
   9  -9  15    9.89    6.74
   9   9  15   10.57    5.98
  -9  -9 -15   10.54    5.84
  -9   9 -15   11.31    3.96
   9   9 -15    8.71    5.62
   9  -9 -16    8.50    3.56
   9  -9  16    5.13    2.15
   9   9  16    1.14    2.33
  -9  -9 -16    2.21    5.06
  -9   9 -16    6.18    5.71
   9   9 -16    1.06    4.40
   9  -9 -17   -1.45    4.46
   9  -9  17   -1.97    3.46
   9   9  17    1.78    2.14
  -9  -9 -17   -1.07    4.46
  -9   9 -17    1.31    2.62
   9   9 -17   -5.07    5.42
   9  -9 -18   34.87    7.59
   9  -9  18   14.44    6.05
   9   9  18   17.26    6.17
   9   9 -18   11.31    7.02
  10   0   0   50.79   10.62
   0  10   0   56.67    9.48
   0 -10   0   84.60   17.09
  10   0  -1  161.69   20.32
  10   0   1  148.87   14.12
 -10   0  -1  158.62   15.85
   0  10  -1  155.63   18.35
   0  10   1  159.77   19.05
   0 -10   1  160.16   15.52
   0 -10  -1  215.56   21.07
  10   0  -2  353.90   18.74
  10   0   2  341.17   10.60
 -10   0  -2  346.72   11.90
   0  10  -2  346.43   10.79
   0 -10   2  379.26   17.36
  10   0  -3  537.99   12.84
  10   0   3  513.17   12.95
   0  10   3  537.44    7.62
   0  10  -3  545.54   13.29
   0 -10   3  515.06   15.61
  10   0  -4  160.50   16.05
  10   0   4  172.12   19.69
   0 -10   4  158.24   13.11
   0  10   4  164.17   13.77
 -10   0  -4  173.96   16.87
   0  10  -4  187.05   22.23
   0 -10   4  166.76   19.29
   0 -10  -4  207.39   22.45
  10   0  -5   86.46    7.40
  10   0   5   94.71   14.72
   0 -10   5   78.96    5.22
   0  10   5   72.71    7.87
 -10   0  -5   86.45    8.58
   0  10  -5   95.48   18.69
  10   0  -5   85.14   11.50
   0 -10  -5  103.34   15.64
  10   0  -6  141.11   11.57
  10   0   6  127.85   10.54
   0 -10   6  121.64    5.10
 -10   0  -6  127.66    8.31
   0  10  -6  136.00    8.70
  10   0  -6  125.36    6.00
   0 -10  -6  148.73   15.38
  10   0  -7  245.54    9.21
  10   0   7  246.46    9.78
   0 -10   7  250.07    7.31
 -10   0  -7  252.11   14.50
   0  10  -7  253.02   12.09
  10   0  -7  257.28    7.97
   0 -10  -7  253.41   10.37
  10   0  -8   27.29    6.72
  10   0   8   28.39    7.00
   0 -10   8   23.92    4.51
 -10   0  -8   35.90    7.46
   0  10  -8   34.89    6.84
  10   0  -8   29.90    4.97
  10   0  -9  153.18   11.01
  10   0   9  149.93   10.16
   0 -10   9  164.83   10.27
 -10   0  -9  157.90   13.49
   0  10  -9  165.85   24.84
  10   0  -9  148.53   15.26
  10   0 -10  146.92   10.93
  10   0  10  155.45   23.08
   0 -10  10  138.18    8.81
 -10   0 -10  167.01   14.25
   0  10 -10  136.76   23.83
  10   0 -10  161.35   10.61
 -10   0  10  143.77   12.78
  10   0 -11    5.67    5.34
  10   0  11    3.35    3.42
   0 -10  11    0.74    1.20
   0  10  11   -1.04    2.28
 -10   0 -11   -1.05    4.14
   0  10 -11    3.16    3.22
  10   0 -11    1.10    0.73
 -10   0  11    1.91    0.98
  10   0 -12   40.75    7.35
  10   0  12   41.86   13.64
   0 -10  12   32.22    8.40
   0  10  12   36.11    8.10
   0 -10 -12   30.26    5.90
 -10   0 -12   56.28   12.68
   0  10 -12   44.91    9.48
  10   0 -13   69.08   13.21
  10   0  13   65.54   13.84
   0 -10  13   45.90   11.74
   0  10  13   39.64   10.47
 -10   0 -13   66.35   10.80
   0  10 -13   75.30   10.64
  10   0 -14    6.38    4.76
  10   0  14   -5.21    4.80
   0 -10  14   -0.51    2.82
   0  10  14    8.26    3.03
 -10   0 -14    3.76    3.87
   0  10 -14    2.20    4.22
  10   0 -15   59.48   12.47
  10   0  15   58.10    9.71
   0 -10  15   38.84   11.11
   0  10  15   39.21   12.63
 -10   0 -15   62.95   11.81
   0  10 -15   60.94   16.68
  10   0 -16   36.27   13.79
  10   0  16   28.47   10.77
   0  10  16   38.82    5.59
 -10   0 -16   48.10    7.42
   0  10 -16   41.66    9.76
  10   0 -17    4.21    3.27
  10   0  17    1.52    4.08
   0  10  17    4.67    3.48
 -10   0 -17    9.03    2.06
   0  10 -17    6.05    4.43
  10   0 -18    7.30    3.08
  10   0  18   23.52    8.08
   0  10  18   12.81    4.70
 -10   0 -18   15.06    5.89
   0  10 -18   11.89    4.98
  10   0 -19   58.35    8.56
  10   0  19   40.91   15.79
   0  10  19   76.78   27.20
 -10   0 -19   51.46   10.66
   0  10 -19   44.85   11.43
   0  10  20    3.88    2.50
  10  -1   0  423.68   10.82
  10   1   0  416.69   27.34
  -1  10   0  429.05   12.10
   1  10   0  456.34   12.06
  -1 -10   0  434.55   16.37
  10  -1  -1  114.07   11.29
  10   1  -1  140.24   14.25
  10  -1   1  138.70   15.79
  10   1   1  123.63   12.18
 -10   1  -1  103.12   11.72
  -1  10  -1  137.37   13.09
  -1  10   1  131.90   14.01
   1  10  -1  126.79   16.39
  -1 -10   1  149.71   13.79
  -1 -10  -1  122.16   21.48
  10   1  -2  588.63   12.97
  10  -1  -2  512.45   14.73
  10  -1   2  548.26   12.23
  10   1   2  497.60   13.46
 -10  -1  -2  595.56   17.33
 -10   1  -2  493.46   16.89
   1  10  -2  534.27   13.38
  -1  10   2  521.91   14.34
  -1 -10   2  604.65   14.04
  -1 -10  -2  526.00   16.09
  10   1  -3    6.01    3.49
  10  -1  -3   11.03    4.86
   1 -10   3    2.72    1.00
  10  -1   3    5.43    3.31
  10   1   3    9.16    3.36
   1  10   3    5.84    1.27
 -10  -1  -3   15.75    4.12
 -10   1  -3    1.04    2.17
  -1  10  -3    9.23    5.61
   1  10  -3    4.78    4.57
  -1 -10   3    7.55    3.70
  -1 -10  -3    6.26    3.12
   1 -10  -4  293.57    6.83
  10   1  -4  298.26    9.37
  10  -1  -4  327.47   18.51
  10  -1   4  302.20   10.29
  10   1   4  331.46   11.45
   1  10   4  303.08    5.69
 -10  -1  -4  300.25    9.78
 -10   1  -4  331.59   14.19
  -1  10  -4  282.66    9.34
   1  10  -4  326.72   13.50
  -1 -10   4  292.90   15.24
  -1 -10  -4  323.43   13.49
   1 -10  -5   55.11    4.41
  10   1  -5   51.74   11.36
  10  -1  -5   57.34    5.54
  10  -1   5   52.81    9.25
  10   1   5   55.43    7.77
   1 -10   5   39.07    5.19
   1  10   5   44.48    5.41
 -10  -1  -5   61.10   12.03
 -10   1  -5   50.40    9.40
  -1  10  -5   60.79    9.45
   1  10  -5   50.11    9.48
  10  -1  -5   51.19    7.51
  10   1  -5   56.57    7.90
  -1 -10   5   82.95   18.46
  -1 -10  -5   48.27    9.54
   1 -10  -6  177.59    8.98
  10   1  -6  211.27   25.24
  10  -1  -6  178.56   19.80
  10  -1   6  180.87   15.64
  10   1   6  199.68   11.99
   1 -10   6  165.52   11.12
  -1 -10   6  186.79    9.85
   1  10   6  177.20   10.14
 -10  -1  -6  194.56   12.62
 -10   1  -6  186.73   12.66
  -1  10  -6  178.05   11.70
   1  10  -6  201.09   18.55
  10  -1  -6  189.25   10.85
  10   1  -6  199.07   18.95
  -1 -10   6  195.66   11.60
  -1 -10  -6  184.80   18.05
   1 -10  -7   65.77    9.49
  10   1  -7   83.59    8.70
  10  -1  -7   95.90   14.25
  10  -1   7   81.77   17.12
  10   1   7   82.32   17.68
   1 -10   7   69.60    8.78
  -1 -10   7   64.89    8.07
   1  10   7   70.59    8.35
 -10  -1  -7   81.34    7.62
 -10   1  -7   89.04   10.33
  -1  10  -7   89.51    9.87
   1  10  -7   98.34   18.57
  10  -1  -7   84.72    9.68
  10   1  -7   68.36   10.84
  -1 -10   7   72.89   15.17
  -1 -10  -7   87.98   17.69
   1 -10  -8  300.03   15.30
  10   1  -8  288.78   21.53
  10  -1  -8  279.02   21.05
  10  -1   8  293.28   22.94
  10   1   8  282.59    9.61
   1 -10   8  272.13    9.66
  -1 -10   8  273.58    7.48
   1  10   8  272.80   11.02
 -10  -1  -8  311.33   13.87
 -10   1  -8  309.49   12.75
  -1  10  -8  304.57   17.72
   1  10  -8  286.11   17.67
  10  -1  -8  268.28   13.92
  10   1  -8  318.54   11.31
  -1 -10  -8  322.90   16.88
 -10  -1   8  295.87   11.67
   1 -10  -9   30.09    4.95
  10   1  -9   13.37    5.99
  10  -1  -9   20.94    6.96
  10  -1   9   31.76    8.45
  10   1   9   26.02    5.67
   1 -10   9   18.78    4.13
  -1 -10   9   25.88    4.71
   1  10   9   25.36    5.72
 -10  -1  -9   26.64    6.20
 -10   1  -9   29.27    6.38
  -1  10  -9   31.83    6.75
  10  -1  -9   15.05    3.61
   1  10  -9   33.57    9.45
  10   1  -9   23.21    5.15
  -1 -10  -9   31.62    5.85
 -10  -1   9   25.29    4.74
   1 -10 -10  141.07   17.24
  10   1 -10  138.19   11.51
  10  -1 -10  165.58   15.18
  10  -1  10  135.37   15.37
  10   1  10  172.12   15.24
   1 -10  10  167.25   10.04
  -1 -10  10  117.46   10.44
   1  10  10  109.28   11.19
 -10  -1 -10  161.98   13.78
 -10   1 -10  170.49   18.29
  -1  10 -10  147.40   12.75
   1  10 -10  161.88   16.93
  10   1 -10  115.78   17.46
  -1 -10 -10  167.17   13.43
 -10  -1  10  160.53   12.10
   1 -10 -11   35.41    8.32
  10   1 -11   47.59    9.36
  10  -1 -11   29.28    5.91
  10  -1  11   48.42    9.30
  10   1  11   35.93    9.34
   1 -10  11   39.36    6.49
  -1 -10  11   31.05    7.14
   1  10  11   35.71    7.26
  -1 -10 -11   29.80    8.19
 -10  -1 -11   39.30    7.21
 -10   1 -11   46.72    9.18
  -1  10 -11   39.96   10.31
   1  10 -11   52.55   10.75
  10   1 -11   30.16    4.81
 -10  -1  11   34.47    6.20
   1 -10 -12   80.96   14.64
  10   1 -12   93.58   18.53
  10  -1 -12  113.16   19.06
  10  -1  12   90.14    9.71
  10   1  12  137.65    9.20
   1 -10  12  121.27   17.24
  -1 -10  12   97.28   12.62
   1  10  12   91.30    8.76
  -1 -10 -12  107.59   18.31
 -10  -1 -12  114.03   21.23
 -10   1 -12  130.58    9.30
  -1  10 -12  102.10   13.79
   1  10 -12  107.27   18.35
  10   1 -12   83.05   16.54
 -10  -1 -12  114.91   12.46
   1 -10 -13   38.01    7.86
  10   1 -13   56.36    8.86
  10  -1 -13   48.99    8.50
  10  -1  13   54.51   16.43
  10   1  13   46.87   12.44
   1 -10  13   50.89   10.32
  -1 -10  13   46.95   10.20
   1  10  13   36.12   10.48
  -1 -10 -13   38.32    9.47
 -10  -1 -13   43.96    8.61
 -10   1 -13   51.72    9.37
  -1  10 -13   55.73    9.39
   1  10 -13   51.97    9.26
  10   1 -14  122.14   19.63
  10  -1 -14  111.36   15.65
  10  -1  14   99.25   11.18
  10   1  14  101.69   23.40
   1 -10  14   76.88   17.34
  -1 -10  14  116.59   13.43
   1  10  14   94.87    9.65
  -1 -10 -14  100.47   20.40
 -10  -1 -14  110.56   22.76
 -10   1 -14  119.27   17.76
  -1  10 -14   98.53   19.35
   1  10 -14  105.64   10.24
  10   1 -15   18.29    5.82
  10  -1 -15    8.90    6.53
  10  -1  15   14.50    8.69
  10   1  15   10.18    5.80
   1 -10  15    7.39    4.54
   1  10  15    9.05    3.72
  -1  10  15   12.92    5.38
 -10  -1 -15   15.54    3.56
 -10   1 -15    8.60    3.76
  -1  10 -15    9.11    4.20
   1  10 -15   12.61    3.90
  10   1 -16   37.59    8.73
  10  -1 -16   51.46    7.32
  10  -1  16   34.85    9.22
  10   1  16   35.84   12.40
   1  10  16   54.48   21.94
  -1  10  16   32.04   10.12
 -10  -1 -16   54.99   10.94
 -10   1 -16   53.46    7.32
  -1  10 -16   40.13   11.87
   1  10 -16   61.63   18.34
  10   1 -17   15.44    4.90
  10  -1 -17    7.79    4.00
  10  -1  17    5.44    5.60
  10   1  17   12.50    5.95
   1  10  17    4.42    3.39
  -1  10  17    8.81    3.64
 -10  -1 -17   13.06    4.04
 -10   1 -17   17.44    4.38
  -1  10 -17   13.93    5.07
   1  10 -17   16.67    5.83
  10   1 -18   14.95    6.59
  10  -1 -18   29.76    5.26
  10  -1  18   26.20    9.83
  10   1  18   31.37    9.94
   1  10  18   19.01    5.59
  -1  10  18   25.01   11.33
 -10  -1 -18   35.43    7.33
 -10   1 -18   35.25    9.78
  -1  10 -18   21.39    7.55
   1  10 -18   17.16    6.97
  10   1 -19    6.06    4.33
  10  -1 -19    5.80    5.50
  10  -1  19   -0.57    5.05
  10   1  19    3.02    3.44
   1  10  19    3.78    2.88
  -1  10  19    2.86    2.25
 -10  -1 -19    2.84    2.46
 -10   1 -19    6.88    3.93
  -1  10 -19   -1.04    4.73
   1  10 -19    3.60    3.02
   1  10  20    4.94    3.13
  -1  10  20    4.87    4.32
  10  -2   0  206.92   18.35
  10   2   0  218.75   22.18
  -2  10   0  216.75   18.52
  -2 -10   0  224.21   19.86
  10  -2  -1  197.17   18.22
  10   2  -1  201.69   22.32
  10  -2   1  185.53   16.53
  10   2   1  179.90   16.23
 -10   2  -1  176.67   15.42
  -2  10  -1  207.92   17.96
  -2  10   1  186.65   16.16
   2  10  -1  187.37   17.57
  -2 -10   1  213.65   20.34
  -2 -10  -1  199.00   19.31
  10   2  -2  464.55   12.12
  10  -2  -2  433.72   22.98
  10  -2   2  456.55   15.29
  10   2   2  446.66   11.44
 -10   2  -2  459.97    9.22
  -2  10  -2  424.35   22.10
  -2  10   2  453.79   10.70
   2  10  -2  433.51   18.78
  -2 -10   2  475.69   15.29
  -2 -10  -2  444.71   17.33
   2 -10  -3  346.31    6.66
  10   2  -3  389.99   10.73
  10  -2  -3  374.65   25.72
  10  -2   3  399.35   11.72
  10   2   3  350.73    9.85
   2  10   3  354.76    5.10
 -10  -2  -3  391.15   13.55
 -10   2  -3  346.38   14.07
  -2  10  -3  356.55   10.64
   2  10  -3  380.73   13.07
  -2  10   3  357.74    8.42
  -2 -10   3  382.47   14.18
  -2 -10  -3  358.51   10.03
   2 -10  -4  145.18   13.49
  10   2  -4  150.69   14.74
  10  -2  -4  130.79   16.50
   2 -10   4  127.99   12.57
  10  -2   4  152.94   25.90
  10   2   4  133.55   18.67
   2  10   4  137.23   12.14
 -10  -2  -4  157.92   20.15
 -10   2  -4  132.45   16.06
  -2  10  -4  173.71   24.27
   2  10  -4  127.23   13.11
  10  -2  -4  142.38   14.42
  -2 -10   4  151.40   14.25
  -2 -10  -4  136.06   14.22
   2 -10  -5   87.28    4.56
  10   2  -5   84.10    5.78
  10  -2  -5   83.36    8.55
  10  -2   5   87.05   15.11
  10   2   5   80.31   13.22
   2 -10   5   71.37    6.03
   2  10   5   70.28    7.47
 -10  -2  -5  136.15   22.90
 -10   2  -5   93.95    7.63
  -2  10  -5   85.32    7.27
   2  10  -5   86.11   16.81
  10  -2  -5   90.65    3.70
  10   2  -5   92.33    5.86
  -2 -10   5   84.24    9.00
  -2 -10  -5  102.79   19.32
 -10  -2   5   95.72   13.51
   2 -10  -6  254.77   14.78
  10   2  -6  282.98   17.40
  10  -2  -6  314.24   14.51
  10  -2   6  265.40   12.82
  10   2   6  284.44   15.02
   2 -10   6  286.10   14.16
   2  10   6  279.49   13.84
  -2 -10   6  262.39   12.38
 -10  -2  -6  272.75   12.47
 -10   2  -6  293.25   16.20
  -2  10  -6  259.33   17.57
  10  -2  -6  314.04   14.40
   2  10  -6  312.45   28.02
  10   2  -6  271.54   16.03
  -2 -10   6  275.89   14.34
  -2 -10  -6  308.09   18.43
 -10  -2   6  290.28   14.43
   2 -10  -7    8.06    4.02
  10   2  -7    9.21    4.56
  10  -2  -7    4.68    4.53
  10  -2   7    8.74    3.68
  10   2   7    7.88    4.84
   2 -10   7    4.06    1.93
   2  10   7   10.52    2.24
  -2 -10   7    7.40    2.58
 -10  -2  -7    6.34    2.34
 -10   2  -7    7.19    2.02
  -2  10  -7    5.58    4.30
  10  -2  -7    5.99    1.82
   2  10  -7   10.71    4.20
  10   2  -7   10.58    5.44
  -2 -10   7    7.45    2.17
  -2 -10  -7    2.31    1.90
 -10  -2   7    7.10    2.97
   2 -10  -8  242.21    7.16
  10   2  -8  213.93   16.79
  10  -2  -8  208.62   16.45
  10  -2   8  222.19   18.98
  10   2   8  214.74   10.23
   2 -10   8  204.80   10.68
   2  10   8  221.46    7.79
  -2 -10   8  219.39   10.75
 -10  -2  -8  251.47   14.45
 -10   2  -8  232.64   12.86
  -2  10  -8  228.12   20.56
   2  10  -8  208.20   12.96
  10   2  -8  221.34   17.00
  -2 -10   8  242.81   19.21
  -2 -10  -8  218.92   12.55
 -10  -2   8  225.11    8.43
   2 -10  -9   53.88    9.86
  10   2  -9   54.25    7.06
  10  -2  -9   65.33    6.87
  10  -2   9   57.69   10.37
  10   2   9   77.09   14.91
   2 -10   9   53.20   10.66
   2  10   9   42.41    7.75
  -2 -10   9   46.83    7.79
 -10  -2  -9   51.93   11.07
 -10   2  -9   69.09   10.80
  -2  10  -9   47.21    8.90
   2  10  -9   68.67    9.15
  10   2  -9   51.39    9.03
  -2 -10   9   63.12   11.73
  -2 -10  -9   64.10   13.34
 -10  -2   9   85.11   10.22
 -10  -2  -9   50.13    9.33
   2 -10 -10   98.44   13.78
  10  -2 -10  106.63   17.25
  10  -2  10  112.65   21.24
  10   2  10  112.05   13.70
   2 -10  10   78.13   14.43
   2  10  10   84.10    7.95
  -2 -10  10   99.05    8.39
 -10  -2 -10  114.34   15.66
 -10   2 -10  106.68   11.70
  -2  10 -10  116.80   13.60
   2  10 -10  125.03   24.09
  10   2 -10   91.00   15.10
  -2 -10 -10  105.49   18.89
 -10  -2  10  109.10    6.41
 -10  -2 -10  105.84   15.91
   2 -10 -11    7.14    3.10
  10   2 -11   21.52    4.35
  10  -2 -11   21.16    5.56
  10  -2  11   14.79    7.53
  10   2  11    7.93    2.90
   2 -10  11   11.98    4.09
   2  10  11    9.61    3.24
  -2 -10  11    9.87    3.74
  -2 -10 -11    7.37    3.13
 -10  -2 -11   11.46    3.00
 -10   2 -11   21.57    4.92
  -2  10 -11   17.94    8.48
   2  10 -11   16.44    5.80
  10   2 -11    9.12    3.24
  -2 -10 -11   14.52    6.62
 -10  -2  11    7.68    2.49
 -10  -2 -11   14.35    3.79
   2 -10 -12  121.22   19.62
  10   2 -12  153.19   22.01
  10  -2 -12  121.51   18.29
  10  -2  12  133.70   31.47
  10   2  12  153.60   19.07
   2 -10  12  126.20   15.18
   2  10  12  115.93   10.79
  -2 -10  12  125.08   15.10
  -2 -10 -12  107.59   18.98
 -10  -2 -12  151.36   12.90
 -10   2 -12  169.58   16.93
  -2  10 -12  137.66   19.39
   2  10 -12  147.95   24.23
  10   2 -12  127.10   16.81
 -10  -2 -12  130.87   14.49
   2 -10 -13  114.15   13.52
  10   2 -13  109.17   21.30
  10  -2 -13  106.30   17.77
  10  -2  13   91.39   25.35
  10   2  13   87.31   22.72
   2 -10  13   87.78   19.24
   2  10  13  104.47   16.86
  -2 -10  13  102.11   16.47
  -2 -10 -13   93.68   18.21
 -10  -2 -13  107.76   18.34
 -10   2 -13  120.21   12.46
  -2  10 -13  136.33   13.66
   2  10 -13   99.47   23.24
  10   2 -13   83.75   18.93
   2 -10 -14    8.82    4.45
  10   2 -14   20.81    4.71
  10  -2 -14   13.01    2.99
  10  -2  14   16.34    6.47
  10   2  14    8.05    3.52
   2 -10  14   12.62    4.07
   2  10  14    9.61    3.26
  -2 -10 -14   13.42    4.23
 -10  -2 -14    9.96    4.35
 -10   2 -14   18.87   13.34
  -2  10 -14   10.08    4.26
   2  10 -14   13.38    5.00
   2 -10 -15   39.53   10.94
  10   2 -15   62.08    9.90
  10  -2 -15   62.08   10.88
  10  -2  15   63.53   18.15
  10   2  15   61.80   15.66
   2 -10  15   36.48    9.70
   2  10  15   42.13   11.74
  -2 -10 -15   40.71    9.99
 -10  -2 -15   62.83   11.81
 -10   2 -15   53.57    9.74
  -2  10 -15   48.17    9.34
   2  10 -15   53.79    8.90
  10   2 -16   63.72   10.09
  10  -2 -16   59.66   13.64
  10  -2  16   44.72   10.87
  10   2  16   49.52   10.34
   2 -10  16   32.62   12.15
   2  10  16   36.97   12.01
 -10  -2 -16   51.05   12.68
 -10   2 -16   62.07   11.36
  -2  10 -16   52.33   15.54
   2  10 -16   50.83   12.96
  10   2 -17    9.34    3.55
  10  -2 -17   13.44    6.04
  10  -2  17    9.71    4.00
  10   2  17    6.68    4.58
   2  10  17   11.34    4.66
 -10  -2 -17   20.71    6.97
 -10   2 -17   33.50    6.42
  -2  10 -17    2.55    4.57
   2  10 -17    9.53    4.27
  10   2 -18   28.31    5.73
  10  -2 -18    7.59    3.33
  10  -2  18   33.96    7.79
  10   2  18   23.64    8.74
   2  10  18   13.52    8.83
  -2  10  18   15.81    6.72
 -10  -2 -18   40.53    7.29
 -10   2 -18   45.00    8.10
  -2  10 -18   14.90    4.47
   2  10 -18   20.49    5.85
  10   2 -19   11.63    6.00
  10  -2 -19    7.60    4.35
  10  -2  19    1.85    3.01
  10   2  19   -1.48    4.33
   2  10  19    4.28    2.06
  -2  10  19    3.73    1.37
 -10  -2 -19    5.72    3.14
 -10   2 -19   10.33    4.10
  -2  10 -19   -0.03    4.21
   2  10 -19    5.29    4.02
   2  10  20   -3.20    2.76
  -2  10  20    5.55    4.21
   3 -10   0   69.45    7.58
  10   3   0   88.27   19.09
  10  -3   0   77.11   17.19
 -10   3   0   79.81    9.44
  -3  10   0   69.64   12.86
  -3 -10   0   82.49   17.47
 -10  -3   0   79.84    8.64
   3 -10  -1  172.13   15.27
   3 -10   1  164.51   14.41
  10   3  -1  189.91   17.14
  10  -3  -1  169.33   15.83
  10  -3   1  158.70   15.95
  10   3   1  188.16   17.42
 -10   3  -1  197.06   18.13
  -3  10  -1  171.80   15.14
  -3  10   1  170.38   15.14
   3  10  -1  153.31   14.82
  -3 -10   1  157.81   15.58
  -3 -10  -1  180.76   17.92
 -10  -3   1  187.48   21.57
 -10  -3  -1  169.05   15.15
   3 -10  -2  179.92   14.75
  10   3  -2  182.95   23.64
  10  -3  -2  205.66   23.25
   3 -10   2  180.82   15.63
  10  -3   2  167.95   15.09
  10   3   2  187.79   16.64
 -10   3  -2  172.33   16.12
  -3  10  -2  190.45   17.53
  -3  10   2  182.69   15.79
   3  10  -2  178.17   16.12
  -3 -10   2  173.43   15.72
  -3 -10  -2  187.74   17.92
 -10  -3   2  198.88   18.46
 -10  -3  -2  182.01   19.26
   3 -10  -3   52.78    6.32
  10   3  -3   42.08    9.67
  10  -3  -3   46.48    7.82
   3 -10   3   41.03    6.58
  10  -3   3  111.99   20.85
  10   3   3   45.66    9.76
   3  10   3   36.08    5.31
 -10  -3  -3   46.06   11.32
 -10   3  -3   44.11    5.89
  -3  10  -3   52.81   11.85
  -3  10   3   48.90    7.46
   3  10  -3   66.86    8.23
  -3 -10   3   50.47   13.44
  -3 -10  -3   48.09   10.63
 -10  -3   3   33.69    5.12
 -10  -3  -3   46.84    9.92
   3 -10  -4  209.66    8.99
  10   3  -4  227.71   16.29
  10  -3  -4  171.39   13.87
   3 -10   4  158.09    9.35
  10  -3   4  202.49   15.59
  10   3   4  179.74   11.81
   3  10   4  223.63    9.41
 -10  -3  -4  252.30   21.27
 -10   3  -4  174.01   11.17
  -3  10  -4  244.51   20.11
   3  10  -4  175.55   11.32
  10  -3  -4  167.21   10.43
  -3  10   4  172.79    8.05
  -3 -10   4  220.97   11.05
  -3 -10  -4  182.49   13.29
 -10  -3   4  166.40   16.04
 -10  -3  -4  228.04   16.27
   3 -10  -5   48.80    8.00
  10   3  -5   50.01   10.10
  10  -3  -5   73.26   10.81
  10  -3   5   66.50   12.60
  10   3   5   68.68   11.20
   3 -10   5   49.49    6.46
   3  10   5   42.32    7.37
 -10  -3  -5   60.55    9.31
 -10   3  -5   68.29   11.00
  -3  10  -5   68.71   13.15
   3  10  -5   61.78   10.98
  10   3  -5   57.68    7.86
  -3 -10   5   56.31   11.86
  -3 -10  -5   58.51    9.46
 -10  -3   5   59.75   13.06
 -10  -3  -5   70.62   11.14
   3 -10  -6   71.54   11.01
  10   3  -6   78.04    6.22
  10  -3  -6   78.13   14.97
  10  -3   6   67.26   12.80
  10   3   6   63.21   13.72
   3 -10   6   74.01    9.98
   3  10   6   65.80    6.90
  -3 -10   6   61.64    6.27
 -10  -3  -6  363.42   59.17
 -10   3  -6   81.97    6.53
  -3  10  -6   76.58   12.23
   3  10  -6   94.96   17.18
  10   3  -6   75.13   10.23
  -3 -10   6   82.48   10.10
  -3 -10  -6   89.16   12.28
 -10  -3   6   83.94   11.84
 -10  -3  -6   73.80   13.18
   3 -10  -7   69.25   10.24
  10   3  -7   81.20   13.63
  10  -3  -7   73.75   15.02
  10  -3   7   73.00   15.85
  10   3   7   55.06   11.47
   3 -10   7   46.31    7.95
   3  10   7   64.39    8.22
  -3 -10   7   66.31    8.47
 -10  -3  -7   79.98   15.27
 -10   3  -7   63.25   12.10
  -3  10  -7   74.02   10.01
   3  10  -7   61.46   14.42
  10   3  -7   65.77   11.83
  -3 -10   7   83.86   16.38
  -3 -10  -7   57.90   12.49
 -10  -3   7   69.98    8.35
 -10  -3  -7   64.54    6.83
   3 -10  -8  377.88   16.06
  10   3  -8  408.22   18.77
  10  -3  -8  436.99   19.55
  10  -3   8  375.71   18.20
  10   3   8  445.12   29.20
   3 -10   8  431.48   18.15
   3  10   8  375.06   18.11
  -3 -10   8  348.51   14.54
 -10  -3  -8  376.95   23.47
 -10   3  -8  427.82   21.17
  -3  10  -8  380.97   25.98
   3  10  -8  397.53   33.07
  10   3  -8  369.50   16.14
  -3 -10   8  366.99   18.32
  -3 -10  -8  446.91   21.95
 -10  -3   8  452.10   19.69
 -10  -3  -8  367.60   16.73
   3 -10  -9   45.91    9.12
  10   3  -9   35.24   11.26
  10  -3  -9   43.80    6.91
  10  -3   9   46.31   10.62
  10   3   9   43.07    9.85
   3 -10   9   46.98    6.88
   3  10   9   41.56    8.04
  -3 -10   9   40.36    6.34
 -10  -3  -9   54.36    8.39
 -10   3  -9   50.64   11.51
  -3  10  -9   47.80   13.35
   3  10  -9   51.32   11.28
  10   3  -9   45.90    8.19
  -3 -10   9   55.81    9.73
  -3 -10  -9   54.42    9.07
 -10  -3   9   42.26    7.97
 -10  -3  -9   51.58    8.55
   3 -10 -10  118.09   14.24
  10   3 -10   80.72   12.00
  10  -3 -10   83.26   13.48
  10  -3  10   78.47   17.35
  10   3  10   71.96   15.15
   3 -10  10   61.43   12.82
   3  10  10   59.38   11.23
  -3 -10  10   64.00    6.14
 -10  -3 -10   93.23   15.59
 -10   3 -10   89.72   13.80
  -3  10 -10   85.58   14.97
   3  10 -10   71.82   12.69
  10   3 -10   87.00   11.67
  -3 -10  10   78.65    8.69
  -3 -10 -10   67.65   11.27
 -10  -3  10   77.54    9.33
 -10  -3 -10   70.24   10.79
   3 -10 -11  166.05   14.30
  10   3 -11  182.63    9.83
  10  -3 -11  159.98   11.88
  10  -3  11  179.29   24.66
  10   3  11  140.66   19.23
   3 -10  11  137.79   14.94
   3  10  11  154.79   11.14
  -3 -10  11  139.64   15.11
  -3 -10 -11  151.00    9.83
 -10  -3 -11  171.13   13.89
 -10   3 -11  179.24   13.00
  -3  10 -11  178.62   20.63
   3  10 -11  165.59   15.76
  10   3 -11  137.59   22.00
  -3 -10  11  173.58    9.86
  -3 -10 -11  153.08   18.02
 -10  -3  11  128.72   11.97
 -10  -3 -11  168.02    6.77
   3 -10 -12   55.44   10.16
  10   3 -12   52.81    9.33
  10  -3 -12   66.91   13.14
  10  -3  12   65.63   15.37
  10   3  12   68.38   11.31
   3 -10  12   51.29   10.22
   3  10  12   44.14    9.06
  -3 -10 -12   57.40    9.71
 -10  -3 -12   56.38   10.99
 -10   3 -12   71.87   10.57
  -3  10 -12   51.38   16.66
   3  10 -12   46.94    9.59
  10   3 -12   63.76   10.13
 -10  -3 -12   49.16    9.11
   3 -10 -13   19.73    4.75
  10   3 -13   26.72    5.88
  10  -3 -13   31.08    5.54
  10  -3  13   19.66    7.57
  10   3  13   20.64   10.62
   3 -10  13   25.70    6.25
   3  10  13   15.49    4.82
  -3 -10 -13   23.53    6.78
 -10  -3 -13   24.49    5.53
 -10   3 -13   31.56    6.74
  -3  10 -13   23.68    6.24
   3  10 -13   20.85    6.67
  10   3 -13   22.38    5.27
   3 -10 -14   57.39   14.21
  10   3 -14   92.37   15.61
  10  -3 -14   89.68   17.52
  10  -3  14  103.00   11.73
  10   3  14   90.47   22.21
   3 -10  14   74.46   20.31
   3  10  14   57.92   14.99
  -3 -10 -14   78.05   17.20
 -10  -3 -14  105.00   15.64
 -10   3 -14   99.01   14.24
  -3  10 -14   89.49   20.72
   3  10 -14   68.85   16.48
  10   3 -14   65.73   15.64
   3 -10 -15   29.34    6.81
  10   3 -15   24.66    7.61
  10  -3 -15   32.86    7.17
  10  -3  15   33.94    9.20
  10   3  15   26.17    7.91
   3 -10  15   38.31    8.22
   3  10  15   22.83    6.58
  -3 -10 -15   22.07    5.03
 -10  -3 -15   30.18    7.60
 -10   3 -15   38.27    5.45
  -3  10 -15   24.22    7.26
  10   3 -15   15.40    5.26
   3  10 -15   15.40    6.31
   3 -10 -16   39.59   10.30
  10   3 -16   55.31    8.87
  10  -3 -16   49.01   11.01
  10  -3  16   58.71   11.75
  10   3  16   46.16   15.17
   3 -10  16   46.79    7.02
   3  10  16   19.88    9.05
  -3 -10 -16   40.74   11.01
 -10  -3 -16   64.28   12.03
 -10   3 -16   74.19    9.89
  -3  10 -16   43.83    6.29
   3  10 -16   44.20   14.00
  10   3 -17   46.75    9.40
  10  -3 -17   19.55    6.17
  10  -3  17   32.79   11.70
  10   3  17   30.08    7.80
   3 -10  17   15.58    4.90
   3  10  17   18.99    6.33
  -3 -10 -17   18.97    5.18
 -10  -3 -17   37.85    9.29
 -10   3 -17   35.86    5.73
  -3  10 -17   28.94   10.43
   3  10 -17   37.44   10.41
   3 -10 -18   11.23    6.55
  10   3 -18   14.20   17.39
  10  -3 -18   27.64    6.99
  10  -3  18   24.89    9.12
  10   3  18    9.75    6.59
   3  10  18   12.86    4.49
 -10  -3 -18   24.87    5.46
 -10   3 -18   32.84    5.07
  -3  10 -18   14.57    8.61
   3  10 -18   20.33    7.75
  10   3 -19   11.12    5.21
  10  -3  19   -0.01    2.32
  10   3  19    0.57    3.13
   3  10  19    1.56    1.74
  -3  10  19    2.76    3.04
 -10  -3 -19    3.83    3.21
 -10   3 -19    7.08    4.17
  -3  10 -19   11.05    4.13
   3  10 -19    9.38    4.36
  -3  10  20   10.06    5.82
   4 -10   0  326.00    6.58
  10   4   0  295.79   10.89
  10  -4   0  300.30   16.69
 -10   4   0  312.83   10.50
  -4  10   0  303.75   13.86
  -4 -10   0  313.43   13.26
 -10  -4   0  327.41    9.00
   4 -10  -1   25.37    4.38
   4 -10   1   28.59    4.51
  10   4  -1   20.02    6.27
  10  -4  -1   29.51    7.15
  10  -4   1   31.15    5.68
  10   4   1   19.17    6.11
 -10   4  -1   31.69    5.63
  -4  10  -1   20.38    4.40
  -4  10   1   27.52    5.41
  -4 -10   1   31.07    5.56
  -4 -10  -1   30.71    7.35
 -10  -4   1   32.64    5.35
 -10  -4  -1   22.05    5.12
   4 -10  -2  253.54    5.68
  10   4  -2  281.13   18.49
  10  -4  -2  245.72   17.23
   4 -10   2  235.91    7.34
  10  -4   2  270.42    9.61
  10   4   2  254.45    8.60
 -10   4  -2  238.45   10.22
  -4  10  -2  268.22   15.19
  -4  10   2  256.08    7.29
   4  10  -2  273.06   10.79
  -4 -10   2  260.82   12.24
  -4 -10  -2  255.56   16.96
 -10  -4   2  255.36    9.46
 -10  -4  -2  277.43    8.82
   4 -10  -3  402.05   16.15
  10   4  -3  392.35   25.93
  10  -4  -3  398.82   23.59
   4 -10   3  359.19   15.72
  10  -4   3  391.03   27.66
   4  10   3  450.39   18.26
  10   4   3  405.53   18.97
 -10   4  -3  374.59   20.41
  -4  10  -3  381.44   23.98
  -4  10   3  366.19   15.48
   4  10  -3  384.25   29.81
  -4 -10   3  368.42   21.74
  -4 -10  -3  378.88   20.17
 -10  -4   3  391.81   17.92
 -10  -4  -3  377.94   16.89
   4 -10  -4  538.43   21.82
  10   4  -4  570.33   29.40
  10  -4  -4  592.69   24.52
   4 -10   4  695.00   27.79
  10  -4   4  547.64   23.81
  10   4   4  558.31   24.11
   4  10   4  592.89   23.10
 -10  -4  -4  547.90   24.22
 -10   4  -4  599.08   23.82
  -4  10  -4  563.55   33.70
  -4  10   4  566.16   23.04
   4  10  -4  605.58   28.57
  -4 -10   4  601.75   24.79
  -4 -10  -4  599.16   25.26
 -10  -4   4  650.91   28.91
 -10  -4  -4  537.39   26.88
   4 -10  -5   85.53   11.87
  10   4  -5  108.11    8.88
  10  -4  -5  103.75   15.02
  10  -4   5  107.82   20.04
   4 -10   5   80.64   10.57
  10   4   5   81.61   10.22
   4  10   5   96.18    9.42
 -10  -4  -5  116.08   15.40
 -10   4  -5   89.69    9.20
  -4  10  -5   96.15    9.79
   4  10  -5   97.36   14.82
  10   4  -5  105.52   11.92
  -4 -10   5  109.21   19.37
  -4 -10  -5   99.73   14.44
 -10  -4   5   96.47   14.61
 -10  -4  -5  104.43   17.25
   4 -10  -6  189.17    6.76
  10   4  -6  190.28   11.07
  10  -4  -6  198.29    8.27
  10  -4   6  186.04   10.20
  10   4   6  206.06    9.89
   4 -10   6  191.57    9.96
   4  10   6  184.00    6.94
 -10  -4  -6  196.42   23.47
 -10   4  -6  206.33   14.73
  -4  10  -6  196.43   10.21
   4  10  -6  181.31   10.54
  10   4  -6  189.72   21.48
  -4 -10   6  202.94   10.47
  -4 -10  -6  193.85    7.58
 -10  -4   6  215.39    8.80
 -10  -4  -6  204.19   16.37
   4 -10  -7  229.32   16.84
  10   4  -7  217.15    8.26
  10  -4  -7  238.82   20.22
  10  -4   7  217.54   18.72
  10   4   7  214.27   17.07
   4 -10   7  217.61    9.67
   4  10   7  190.56   11.28
 -10  -4  -7  235.81    9.14
 -10   4  -7  237.90   11.27
  -4  10  -7  209.42   18.60
   4  10  -7  236.22   12.62
  10   4  -7  222.42   11.40
  -4 -10   7  214.34    9.85
  -4 -10  -7  244.54   16.74
 -10  -4   7  226.70   14.66
 -10  -4  -7  228.55    8.32
   4 -10  -8  498.03   19.74
  10   4  -8  508.24   23.15
  10  -4  -8  471.19   23.88
  10  -4   8  528.59   25.64
  10   4   8  474.57   22.31
   4 -10   8  479.62   18.81
   4  10   8  494.52   19.96
 -10  -4  -8  519.53   28.14
 -10   4  -8  464.75   24.20
  -4  10  -8  507.11   22.37
   4  10  -8  468.28   21.71
  10   4  -8  523.56   22.07
  -4 -10   8  538.13   28.29
  -4 -10  -8  484.65   20.69
 -10  -4   8  470.67   20.93
 -10  -4  -8  533.69   21.53
   4  10  -9  110.90    6.88
   4 -10  -9  114.98    9.85
  10   4  -9  115.06   17.45
  10  -4  -9  141.45   20.86
  10  -4   9  125.75   24.17
  10   4   9  143.16   16.63
   4 -10   9  115.74   17.90
   4  10   9  110.97   11.92
 -10  -4  -9  141.10   13.86
 -10   4  -9  111.13    9.77
  -4  10  -9  121.58   15.38
   4  10  -9  136.10   28.36
  10   4  -9  129.91   14.37
  -4 -10   9  115.80   11.72
  -4 -10  -9  126.01   17.49
 -10  -4   9  117.21    6.88
 -10  -4  -9  132.24   11.59
   4  10 -10   81.05   11.60
   4 -10 -10   92.04   12.41
  10   4 -10   92.55   11.13
  10  -4 -10   92.68   18.85
  10  -4  10   84.75   17.22
  10   4  10  102.19   17.70
   4 -10  10   82.05   18.87
   4  10  10   80.44   14.36
 -10  -4 -10   99.13   15.26
 -10   4 -10   93.06   18.93
  -4  10 -10   83.60   16.57
   4  10 -10   78.79   18.95
  10   4 -10   81.47   14.94
  -4 -10  10   86.28   12.26
  -4 -10 -10  105.92   14.10
 -10  -4  10   92.66    8.74
 -10  -4 -10   77.93   12.95
   4 -10 -11   13.12    3.15
  10   4 -11    3.23    3.10
  10  -4 -11   -0.57    3.83
  10  -4  11    9.75    5.31
  10   4  11   11.45    5.58
   4 -10  11    6.49    2.97
   4  10  11    4.78    1.59
  -4 -10 -11    5.41    6.37
 -10  -4 -11   12.32    4.54
 -10   4 -11   10.95    6.79
  -4  10 -11    8.96    2.96
   4  10 -11   16.76    6.34
  10   4 -11    9.86    3.98
  -4 -10  11    9.11    4.98
  -4 -10 -11    6.02    3.25
 -10  -4  11    7.10    3.13
 -10  -4 -11    1.62    1.82
   4 -10 -12   94.64   17.99
  10   4 -12   77.51   15.41
  10  -4 -12   86.20   14.79
  10  -4  12   78.70   18.41
  10   4  12   76.34   14.09
   4 -10  12   60.03   14.28
   4  10  12   59.89   15.00
  -4 -10 -12   73.24   13.37
 -10  -4 -12   90.63   16.45
 -10   4 -12   76.08   12.89
  -4  10 -12   78.40   10.38
   4  10 -12  121.39   27.70
  10   4 -12   66.06   13.94
  -4 -10  12   74.64    9.75
 -10  -4 -12   62.30   13.79
   4 -10 -13   40.57    8.44
  10   4 -13   33.18    9.09
  10  -4 -13   42.42   10.03
  10  -4  13   37.23   11.45
  10   4  13   33.99    7.23
   4 -10  13   27.20    8.31
   4  10  13   28.17    7.20
  -4 -10 -13   35.80    8.86
 -10  -4 -13   26.25    5.81
 -10   4 -13   38.83    8.02
  -4  10 -13   24.12   14.58
   4  10 -13   33.02    8.60
  10   4 -13   38.41    6.19
   4 -10 -14    5.60    2.36
  10   4 -14   17.63    5.08
  10  -4 -14   17.32    6.49
  10  -4  14    5.82    6.28
  10   4  14    9.41    5.44
   4 -10  14    8.34    3.63
   4  10  14    7.51    3.86
  -4 -10 -14   15.08    4.21
 -10  -4 -14    8.29    6.93
 -10   4 -14   14.44    6.04
  -4  10 -14    7.24    5.71
   4  10 -14    5.32    5.64
  10   4 -14    9.12    3.49
   4 -10 -15   17.04    3.92
  10   4 -15   13.32    4.86
  10  -4 -15   16.60    5.81
  10  -4  15    7.96    3.82
  10   4  15    7.89    5.16
   4 -10  15   14.67    5.03
   4  10  15   13.33    4.54
  -4 -10 -15   24.80    6.48
 -10  -4 -15   11.13    3.44
 -10   4 -15   34.78    6.93
  -4  10 -15   15.20    6.00
  10   4 -15   14.26    6.14
   4  10 -15    8.29    3.53
   4 -10 -16    3.30    2.36
  10   4 -16    6.88    3.03
  10  -4 -16   -2.93    4.15
  10  -4  16    8.53    5.22
  10   4  16    3.16    1.63
   4 -10  16    0.78    3.90
   4  10  16    6.19    3.00
  -4 -10 -16    2.59    2.63
 -10  -4 -16   -0.15    3.71
 -10   4 -16    8.02    3.31
  -4  10 -16    4.18    4.13
  10   4 -16   10.02    5.50
   4  10 -16    1.05    6.19
   4 -10 -17    7.22    2.85
  10   4 -17   -5.32    4.61
  10  -4 -17   -3.38    4.39
  10  -4  17    4.42    5.37
  10   4  17    5.62    3.38
   4  10  17    1.23    1.66
  -4 -10 -17    1.53    1.98
 -10  -4 -17   -0.54    3.43
 -10   4 -17   11.70    3.99
  -4  10 -17    8.72    4.65
   4  10 -17   14.88    5.31
   4 -10 -18    3.81    2.53
  10   4 -18    2.05    3.28
  10  -4 -18    6.08    4.33
  10  -4  18    5.63    5.41
  10   4  18    1.56    2.70
   4  10  18    6.73    3.96
  -4 -10 -18    2.61    4.23
 -10  -4 -18    9.96    3.06
 -10   4 -18    8.56    3.51
  -4  10 -18    4.61    6.67
   4  10 -18   -1.64    4.66
   4 -10 -19    3.81    3.77
  10   4 -19   15.71    7.51
  10   4  19    9.86    5.04
   4  10  19    9.22    3.76
   5 -10   0    4.12    2.59
  10   5   0    6.92    5.45
  10  -5   0    6.85    5.00
 -10   5   0    0.10    0.78
  -5  10   0    1.79    2.26
  -5 -10   0    2.62    3.60
 -10  -5   0    2.30    1.95
   5 -10  -1  883.26   34.82
   5 -10   1  892.08   36.53
  10   5  -1  889.80   36.28
  10  -5  -1  931.17   37.01
  10  -5   1  863.82   38.76
  10   5   1  892.99   40.55
 -10   5  -1  900.55   34.38
  -5  10  -1  892.97   35.73
  -5  10   1  893.32   34.73
  -5 -10   1  937.46   37.08
  -5 -10  -1  964.39   38.67
 -10  -5   1  923.61   36.74
 -10  -5  -1 1013.92   40.88
   5 -10  -2  383.86   16.95
  10   5  -2  406.45   19.94
  10  -5  -2  384.84   17.60
   5 -10   2  374.17   19.03
  10  -5   2  402.58   18.83
  10   5   2  401.21   26.61
 -10   5  -2  370.51   15.24
  -5  10  -2  405.53   16.60
  -5  10   2  379.49   16.12
   5  10  -2  394.25   19.97
  -5 -10   2  391.67   22.00
  -5 -10  -2  396.84   18.69
 -10  -5   2  397.15   24.63
 -10  -5  -2  458.52   23.16
   5 -10  -3  170.12    9.43
  10   5  -3  175.60    9.30
  10  -5  -3  184.90   18.64
   5 -10   3  165.50    9.97
   5  10   3  178.99    9.45
  10  -5   3  183.38   11.83
  10   5   3  223.11   22.47
 -10   5  -3  175.99   12.56
  -5  10  -3  170.75   14.42
   5  10  -3  170.79   17.79
  -5 -10   3  186.16   11.25
  -5 -10  -3  170.00   11.13
 -10  -5   3  175.79    9.58
 -10  -5  -3  210.44   13.99
   5 -10  -4   34.53    6.58
  10   5  -4   41.78    5.22
  10  -5  -4   21.74    3.10
   5 -10   4   24.15    3.70
  10  -5   4   43.65    7.41
  10   5   4   28.77    7.94
   5  10   4   31.93    5.22
 -10   5  -4   28.37    4.18
  -5  10  -4   39.63    7.53
   5  10  -4   30.68    4.70
  -5 -10   4   30.38    5.45
  -5 -10  -4   24.12    5.86
 -10  -5   4   30.67    5.01
 -10  -5  -4   38.21    7.89
   5 -10  -5  307.33    7.60
  10   5  -5  337.07   15.00
  10  -5  -5  349.58   11.77
   5 -10   5  308.87    7.87
  10  -5   5  312.19   20.72
  10   5   5  321.28   14.13
   5  10   5  314.47   11.40
 -10  -5  -5  307.70   11.44
 -10   5  -5  332.64   11.52
  -5  10  -5  299.67   15.72
   5  10  -5  325.57   24.39
  10   5  -5  315.52   15.73
  -5 -10   5  326.92   11.54
  -5 -10  -5  325.60    9.08
 -10  -5   5  321.33    9.96
 -10  -5  -5  316.82   10.02
   5 -10  -6  125.28   10.03
  10   5  -6  112.15   16.50
  10  -5  -6  143.75   15.18
  10  -5   6  122.84   10.25
   5 -10   6  120.21    9.34
  10   5   6  117.40   14.73
   5  10   6  121.41    8.53
 -10  -5  -6  113.89   18.31
 -10   5  -6  136.59   10.36
  -5  10  -6  143.67   13.92
   5  10  -6  128.55   30.48
  10   5  -6  120.50   15.53
  -5 -10   6  123.18   13.27
  -5 -10  -6  136.36   15.76
 -10  -5   6  128.92   11.44
 -10  -5  -6  123.68   11.05
   5 -10  -7  136.56   14.92
  10   5  -7  149.51   11.19
  10  -5  -7  130.12   19.93
  10  -5   7  142.12    9.86
   5 -10   7  127.49    6.84
  10   5   7  140.98   16.56
   5  10   7  123.64   13.20
 -10  -5  -7  152.00   15.46
 -10   5  -7  146.03    9.38
  -5  10  -7  141.71   12.37
   5  10  -7  136.11   13.52
  10   5  -7  140.05   17.11
  -5 -10   7  151.99    9.92
  -5 -10  -7  138.75   16.79
 -10  -5   7  128.34   15.23
 -10  -5  -7  153.19   12.18
   5 -10  -8   84.07   13.15
  10   5  -8   70.11    5.90
  10  -5  -8   98.13    8.27
  10  -5   8   85.89   18.14
  10   5   8   90.61   19.75
   5 -10   8   83.54   14.75
   5  10   8   64.80   10.82
 -10  -5  -8   77.91   15.23
 -10   5  -8   95.13    6.93
  -5  10  -8   78.96   14.73
   5  10  -8   98.11   16.98
  10   5  -8   73.34   15.48
  -5 -10   8   90.34    7.84
  -5 -10  -8   95.71   13.37
 -10  -5   8   92.11   14.85
 -10  -5  -8   89.10   14.99
   5 -10  -9    8.31    3.31
  10   5  -9    0.62    8.32
  10  -5  -9    4.50    4.39
  10  -5   9    1.96    4.57
  10   5   9    3.77    2.75
   5 -10   9    3.03    2.80
   5  10   9    2.28    3.02
 -10  -5  -9   18.10   11.48
 -10   5  -9    2.42    1.61
  -5  10  -9    9.86    5.69
   5  10  -9    4.76    5.77
  10   5  -9    1.93    3.07
  -5 -10   9    5.70    2.36
  -5 -10  -9   -0.35    2.71
 -10  -5   9    2.57    1.87
 -10  -5  -9    6.92    2.44
   5 -10 -10   42.42    7.04
  10   5 -10   76.47   11.10
  10  -5 -10   57.27    9.44
  10  -5  10   49.16    9.62
  10   5  10   47.28    9.79
   5 -10  10   45.19    7.70
   5  10  10   38.29   10.37
 -10  -5 -10   58.26   11.72
 -10   5 -10   49.43    6.97
  -5  10 -10   68.81   12.27
   5  10 -10   39.96    8.72
  10   5 -10   43.08    9.15
  -5 -10  10   47.11   11.10
  -5 -10 -10   42.56    7.63
 -10  -5  10   31.62    7.18
 -10  -5 -10   42.16    9.45
   5 -10 -11  243.94   11.38
  10   5 -11  224.88   12.28
  10  -5 -11  186.79   26.92
  10  -5  11  212.92   24.82
  10   5  11  206.75   22.50
   5 -10  11  217.39    8.78
   5  10  11  229.54    9.52
  -5 -10 -11  207.16    9.99
 -10  -5 -11  242.76   15.44
 -10   5 -11  224.15   12.94
  -5  10 -11  216.43   14.09
   5  10 -11  214.28   20.47
  10   5 -11  193.81   22.66
  -5 -10  11  212.00   17.25
  -5 -10 -11  216.52   21.78
 -10  -5  11  187.93   16.72
 -10  -5 -11  200.07   16.45
   5 -10 -12    1.87    1.76
  10   5 -12    7.31    2.81
  10  -5 -12   15.20    5.39
  10  -5  12   11.91    5.47
  10   5  12    4.10    5.13
   5 -10  12    4.19    3.72
   5  10  12   10.89    3.55
  -5 -10 -12    6.07    3.11
 -10  -5 -12   -1.82    4.38
 -10   5 -12    9.96    3.81
  -5  10 -12    4.29    3.67
   5  10 -12    7.54    5.62
  10   5 -12    7.36    3.53
  -5 -10  12    2.46    1.29
 -10  -5 -12    1.70    1.33
   5 -10 -13   87.32   13.16
  10   5 -13  104.11   12.06
  10  -5 -13   99.82   17.40
  10  -5  13   79.89   22.25
  10   5  13   91.45   15.48
   5 -10  13   71.70   16.13
   5  10  13   81.61   11.97
  -5 -10 -13   69.25   14.42
 -10  -5 -13  106.60   15.65
 -10   5 -13  106.50   17.53
  -5  10 -13  100.34    9.54
   5  10 -13   89.25   16.52
  10   5 -13   89.58   18.34
   5 -10 -14   25.71    6.69
  10   5 -14   18.76    5.96
  10  -5 -14   18.95    5.60
  10  -5  14   33.57    8.60
  10   5  14   17.39    8.96
   5 -10  14   15.71    4.05
   5  10  14   17.14    5.09
  -5 -10 -14   20.60    4.65
 -10  -5 -14   40.66    9.14
 -10   5 -14   25.59    5.92
  -5  10 -14   11.50    4.98
   5  10 -14   21.30    8.10
  10   5 -14   23.87    7.29
   5 -10 -15   72.12   27.74
  10   5 -15   24.22    5.28
  10  -5 -15    7.19    6.47
  10  -5  15   13.48    8.97
  10   5  15    9.17    3.89
   5 -10  15   19.67    6.92
   5  10  15    9.62    5.56
  -5 -10 -15   24.86    6.67
 -10  -5 -15   13.22    3.31
 -10   5 -15   40.24    6.59
  -5  10 -15   14.48    6.96
   5  10 -15   12.65    4.10
  10   5 -15    7.45    5.85
   5 -10 -16   -0.66    3.01
  10   5 -16    5.48    2.10
  10  -5 -16    4.34    4.08
  10  -5  16   -4.15    4.76
  10   5  16   -0.63    3.45
   5 -10  16    2.17    2.55
   5  10  16    2.41    2.25
  -5 -10 -16    0.50    1.91
 -10  -5 -16    9.87    2.65
 -10   5 -16   25.10   14.90
  -5  10 -16   -4.01    3.88
   5  10 -16    4.97    5.50
  10   5 -16    2.80    3.89
   5 -10 -17   11.18    5.13
  10   5 -17   26.46    6.97
  10  -5 -17   14.65    5.95
  10  -5  17    7.55    3.11
  10   5  17   14.63    5.12
   5 -10  17    7.45    5.57
   5  10  17    8.79    4.80
  -5 -10 -17    8.43    4.61
 -10  -5 -17    8.93    2.63
 -10   5 -17   17.53    4.86
  -5  10 -17   14.03    5.60
  10   5 -17   11.98    5.57
   5  10 -17   13.06    6.08
   5 -10 -18    6.41    3.74
  10   5 -18   10.56    3.39
  10  -5 -18   -1.38    4.29
  10  -5  18    9.63    3.89
  10   5  18    9.93    6.00
   5  10  18    7.02    2.35
  -5 -10 -18    2.40    3.14
 -10  -5 -18    1.71    4.26
 -10   5 -18   10.86    3.38
  -5  10 -18   10.18    5.75
   5  10 -18   11.02    6.29
   5 -10 -19    3.03    2.40
  10   5 -19    4.98    2.61
   6 -10   0   52.87    8.09
  10   6   0   66.14   12.06
  10  -6   0   63.56    8.71
 -10   6   0   58.06    8.69
  -6  10   0   50.50    8.51
  -6 -10   0   70.77   17.14
 -10  -6   0   64.57    8.60
   6 -10  -1  155.03    8.16
  10   6  -1  156.03   12.91
   6 -10   1  159.32    9.07
  10  -6  -1  169.57   11.03
  10  -6   1  149.22   19.96
  10   6   1  160.40   14.32
 -10   6  -1  153.96   12.01
  -6  10  -1  153.09    8.30
  -6 -10   1  162.57   10.35
  -6 -10  -1  160.63   12.32
 -10  -6   1  182.41   15.69
 -10  -6  -1  162.26   16.57
   6 -10  -2  286.98   11.51
  10   6  -2  296.74   11.39
  10  -6  -2  297.09   10.33
   6 -10   2  278.67   10.79
  10  -6   2  293.05    9.68
  10   6   2  290.89    9.82
 -10   6  -2  294.23   10.52
  -6  10  -2  273.52    9.33
  -6 -10   2  301.62    9.53
  -6 -10  -2  290.16    8.90
 -10  -6   2  272.00   12.38
 -10  -6  -2  296.30    9.45
   6 -10  -3   42.54    7.53
  10   6  -3   46.79    7.17
  10  -6  -3   68.79   12.58
   6 -10   3   56.97    8.63
   6  10   3   36.95    7.75
  10  -6   3   44.59    7.60
  10   6   3   62.15   12.45
 -10   6  -3   56.85    9.57
  -6  10  -3   44.84    8.68
   6  10  -3   70.58   13.05
  -6 -10   3   37.57    8.42
  -6 -10  -3   66.16   15.06
 -10  -6   3   57.60   10.06
 -10  -6  -3   45.52    8.13
   6 -10  -4   48.45    8.29
  10   6  -4   52.45   11.42
  10  -6  -4   47.05    7.47
   6 -10   4   37.29    6.60
  10  -6   4  133.09   22.01
  10   6   4   30.55    7.79
   6  10   4   46.50    8.37
 -10   6  -4   36.80    7.44
  -6  10  -4   55.84   10.38
   6  10  -4   37.61    7.44
  -6 -10   4   48.94   10.46
  -6 -10  -4   39.00    8.38
 -10  -6   4   35.97    6.01
 -10  -6  -4   52.28   10.66
   6 -10  -5   47.32    9.48
  10   6  -5   56.33    7.83
  10  -6  -5   60.05   10.43
   6 -10   5   59.79    9.52
  10  -6   5   63.29   12.09
  10   6   5   61.84   14.28
   6  10   5   45.67    8.27
 -10   6  -5   77.91    7.67
  -6  10  -5   49.15    6.17
   6  10  -5   76.47   14.96
  10   6  -5   41.92    7.29
  -6 -10   5   66.21   13.54
  -6 -10  -5   67.02   13.22
 -10  -6   5   64.64   11.94
 -10  -6  -5   49.43   10.34
   6 -10  -6   25.73    4.48
  10   6  -6   31.79    7.29
  10  -6  -6   35.96    6.42
  10  -6   6   34.12    7.01
   6 -10   6   36.48    6.24
  10   6   6   38.17    5.24
   6  10   6   30.47    5.34
 -10  -6  -6   30.61    8.17
 -10   6  -6   38.72    6.73
  -6  10  -6   34.21    6.44
   6  10  -6   33.14    7.89
  10   6  -6   41.02    6.61
  -6 -10   6   36.41    8.35
  -6 -10  -6   46.00    7.86
 -10  -6   6   42.47    6.74
 -10  -6  -6   38.76    9.77
   6 -10  -7   89.15   13.69
  10   6  -7   97.58    8.92
  10  -6  -7   88.06   15.17
  10  -6   7  102.69   20.17
   6 -10   7   77.01   12.48
  10   6   7   80.75    7.68
   6  10   7   89.09    9.99
 -10  -6  -7   98.91   18.39
 -10   6  -7   97.49    7.03
  -6  10  -7   88.92    8.60
   6  10  -7   86.10   18.34
  10   6  -7   90.82    8.56
  -6 -10   7   92.53   15.76
  -6 -10  -7   96.69   11.97
 -10  -6   7   92.50    7.70
 -10  -6  -7   76.04   15.97
   6 -10  -8  197.50   16.43
  10   6  -8  201.55   13.90
  10  -6  -8  188.93   19.55
  10  -6   8  212.06   10.57
   6 -10   8  180.77   16.87
  10   6   8  171.79   16.67
   6  10   8  182.17   10.85
 -10  -6  -8  248.68   16.13
 -10   6  -8  170.31   14.63
  -6  10  -8  182.86   12.08
   6  10  -8  174.97   24.09
  10   6  -8  175.56   15.19
  -6 -10   8  209.61    8.27
  -6 -10  -8  199.32   17.06
 -10  -6   8  161.57   11.92
 -10  -6  -8  203.61   17.52
   6 -10  -9  203.51   16.05
  10   6  -9  174.53   11.36
  10  -6  -9  178.74   27.16
  10  -6   9  174.38   15.38
   6 -10   9  154.47   16.94
  10   6   9  166.95   15.47
   6  10   9  182.12   10.95
 -10  -6  -9  196.10   12.49
 -10   6  -9  189.76    9.64
  -6  10  -9  186.22   10.04
   6  10  -9  188.08   13.61
  10   6  -9  224.75   30.09
  -6 -10   9  159.33    9.74
  -6 -10  -9  184.43   13.85
 -10  -6   9  172.85   13.28
 -10  -6  -9  188.03   12.42
   6 -10 -10  217.31   19.86
  10  -6 -10  243.28   13.81
  10  -6  10  225.20   29.02
   6 -10  10  216.05   18.31
  10   6  10  216.49    8.78
   6  10  10  210.14   12.28
 -10  -6 -10  234.59   14.61
 -10   6 -10  205.62   16.15
  -6  10 -10  216.40   23.72
   6  10 -10  216.04   17.15
  10   6 -10  219.30   28.36
  -6 -10  10  204.73   14.18
  -6 -10 -10  221.25   10.97
 -10  -6  10  208.04   13.47
 -10  -6 -10  216.21   17.56
   6 -10 -11   24.52    5.82
  10   6 -11   24.21    4.38
  10  -6 -11   26.20    5.45
  10  -6  11   11.06    4.56
  10   6  11   20.65    7.26
   6 -10  11   21.88    3.65
   6  10  11   21.05    4.60
  -6 -10 -11   19.99    6.11
 -10  -6 -11   29.73    5.54
 -10   6 -11   23.32    6.63
  -6  10 -11   31.75    6.84
   6  10 -11   15.56    5.28
  10   6 -11   24.00    7.79
  -6 -10  11   20.14    5.32
  -6 -10 -11   25.28    4.61
 -10  -6  11   16.44    2.75
 -10  -6 -11   24.52    5.36
   6 -10 -12   17.39    4.41
  10   6 -12   12.21    4.12
  10  -6 -12   11.41    3.76
  10  -6  12   20.11    6.25
  10   6  12    9.86    5.32
   6 -10  12   12.53    3.51
   6  10  12    8.11    3.95
  -6 -10 -12   13.93    4.56
 -10  -6 -12   10.91    4.35
 -10   6 -12   11.45    3.60
  -6  10 -12   15.29    5.63
   6  10 -12   11.72    4.97
  10   6 -12   11.00    5.94
 -10  -6 -12    8.04    4.96
   6 -10 -13   25.34    5.68
  10   6 -13   45.98    9.23
  10  -6 -13   33.42    7.02
  10  -6  13   43.66    8.96
  10   6  13   42.50   10.08
   6 -10  13   37.15    9.60
   6  10  13   25.76    8.88
  -6 -10 -13   31.16    7.47
 -10  -6 -13   41.73    9.60
 -10   6 -13   43.62   10.11
  -6  10 -13   30.36    6.15
   6  10 -13   40.93   12.82
  10   6 -13   46.26    7.38
   6 -10 -14   40.71    7.22
  10   6 -14   60.92   11.70
  10  -6 -14   50.76    9.35
  10  -6  14   43.71   10.79
  10   6  14   44.57   10.80
   6 -10  14   50.67   15.09
   6  10  14   26.11   10.36
  -6 -10 -14   43.55   12.22
 -10  -6 -14   59.56   10.64
 -10   6 -14   50.15   14.38
  -6  10 -14   57.33    8.24
   6  10 -14   49.04   14.55
  10   6 -14   59.35   12.02
   6 -10 -15   14.90    4.28
  10   6 -15    5.39    1.81
  10  -6 -15   13.67    4.48
  10  -6  15    9.50    3.15
  10   6  15    4.21    3.41
   6 -10  15    6.50    4.86
   6  10  15    6.82    4.21
  -6 -10 -15   15.04    2.86
 -10  -6 -15   18.15    5.17
 -10   6 -15   15.60    6.12
  -6  10 -15    8.97    2.80
   6  10 -15    9.43    3.37
  10   6 -15    6.59    3.44
   6 -10 -16   12.61    4.47
  10   6 -16   22.78    5.98
  10  -6 -16   12.42    4.62
  10  -6  16   13.12    6.03
  10   6  16    2.83    3.73
   6 -10  16    9.30    4.70
   6  10  16   10.22    6.80
  -6 -10 -16   24.42    7.86
 -10  -6 -16   23.37    6.60
 -10   6 -16   22.06    5.98
  -6  10 -16   13.54    5.27
   6  10 -16   10.25    6.56
  10   6 -16   19.63    8.08
   6 -10 -17   14.26    5.63
  10   6 -17    4.74    3.50
  10  -6 -17    3.27    2.90
  10  -6  17    5.59    3.93
  10   6  17    4.48    5.42
   6 -10  17    0.95    2.49
  -6 -10 -17    2.21    3.40
 -10  -6 -17    5.24    2.86
 -10   6 -17   -2.17    3.71
  -6  10 -17    4.68    2.41
  10   6 -17    3.59    2.76
   6  10 -17    9.29    6.11
   6 -10 -18   25.33    6.78
  10   6 -18   36.24    9.93
  10  -6 -18   42.04   14.55
  10  -6  18   10.57    6.18
  10   6  18   18.52    7.68
  -6 -10 -18   28.82    7.13
 -10  -6 -18   37.03   10.74
 -10   6 -18   28.20    5.20
  -6  10 -18   29.83    7.98
  10   6 -18   21.97    7.33
   6  10 -18   24.04    7.04
   6 -10 -19   13.96    7.27
  10   6 -19   16.83    7.35
  -6 -10 -19   18.13    7.32
   7 -10   0    4.63    2.88
  10   7   0    1.23    2.93
  10  -7   0    6.12    3.88
  -7 -10   0    8.48    3.98
 -10  -7   0    7.82    4.08
   7 -10  -1  170.38    7.74
  10   7  -1  165.69   13.83
  10  -7  -1  195.04   18.58
   7 -10   1  197.86    7.15
  10  -7   1  175.68   16.25
  10   7   1  180.27   12.05
  -7  10  -1  158.56    7.66
  -7 -10   1  158.15   17.42
  -7 -10  -1  175.46   13.13
 -10  -7   1  187.16    8.84
 -10  -7  -1  178.69   17.41
   7 -10  -2   57.72    9.90
  10   7  -2   46.00   10.63
  10  -7  -2   47.68    9.31
   7 -10   2   51.41    9.50
  10  -7   2   59.69    9.90
  10   7   2   43.46   12.20
 -10   7  -2   47.59    8.21
  -7  10  -2   44.90    7.02
  -7 -10   2   56.67   11.70
  -7 -10  -2   52.31    7.99
 -10  -7   2   48.46   14.95
 -10  -7  -2   48.74    9.58
   7 -10  -3   -0.56    2.34
  10   7  -3    5.18    2.70
  10  -7  -3    4.67    1.39
   7 -10   3    3.96    1.68
   7  10   3    3.00    1.36
  10  -7   3    2.01    1.36
  10   7   3    0.43    3.26
 -10   7  -3    1.82    1.19
  -7  10  -3    0.56    0.92
   7  10  -3   -4.24    5.48
  -7 -10   3    4.36    2.94
  -7 -10  -3    4.34    2.63
 -10  -7   3    2.47    1.95
 -10  -7  -3    3.33    1.53
   7 -10  -4   26.10    4.60
  10   7  -4   18.53    3.83
  10  -7  -4   26.84    4.98
   7 -10   4   28.48    4.47
  10  -7   4   22.44    5.66
   7  10   4   15.36    4.09
  10   7   4   22.36    6.45
 -10   7  -4   29.46    4.82
  -7  10  -4   29.10    5.13
   7  10  -4   30.01    7.69
  -7 -10   4   26.24    4.76
  -7 -10  -4   26.87    5.11
 -10  -7   4   35.93    5.38
 -10  -7  -4   29.75    7.05
   7 -10  -5  316.33   16.28
  10   7  -5  336.01   17.68
  10  -7  -5  337.37   16.76
  10  -7   5  330.28   15.18
  10   7   5  357.66   17.39
   7  10   5  319.27   18.37
 -10   7  -5  365.05   14.74
  -7  10  -5  338.28   16.86
   7  10  -5  356.23   18.17
  10   7  -5  311.85   23.41
  -7 -10   5  326.99   22.76
  -7 -10  -5  343.34   19.16
 -10  -7   5  338.09   17.30
 -10  -7  -5  340.53   15.05
   7 -10  -6   38.20    5.03
  10   7  -6   27.96    5.49
  10  -7  -6   33.43    7.49
  10  -7   6   38.24    6.32
   7 -10   6   25.35    5.63
  10   7   6   21.41    7.17
   7  10   6   27.09    7.00
 -10   7  -6   29.37    4.82
  -7  10  -6   37.12    4.10
   7  10  -6   27.32    8.49
  10   7  -6   38.75    7.25
  -7 -10   6   42.60    8.59
  -7 -10  -6   39.40    5.82
 -10  -7   6   30.65    5.63
 -10  -7  -6   36.03    6.75
   7 -10  -7  246.45   11.50
  10   7  -7  271.66   10.20
  10  -7  -7  274.78   19.37
  10  -7   7  258.45   16.55
   7 -10   7  268.98   18.26
  10   7   7  281.19   12.61
   7  10   7  244.28   15.57
 -10   7  -7  285.98   12.07
  -7  10  -7  260.60   14.75
   7  10  -7  280.67   17.51
  10   7  -7  260.38   14.71
  -7 -10   7  293.62   21.49
  -7 -10  -7  295.76   15.90
 -10  -7   7  283.85   17.42
 -10  -7  -7  281.42   19.89
   7 -10  -8   25.33    3.57
  10   7  -8   21.22    6.33
  10  -7  -8   15.47    4.89
  10  -7   8   19.51    6.32
   7 -10   8   19.54    4.45
  10   7   8   14.97    4.89
   7  10   8   21.47    4.17
 -10  -7  -8   21.55    6.16
 -10   7  -8   15.18    3.41
  -7  10  -8   21.20    5.06
   7  10  -8    9.19    9.22
  10   7  -8    9.47    5.88
  -7 -10   8   22.03    5.01
  -7 -10  -8   23.05    6.23
 -10  -7   8   19.55    5.93
 -10  -7  -8   21.25    4.80
   7 -10  -9   81.91   12.35
  10   7  -9   77.02   12.88
  10  -7  -9   61.94   10.72
  10  -7   9   74.03   13.73
   7 -10   9   60.09   12.53
  10   7   9   59.27   14.26
   7  10   9   63.36    7.68
 -10  -7  -9   86.42   16.01
 -10   7  -9   72.12   13.20
  -7  10  -9   58.59   12.19
   7  10  -9   65.74   13.81
  10   7  -9   78.01   14.24
  -7 -10   9   73.14   12.52
  -7 -10  -9   81.42   13.23
 -10  -7   9   73.46   10.01
 -10  -7  -9   77.20    6.62
   7 -10 -10   31.33    5.36
  10   7 -10   32.00    7.61
  10  -7 -10   32.25    6.63
  10  -7  10   35.18    8.05
   7 -10  10   23.99    4.51
   7  10  10   28.35    6.67
 -10  -7 -10   36.91    9.52
 -10   7 -10   34.38    7.37
  -7  10 -10   29.15    6.29
   7  10 -10   34.31   10.87
  10   7 -10   68.35   19.37
  -7 -10  10   33.87    8.04
  -7 -10 -10   37.93    7.47
 -10  -7  10   36.46    6.14
 -10  -7 -10   22.84    6.94
   7 -10 -11  127.59   21.53
  10   7 -11  143.56   12.38
  10  -7 -11  140.73   20.16
  10  -7  11  135.68   16.51
   7 -10  11  106.30   17.24
  10   7  11  117.58   12.82
   7  10  11  133.40    9.95
 -10  -7 -11  126.23   20.32
 -10   7 -11  130.33   14.13
  -7  10 -11  128.23   11.31
   7  10 -11  132.68   18.84
  10   7 -11  136.62   20.36
  -7 -10  11  139.25   14.03
  -7 -10 -11  138.45   16.04
 -10  -7  11  150.23    9.63
 -10  -7 -11  116.53   13.08
   7 -10 -12    3.20    2.58
  10   7 -12    2.33    1.99
  10  -7 -12    7.75    2.34
  10  -7  12    3.23    3.00
   7 -10  12   13.21    3.94
  10   7  12    3.47    2.13
   7  10  12    0.48    1.50
  -7 -10 -12    3.77    2.56
 -10  -7 -12   -3.84    4.13
 -10   7 -12   10.57    3.79
  -7  10 -12    5.37    3.30
   7  10 -12    5.50    3.22
  10   7 -12    4.16    1.88
  -7 -10 -12    4.42    2.76
 -10  -7 -12    6.75    3.48
   7 -10 -13   14.07    4.91
  10   7 -13    7.23    2.43
  10  -7 -13   13.40    3.84
  10  -7  13    5.26    4.16
   7 -10  13    8.27    2.69
  10   7  13    7.36    5.00
   7  10  13    8.80    5.38
  -7 -10 -13    8.49    2.29
 -10  -7 -13   12.08    6.16
 -10   7 -13    8.37    5.01
  -7  10 -13   10.92    5.04
   7  10 -13    7.72    5.95
  10   7 -13    8.38    4.22
   7 -10 -14    9.70    4.13
  10   7 -14    4.17    1.87
  10  -7 -14    9.02    5.11
  10  -7  14    4.76    3.78
   7 -10  14   -1.97    3.42
  10   7  14    2.73    4.16
   7  10  14    4.43    3.22
  -7 -10 -14    4.01    3.35
 -10  -7 -14    8.71    4.09
 -10   7 -14    8.33    6.18
  -7  10 -14    3.46    1.56
   7  10 -14   14.37    6.72
  10   7 -14    2.74    3.49
   7 -10 -15   13.93    3.49
  10   7 -15   32.21    7.88
  10  -7 -15   17.54    4.62
  10  -7  15   20.70    9.28
   7 -10  15   16.00    7.19
  10   7  15   15.78    4.80
   7  10  15   18.64    5.53
  -7 -10 -15   12.78    6.24
 -10  -7 -15   35.63    8.92
 -10   7 -15   22.62    4.92
  -7  10 -15   12.24    6.02
   7  10 -15   18.43    9.21
  10   7 -15   10.09    4.78
   7 -10 -16   -1.03    4.41
  10   7 -16    5.06    2.77
  10  -7 -16    8.78    3.57
  10  -7  16    2.46    2.99
   7 -10  16    3.80    2.38
  10   7  16   -2.82    3.65
  -7 -10 -16    3.53    2.22
 -10  -7 -16   18.11   14.04
 -10   7 -16    4.65    3.02
  -7  10 -16    3.30    3.60
   7  10 -16    2.66    3.03
  10   7 -16    8.14    5.02
   7 -10 -17   45.47   15.39
  10   7 -17   38.50   12.75
  10  -7 -17   59.25   10.13
  10  -7  17   41.50   17.18
   7 -10  17   47.47    8.92
  10   7  17   51.33   13.34
  -7 -10 -17   34.63   10.80
 -10  -7 -17   70.96   14.32
 -10   7 -17   39.17   14.07
  -7  10 -17   41.74   15.58
  10   7 -17   44.01   14.83
   7  10 -17   26.09    8.40
   7 -10 -18    3.77    3.02
  10   7 -18    7.43    3.88
  10  -7 -18    5.78    3.45
  10  -7  18    5.11    4.36
  10   7  18    6.57    4.57
  -7 -10 -18    8.50    4.44
  10   7 -18    5.48    3.88
   7  10 -18    2.40    4.16
   8 -10   0    2.96    2.47
  10   8   0    1.12    1.18
  10  -8   0   -2.21    3.67
  -8 -10   0   -0.09    4.68
 -10  -8   0    1.75    5.84
   8 -10  -1   89.37   14.12
  10   8  -1   92.22    9.94
  10  -8  -1  104.89    8.45
   8 -10   1  103.80   11.97
  10   8   1   99.64    6.70
  10  -8   1   86.81   15.50
  -8 -10   1  124.54   22.54
  -8 -10  -1  128.19   19.05
 -10  -8   1   95.57   19.08
 -10  -8  -1  120.23    8.79
   8 -10  -2   11.73    4.75
  10   8  -2   13.93    3.21
  10  -8  -2    9.79    5.51
   8 -10   2    7.12    5.33
  10   8   2   11.01    3.33
  -8 -10   2    2.36    4.46
  -8 -10  -2    5.52    3.93
 -10  -8   2   12.20    3.79
 -10  -8  -2   18.00    6.23
   8 -10  -3  313.38   14.99
  10   8  -3  302.22   18.91
  10  -8  -3  324.79   15.21
   8 -10   3  280.79   22.19
  10  -8   3  326.62   24.14
  10   8   3  297.29   15.36
 -10   8  -3  296.81   12.94
  -8  10  -3  305.32   15.23
   8  10  -3  298.68   15.84
  -8 -10   3  335.73   21.12
  -8 -10  -3  312.74   17.94
 -10  -8   3  313.30   28.07
 -10  -8  -3  299.90   15.10
   8 -10  -4   72.76   15.56
  10   8  -4   83.13    9.81
  10  -8  -4   85.77   15.20
   8 -10   4   82.99   11.76
  10  -8   4   91.07   18.10
   8  10   4   70.84   12.78
  10   8   4   63.53   12.50
 -10   8  -4   79.64   12.17
  -8  10  -4   88.20    9.22
   8  10  -4   95.22   16.48
  10   8  -4  105.29   10.33
  -8 -10   4  100.00   14.69
  -8 -10  -4   91.36   14.76
 -10  -8   4   76.91   14.07
 -10  -8  -4  101.03    7.27
   8 -10  -5   26.64    4.74
  10   8  -5   30.62    6.12
  10  -8  -5   38.68    7.88
   8 -10   5   36.02    7.53
  10  -8   5   40.49    8.13
  10   8   5   45.22    6.76
   8  10   5   31.79    6.09
 -10   8  -5   38.07    7.97
  -8  10  -5   32.10    7.25
   8  10  -5   43.11    9.70
  10   8  -5   35.61    7.08
  -8 -10   5   39.96    6.35
  -8 -10  -5   43.40    8.31
 -10  -8   5   36.35    8.81
 -10  -8  -5   23.08    6.76
   8 -10  -6   10.00    2.81
  10   8  -6    9.93    3.55
  10  -8  -6    7.01    3.97
   8 -10   6    5.90    3.60
  10  -8   6    9.02    4.23
  10   8   6    9.41    3.77
   8  10   6    5.10    2.38
 -10   8  -6    8.72    2.42
  -8  10  -6    5.69    3.72
   8  10  -6   11.69    7.02
  10   8  -6    7.77    5.16
  -8 -10   6    4.72    3.64
  -8 -10  -6    9.02    4.50
 -10  -8   6    7.12    5.25
 -10  -8  -6    5.00    3.99
   8 -10  -7  116.25    6.59
  10   8  -7  117.94   12.66
  10  -8  -7  110.32    8.78
  10  -8   7  123.29   10.79
   8 -10   7   86.18   13.58
  10   8   7  102.47   10.23
   8  10   7  101.47   13.52
 -10   8  -7  112.64    6.72
  -8  10  -7  110.45    9.89
   8  10  -7  126.10   11.22
  10   8  -7  124.49   15.58
  -8 -10   7  124.92   12.74
  -8 -10  -7  112.45   13.20
 -10  -8   7  112.69   16.70
 -10  -8  -7  125.15   16.11
   8 -10  -8  129.93   14.11
  10   8  -8  133.68   15.32
  10  -8  -8  154.09    7.74
  10  -8   8  126.54   10.87
   8 -10   8  130.47   20.17
  10   8   8  127.07   19.08
   8  10   8  150.14    7.66
 -10   8  -8  155.54   12.53
  -8  10  -8  138.27   11.75
   8  10  -8  131.28   21.06
  10   8  -8  146.17   10.11
  -8 -10   8  152.55   14.32
  -8 -10  -8  147.02   14.86
 -10  -8   8  148.43   17.81
 -10  -8  -8  140.05   10.77
  10   8  -9   95.88   16.70
   8 -10  -9   81.53   14.00
  10  -8  -9   86.13   13.20
  10  -8   9   88.34   19.79
   8 -10   9   82.37    9.61
  10   8   9   82.77   22.57
   8  10   9   76.88   14.96
 -10  -8  -9   78.65   16.44
 -10   8  -9   97.49   18.58
  -8  10  -9   89.02   18.10
   8  10  -9   98.42   17.53
  10   8  -9   83.73   19.38
  -8 -10   9   99.53   17.52
  -8 -10  -9   97.81   17.16
 -10  -8   9   98.70   13.90
 -10  -8  -9   75.19   17.51
  10   8 -10    8.01    2.43
   8 -10 -10   13.94    4.07
  10  -8 -10    5.90    3.36
  10  -8  10    1.51    5.09
   8 -10  10    3.47    2.27
  10   8  10   12.88    4.52
   8  10  10   -0.35    2.23
 -10  -8 -10    4.73    2.19
 -10   8 -10    8.98    3.12
  -8  10 -10    3.40    1.74
   8  10 -10    8.22    5.28
  10   8 -10    7.90    4.87
  -8 -10  10    4.81    2.60
  -8 -10 -10    2.43    1.99
 -10  -8  10    5.55    2.20
 -10  -8 -10    6.82    2.62
  10   8 -11    5.61    3.16
   8 -10 -11    1.41    1.70
  10  -8 -11   10.53    7.29
  10  -8  11    3.33    2.79
   8 -10  11   -1.40    3.23
  10   8  11    2.35    1.77
   8  10  11    0.52    2.08
 -10  -8 -11    1.91    2.51
 -10   8 -11    4.79    3.57
  -8  10 -11    3.76    4.05
   8  10 -11    6.67    4.09
  10   8 -11    8.11    3.02
  -8 -10  11    2.90    2.09
  -8 -10 -11    4.32    2.10
 -10  -8  11    1.79    1.40
 -10  -8 -11    4.23    3.39
  10   8 -12   24.34    8.48
   8 -10 -12   45.81    8.86
  10  -8 -12   51.81    8.68
  10  -8  12   26.37    6.62
   8 -10  12   26.80   10.41
  10   8  12   39.32   11.08
   8  10  12   21.16    7.58
  -8 -10 -12   26.38   10.98
 -10  -8 -12   48.96    9.96
 -10   8 -12   32.24    7.73
  -8  10 -12   24.35    7.59
   8  10 -12   25.99    8.97
  10   8 -12   37.27    6.78
  -8 -10 -12   28.92    6.63
 -10  -8 -12   30.46    6.23
  10   8 -13   42.70    8.27
   8 -10 -13   60.54   10.84
  10  -8 -13   51.22    8.91
  10  -8  13   44.27   10.37
   8 -10  13   39.02   11.78
  10   8  13   38.62   11.40
   8  10  13   38.18   11.89
  -8 -10 -13   40.42   12.57
 -10  -8 -13   49.41    9.45
 -10   8 -13   39.68   11.27
  -8  10 -13  129.74   39.30
   8  10 -13   45.08   14.56
  10   8 -14    0.21    1.56
   8 -10 -14   -1.39    2.88
  10  -8 -14    1.47    1.91
  10  -8  14    3.74    2.90
   8 -10  14    2.21    2.12
  10   8  14   -1.83    3.24
  -8 -10 -14    2.96    2.91
 -10  -8 -14    2.88    4.09
 -10   8 -14    1.10    2.14
  -8  10 -14    6.07    2.64
   8  10 -14    6.30    5.38
  10   8 -14    5.01    4.26
  10   8 -15    7.98    3.51
   8 -10 -15   16.74    4.67
  10  -8 -15   17.94    6.05
  10  -8  15   11.07    4.66
   8 -10  15   13.86    5.56
  10   8  15   11.30    6.26
  -8 -10 -15   18.71    6.00
 -10  -8 -15   13.86    4.49
 -10   8 -15   17.34    7.09
  -8  10 -15   13.71    4.86
   8  10 -15   10.07    4.57
  10   8 -15   17.48    7.58
  10   8 -16    7.99    2.78
   8 -10 -16    7.23    3.65
  10  -8 -16    6.45    3.11
  10  -8  16   15.01    5.86
   8 -10  16    8.22    3.75
  10   8  16    7.51    5.19
  -8 -10 -16    8.61    4.93
 -10  -8 -16   11.84    3.42
 -10   8 -16    5.10    4.18
  -8  10 -16    7.06    6.28
  10   8 -16    9.66    6.62
   8  10 -16   10.08    5.34
   8 -10 -17    5.83    2.95
  10  -8 -17   -2.77    4.29
  10  -8  17   -1.28    4.76
   8 -10  17    3.09    4.92
  10   8  17    0.29    2.86
  -8 -10 -17    5.23    6.02
 -10  -8 -17    3.25    4.84
 -10   8 -17    7.25    4.43
  -8  10 -17    3.51    3.31
   8  10 -17    3.17    4.82
  10   8 -17    4.73    3.49
   8 -10 -18   43.18    7.44
  10  -8  18    6.42    2.78
  10   8  18    0.94    2.74
  10   8 -18    2.03    3.01
  10   9   0  241.68   11.26
   9 -10   0  245.74   19.91
  10  -9   0  227.44   17.10
  -9 -10   0  264.36   23.37
 -10  -9   0  276.25   19.11
  10   9  -1  155.76    9.29
   9 -10  -1  142.65   17.55
  10  -9  -1  174.91   10.26
   9 -10   1  147.31   20.14
  10   9   1  163.54    7.64
  10  -9   1  146.76   20.10
  -9 -10   1  155.06   23.20
  -9 -10  -1  144.71   21.56
 -10  -9   1  172.82   17.48
 -10  -9  -1  152.85   17.58
  10   9  -2  130.41    8.72
   9 -10  -2  131.92   19.09
  10  -9  -2  124.78   17.51
   9 -10   2  152.39   12.51
  10   9   2  136.28    7.99
  10  -9   2  119.87   18.90
  -9 -10   2  158.03   24.51
  -9 -10  -2  136.37   22.36
 -10  -9   2  163.29   23.83
 -10  -9  -2  127.19   23.10
  10   9  -3   43.79    8.43
   9 -10  -3   37.74    6.76
  10  -9  -3   45.68    7.95
   9 -10   3   48.02    8.01
  10  -9   3   49.02    6.67
  10   9   3   42.71    9.73
  -9 -10   3   55.51    8.51
  -9 -10  -3   50.67   11.69
 -10  -9   3   57.44   11.80
 -10  -9  -3   51.02    9.93
  10   9  -4   22.92    6.71
   9 -10  -4   38.04    7.36
  10  -9  -4   28.87    5.07
   9 -10   4   25.19    4.58
  10  -9   4   42.08    6.73
  10   9   4   20.97    5.11
  -9  10  -4   28.37    7.95
   9  10  -4   20.44    8.06
  10   9  -4   40.70   11.19
  -9 -10   4   32.07    7.23
  -9 -10  -4   34.72    9.63
 -10  -9   4   21.20    4.54
 -10  -9  -4   32.97    7.67
  10   9  -5  104.35   10.54
   9 -10  -5  103.15   16.19
  10  -9  -5  118.94    7.51
   9 -10   5   98.21   16.54
  10  -9   5   98.51   13.54
  10   9   5  118.68   11.22
 -10   9  -5  116.81    8.22
  -9  10  -5   91.08   11.50
   9  10  -5  103.19   16.37
  10   9  -5  105.27   12.17
  -9 -10   5  133.73   17.58
  -9 -10  -5  127.53   20.59
 -10  -9   5  125.60   17.49
 -10  -9  -5  102.69   16.08
  10   9  -6   40.03   10.42
   9 -10  -6   41.29    7.04
  10  -9  -6   50.71    9.57
   9 -10   6   60.10   10.05
  10  -9   6  107.60   17.09
  10   9   6   46.50    6.71
 -10   9  -6   53.61    8.84
  -9  10  -6   37.63    7.00
   9  10  -6   39.64    7.48
  10   9  -6   42.13   11.39
  -9 -10   6   47.86    9.56
 -10  -9   6   53.59    7.97
  -9 -10  -6   65.16   11.40
 -10  -9  -6   44.61   13.36
  10   9  -7   29.13    5.37
   9 -10  -7   22.06    5.23
  10  -9  -7   26.70    6.31
  10  -9   7   18.35    5.29
   9 -10   7   26.62    6.31
  10   9   7   22.85    6.51
   9  10   7   23.72    4.26
 -10   9  -7   19.95    5.17
  -9  10  -7   25.27    5.06
   9  10  -7   18.97    7.02
  10   9  -7   10.84    5.84
  -9 -10   7   22.40    5.97
 -10  -9   7   29.08    5.13
  -9 -10  -7   35.33    6.15
 -10  -9  -7   26.77    5.09
  10   9  -8   14.23    3.63
   9 -10  -8   11.98    4.66
  10  -9  -8   14.22    6.40
  10  -9   8    6.45    2.52
   9 -10   8   11.81    2.81
  10   9   8    7.08    3.85
   9  10   8    9.45    2.24
 -10   9  -8    8.27    3.43
  -9  10  -8   11.64    3.13
   9  10  -8    7.25    3.00
  10   9  -8    8.85    5.59
  -9 -10   8   13.01    2.63
 -10  -9   8    7.38    3.16
  -9 -10  -8   13.26    4.22
 -10  -9  -8   19.57    5.60
  10   9  -9    2.61    2.12
   9 -10  -9    5.63    2.13
  10  -9  -9    8.45    5.16
  10  -9   9   -1.90    4.02
   9 -10   9    5.35    4.62
  10   9   9    2.63    2.20
 -10   9  -9    3.74    1.51
  -9  10  -9    3.88    2.91
   9  10  -9   -4.30    5.93
  10   9  -9   11.97    8.85
  -9 -10   9    2.06    2.18
 -10  -9   9    2.79    1.18
  -9 -10  -9    2.37    2.71
 -10  -9  -9    1.93    2.86
  10   9 -10   33.97    9.03
   9 -10 -10   44.24    7.22
  10  -9 -10   32.82    6.26
   9 -10  10   36.17    9.69
  10  -9  10   38.05    9.61
  10   9  10   27.12    5.87
   9  10  10   28.89    5.91
 -10   9 -10   23.99    7.10
  -9  10 -10   36.52    7.21
   9  10 -10   41.13    8.56
  10   9 -10   34.21    8.76
  -9 -10  10   35.55    7.58
 -10  -9  10   39.78    5.75
  -9 -10 -10   41.68    6.71
 -10  -9 -10   42.02    7.98
   9 -10 -11   98.04   17.44
  10  -9 -11  115.79   15.76
  10  -9  11  109.87   12.19
   9 -10  11  107.83   15.18
  10   9  11   84.76   22.53
 -10  -9 -11   98.34   24.99
 -10   9 -11  111.38   13.32
  -9  10 -11   75.55   19.79
   9  10 -11  117.59   18.88
  10   9 -11   76.15   19.94
  -9 -10  11   85.77   19.19
 -10  -9  11   90.90   18.78
  -9 -10 -11  116.81   16.90
 -10  -9 -11  105.56   18.91
   9 -10 -12   60.96   10.56
  10  -9 -12   65.27   10.61
  10  -9  12   45.18   11.74
   9 -10  12   54.37   11.93
  10   9  12   61.25   13.87
 -10  -9 -12   57.31   12.16
 -10   9 -12   73.29    9.10
  -9  10 -12   72.79    9.14
   9  10 -12   72.82   16.69
  10   9 -12   49.02   10.64
  -9 -10 -12   74.32   10.00
 -10  -9 -12   60.73   11.53
   9 -10 -13   13.49    3.62
  10  -9 -13    4.85    3.48
  10  -9  13    9.42    4.66
   9 -10  13   12.00    5.43
  10   9  13    4.69    2.56
  -9 -10 -13    6.63    4.29
 -10  -9 -13   10.59    4.17
 -10   9 -13   11.74    4.62
  -9  10 -13    2.96    2.87
   9  10 -13    8.22    3.35
  10   9 -13    4.45    5.21
   9 -10 -14   11.24    4.10
  10  -9 -14   -0.48    3.88
  10  -9  14    5.25    1.75
   9 -10  14   10.63    6.08
  10   9  14    5.02    2.96
  -9 -10 -14    5.05    2.58
 -10  -9 -14    7.09    2.89
 -10   9 -14   -0.44    3.48
  -9  10 -14   -1.41    3.15
  10   9 -14   10.87    4.82
   9  10 -14    7.03    4.62
   9 -10 -15    6.37    2.94
  10  -9 -15    7.16    4.23
  10  -9  15    4.85    4.83
   9 -10  15    6.63    4.15
  10   9  15   11.98    5.95
  -9 -10 -15   10.91    6.66
 -10  -9 -15    0.15    4.30
 -10   9 -15    8.25    3.50
  -9  10 -15    8.05    2.45
   9  10 -15    1.21    4.48
  10   9 -15    7.78    4.86
   9 -10 -16   26.39    4.65
  10  -9 -16   19.30    5.95
  10  -9  16   19.47    6.66
   9 -10  16   11.01    5.91
  10   9  16   11.72    4.31
  -9 -10 -16   21.88    6.96
 -10  -9 -16   10.62    4.98
 -10   9 -16    8.99    3.32
  -9  10 -16   14.73    6.38
  10   9 -16   14.06    8.14
   9  10 -16   11.18    4.71
  10  -9 -17   22.41    7.51
  10  -9  17   21.20    9.02
   9 -10  17   27.19    9.30
  10   9  17   34.06    7.47
  -9 -10 -17   26.69    8.66
 -10   9 -17   27.37   10.60
  -9  10 -17   30.71   11.94
   9  10 -17   23.33    9.08
  10 -10   0   -2.19    3.04
 -10 -10   0    7.69    4.78
  10 -10  -1  168.42   23.86
  10 -10   1  182.84   24.94
 -10 -10   1  206.83   10.28
 -10 -10  -1  199.63   11.16
  10 -10  -2   15.86    5.00
  10 -10   2   23.02    4.95
 -10 -10   2   21.99    5.37
 -10 -10  -2   25.70    4.94
  10 -10  -3  377.27    9.28
  10 -10   3  336.08   11.98
 -10 -10   3  395.00   15.53
 -10 -10  -3  368.05   18.03
  10 -10  -4   27.71    6.62
  10 -10   4   23.59    5.13
  10  10  -4   24.71    7.15
 -10 -10   4   39.10    8.18
 -10 -10  -4   33.70    9.08
  10 -10  -5   27.27    7.44
  10 -10   5   37.49    7.21
  10  10  -5   32.47    6.90
 -10 -10   5   42.84    6.03
 -10 -10  -5   52.23   16.27
  10 -10  -6    6.78    4.08
  10 -10   6    2.21    1.65
  10  10  -6    9.40    5.16
 -10 -10   6   -0.41    3.32
 -10 -10  -6    1.44    2.07
  10 -10  -7   60.78   13.13
  10 -10   7   58.14   10.65
 -10  10  -7   41.02    8.58
  10  10  -7   67.75    9.85
 -10 -10   7   56.16    9.08
 -10 -10  -7   64.22   11.13
  10 -10  -8   -0.19    3.94
  10 -10   8    4.45    2.79
 -10  10  -8    2.30    2.40
  10  10  -8    7.95    5.36
 -10 -10   8    3.42    2.64
 -10 -10  -8    5.58    1.78
  10 -10  -9  104.20   19.09
  10 -10   9  106.35   24.39
 -10  10  -9  124.84   13.76
  10  10  -9  116.13   27.29
 -10 -10   9  133.88   15.45
 -10 -10  -9  141.99   21.17
  10 -10 -10   14.13    3.81
  10 -10  10    3.87    4.12
 -10  10 -10    2.45    3.28
  10  10 -10    1.35    5.16
 -10 -10  10    7.01    2.62
 -10 -10 -10    8.36    2.53
  10 -10 -11   12.07    4.43
  10 -10  11    7.95    3.87
 -10  10 -11    8.59    4.61
  10  10 -11   11.77    9.19
 -10 -10  11    8.31    4.65
 -10 -10 -11   16.19    4.55
  10 -10 -12    3.80    2.17
  10 -10  12    8.63    4.40
 -10  10 -12    6.55    3.62
  10  10 -12    9.07    4.51
 -10 -10 -12   13.12    4.91
  10 -10 -13   32.73    5.17
  10 -10  13   22.93    5.81
 -10  10 -13   24.61   10.54
  10  10 -13   23.44    7.83
  10 -10 -14    4.84    3.24
  10 -10  14    3.55    4.45
 -10 -10 -14    3.54    4.32
 -10  10 -14   -1.86    3.19
  10  10 -14    7.63    5.64
  10 -10 -15   12.08    4.26
  10 -10  15   19.83    5.95
 -10 -10 -15    4.76    3.22
 -10  10 -15   13.02    4.16
  10  10 -15    7.74    5.12
  10 -10 -16   -2.84    3.56
  10 -10  16    0.77    3.10
 -10 -10 -16   -3.18    4.14
 -10  10 -16    4.09    2.86
  10  10 -16    4.13    3.37
  10 -10  17    6.04    2.49
  11   0   0   12.17    3.65
   0  11   0   -0.07    3.37
   0 -11   0    4.65    2.94
  11   0  -1  466.68   20.54
  11   0   1  458.11   20.27
   0  11  -1  496.58   21.72
   0  11   1  462.90   21.98
   0 -11   1  474.77   22.18
   0 -11  -1  493.88   21.27
  11   0  -2   -2.56    3.73
  11   0   2    2.06    2.38
 -11   0  -2    5.17    2.58
   0  11  -2   -0.02    4.29
   0 -11   2    4.34    2.67
   0 -11  -2    1.39    2.52
  11   0  -3  136.95    7.43
  11   0   3  166.03   17.48
 -11   0  -3  146.74   13.10
   0  11  -3  159.35   26.97
   0 -11   3  141.84   16.85
   0 -11  -3  145.96   12.13
  11   0  -4   21.79    4.01
  11   0   4   24.10    6.78
 -11   0  -4   32.65    4.71
   0  11  -4   29.74    7.68
   0 -11   4   38.61    8.52
   0 -11  -4   29.58    5.55
  11   0  -5   10.10    2.90
  11   0   5   21.59    6.07
 -11   0  -5    9.27    3.23
   0  11  -5    3.40    2.51
  11   0  -5   15.06    3.19
   0 -11  -5    9.40    2.69
  11   0  -6    1.73    3.12
  11   0   6    1.85    2.71
   0  11   6    2.11    1.21
 -11   0  -6    3.65    2.51
   0  11  -6    3.39    2.37
  11   0  -6    3.58    2.81
   0 -11  -6   -1.42    2.89
  11   0  -7    2.58    2.42
  11   0   7    4.29    3.06
   0  11   7   -0.13    1.05
 -11   0  -7    5.14    2.27
   0  11  -7    1.43    4.24
  11   0  -7    4.23    2.28
   0 -11  -7    5.91    3.02
  11   0  -8    3.06    4.03
  11   0   8    7.03    4.50
   0  11   8    6.18    2.70
 -11   0  -8    2.73    1.76
   0  11  -8   15.64    5.89
  11   0  -8    2.38    1.94
  11   0  -9   -0.43    4.53
  11   0   9    7.45    5.15
   0  11   9    2.01    1.95
 -11   0  -9   -1.03    3.75
   0  11  -9   -0.37    5.46
  11   0  -9    2.25    2.28
  11   0 -10   16.54    3.20
  11   0  10   13.15    6.96
   0  11  10   15.43    4.02
 -11   0 -10   26.58    5.62
   0  11 -10   24.36    7.15
 -11   0  10   18.89    6.43
  11   0 -11  124.67   11.66
  11   0  11  127.79   13.68
   0  11  11  103.12   13.43
 -11   0 -11  143.43   10.77
   0  11 -11  115.01   13.11
  11   0 -12   49.00    8.52
  11   0  12   30.76    9.45
   0  11  12   25.31    9.02
 -11   0 -12   51.50    9.82
   0  11 -12   34.50    8.96
  11   0 -13  231.57   17.26
  11   0  13  209.17   26.19
   0  11  13  178.17   20.81
 -11   0 -13  226.41   20.19
   0  11 -13  215.95   27.38
  11   0 -14   10.38    3.44
  11   0  14   -3.58    4.79
   0  11  14    9.44    4.41
 -11   0 -14    4.90    2.01
   0  11 -14    2.15    2.87
  11   0 -15   81.31   16.60
  11   0  15   67.10   15.62
   0  11  15   49.87   14.33
 -11   0 -15   85.94   13.76
   0  11 -15   76.32   16.22
  11   0 -16   13.39    5.41
  11   0  16    3.77    3.23
   0  11  16    3.60    2.67
 -11   0 -16    4.59    3.17
   0  11 -16    5.04    2.87
  11   0 -17   59.98    8.06
  11   0  17   52.59   17.01
 -11   0 -17   54.30   12.11
   0  11 -17   58.72    9.65
  11   0 -18    2.56    3.30
  11   0  18   -2.46    4.72
 -11   0 -18   -1.17    3.58
   0  11 -18   12.18   10.21
  11   1   0  159.94   22.41
  11  -1   0  154.16    9.00
  -1  11   0  161.18    9.84
   1  11   0  155.40   13.52
  -1 -11   0  172.90   10.22
  11  -1  -1  248.08   13.33
  11   1  -1  276.53   15.71
  11  -1   1  249.32   20.07
  11   1   1  262.36   13.34
  -1  11  -1  258.75   18.71
  -1  11   1  241.54   13.94
   1  11  -1  259.52   13.93
   1  11   1  257.58   22.00
  -1 -11   1  277.73   15.18
  -1 -11  -1  265.68   15.78
  11  -1  -2  340.08   15.16
  11   1  -2  318.91   16.29
  11   1   2  347.79   16.58
  11  -1   2  364.15   19.72
 -11   1  -2  358.88   19.54
  -1  11  -2  344.72   16.88
   1  11  -2  350.00   17.19
  -1  11   2  334.56   16.13
  -1 -11   2  373.78   16.41
  -1 -11  -2  350.44   18.74
  11   1  -3   71.70   16.29
  11  -1  -3   72.08   14.65
  11  -1   3   46.00    6.79
  11   1   3   77.85   16.68
 -11  -1  -3   67.40    7.34
 -11   1  -3  225.13   23.23
  -1  11  -3   65.04    6.43
   1  11  -3   57.62    9.08
  -1 -11   3   66.95   10.73
  -1 -11  -3   63.87   12.91
  11   1  -4  123.35    6.92
  11  -1  -4  137.84   21.03
  11  -1   4  122.82   19.77
  11   1   4  142.22   14.58
 -11  -1  -4  116.52    9.95
 -11   1  -4  129.21    8.79
  -1  11  -4  130.67    7.84
   1  11  -4  153.88   12.38
  -1 -11   4  167.14   22.05
  -1 -11  -4  145.00   17.37
  11   1  -5  258.05   10.00
  11  -1  -5  221.12   14.39
  11  -1   5  260.47   10.56
  11   1   5  219.43    9.64
 -11  -1  -5  289.50   10.57
 -11   1  -5  215.57   10.59
  -1  11  -5  247.09   17.21
   1  11  -5  230.13   16.89
  11  -1  -5  226.74   10.03
  11   1  -5  248.69   13.47
  -1 -11   5  266.06   11.96
  -1 -11  -5  241.80    8.94
   1 -11  -6   27.15    5.19
  11   1  -6   36.21    7.11
  11  -1  -6   40.86    7.94
  11  -1   6   43.55    9.83
  11   1   6   33.42    9.64
 -11  -1  -6   40.18    6.81
 -11   1  -6   37.93    6.59
  -1  11  -6   41.24   11.60
   1  11  -6   30.84    6.19
  11  -1  -6   32.49    4.47
  11   1  -6   38.44    6.75
  -1 -11   6   42.92    7.10
  -1 -11  -6   40.13    8.65
   1 -11  -7  154.19   12.63
  11   1  -7  155.32   10.77
  11  -1  -7  169.87   24.69
  11  -1   7  165.67   16.54
  11   1   7  151.45   18.98
 -11  -1  -7  147.11   14.24
 -11   1  -7  151.55   13.68
  -1  11  -7  163.56   12.74
   1  11  -7  149.35    9.54
  11  -1  -7  148.64   11.54
  11   1  -7  161.24    9.10
  -1 -11   7  165.75   18.49
  -1 -11  -7  175.55   21.16
   1 -11  -8  295.44   17.88
  11   1  -8  309.00   19.93
  11  -1  -8  301.92   14.68
  11  -1   8  279.52   27.80
  11   1   8  328.34   16.35
   1  11   8  298.28   15.36
 -11  -1  -8  315.77   15.83
 -11   1  -8  297.13   18.96
  -1  11  -8  320.45   23.60
   1  11  -8  288.21   23.49
  11   1  -8  312.99   16.30
  -1 -11  -8  340.16   21.89
 -11  -1   8  290.17   14.63
   1 -11  -9  194.24   12.18
  11   1  -9  213.92   15.95
  11  -1  -9  227.03   19.17
  11  -1   9  189.61   13.84
  11   1   9  222.85   20.27
   1  11   9  201.16   11.77
 -11  -1  -9  183.50   15.01
 -11   1  -9  252.65   17.41
  -1  11  -9  187.67   23.30
   1  11  -9  226.05   16.61
  11   1  -9  198.90   14.68
  -1 -11  -9  206.03   17.19
 -11  -1   9  227.02   11.02
   1 -11 -10   11.60    4.69
  11   1 -10    4.53    4.32
  11  -1 -10   13.49    4.65
  11  -1  10   10.78    3.33
  11   1  10   16.76    5.40
   1  11  10    8.24    4.05
 -11  -1 -10   12.06    5.67
 -11   1 -10   17.99    3.93
  -1  11 -10   20.44    7.18
   1  11 -10   26.27    6.68
  11   1 -10    0.53    2.06
  -1 -11 -10   14.62    4.76
 -11  -1  10   17.64    3.48
   1 -11 -11   42.67   10.17
  11   1 -11   33.41    8.20
  11  -1 -11   62.67    7.18
  11  -1  11   47.99    9.15
  11   1  11   55.10   10.60
   1  11  11   41.50    9.17
 -11  -1 -11   49.29    8.22
 -11   1 -11   58.69   11.51
  -1  11 -11   54.31    8.39
   1  11 -11   59.96   12.29
  11   1 -12   17.71    6.11
  11  -1 -12    3.93    2.95
  11  -1  12    0.47    3.28
  11   1  12   10.78    4.95
   1  11  12   11.85    7.42
 -11  -1 -12   14.66    4.34
 -11   1 -12   11.97    4.68
  -1  11 -12    8.45    4.12
   1  11 -12   13.96    5.18
 -11  -1 -12    6.48    2.09
  11   1 -13   18.19    6.22
  11  -1 -13   20.60    6.40
  11  -1  13   12.42    5.22
  11   1  13    9.04    8.13
   1  11  13   32.83   11.42
 -11  -1 -13   16.44    4.03
 -11   1 -13   15.75    4.77
  -1  11 -13   13.25    6.76
   1  11 -13    8.79    5.50
 -11  -1 -13   12.13    3.91
  11   1 -14  103.82   18.60
  11  -1 -14   97.86   16.67
  11  -1  14  105.14   26.29
  11   1  14   90.70   14.38
   1  11  14   83.74   12.88
  -1  11  14   67.85   14.79
 -11  -1 -14  105.77   18.12
 -11   1 -14   99.88   20.55
  -1  11 -14   80.66   16.15
   1  11 -14   91.25   17.81
  11   1 -15   12.70    5.96
  11  -1 -15   11.25    3.94
  11  -1  15    2.15    2.88
  11   1  15   10.46    5.47
   1  11  15    8.30    2.84
  -1  11  15    8.97    3.24
 -11  -1 -15   10.40    4.46
 -11   1 -15    9.23    3.71
  -1  11 -15    4.87    3.48
   1  11 -15   24.78    5.82
  11   1 -16    5.38    2.34
  11  -1 -16   -0.14    4.14
  11  -1  16    2.24    3.97
  11   1  16    6.45    7.20
  -1  11  16    3.72    2.12
 -11  -1 -16    8.86    4.99
 -11   1 -16    6.62    2.72
  -1  11 -16   40.74   14.66
   1  11 -16   16.59    7.19
  11   1 -17   14.91    4.87
  11  -1 -17   29.77    8.13
  11  -1  17   27.33   10.01
  11   1  17   15.67    6.57
 -11  -1 -17   21.35    5.00
 -11   1 -17    8.40    3.71
  -1  11 -17   20.74    8.10
   1  11 -17   17.31    7.69
  11   1 -18   13.06    5.58
  11  -1 -18   10.79    3.49
  11  -1  18   16.69    7.09
  11   1  18    6.94    3.23
 -11  -1 -18   11.47    5.44
 -11   1 -18    6.13    3.59
  -1  11 -18   15.06    6.32
   1  11 -18   11.58    4.65
  11  -2   0  111.32    9.69
  11   2   0  129.67    9.67
  -2  11   0  129.27   10.42
   2  11   0  128.91   14.21
  -2 -11   0  122.72    8.56
  11  -2  -1  103.02   15.69
  11   2  -1   90.31   16.47
  11  -2   1   78.80    9.94
  11   2   1   78.52    5.96
 -11   2  -1   79.80    7.20
  -2  11  -1   90.31    6.66
  -2  11   1   76.12    6.35
   2  11  -1   86.94   13.11
  -2 -11   1   89.19   11.98
  -2 -11  -1   88.45   16.29
  11   2  -2   81.04   13.20
  11  -2  -2   97.87    9.35
  11  -2   2   71.57    8.43
  11   2   2   89.13   18.20
 -11   2  -2   86.83    5.08
  -2  11  -2   71.06   12.73
  -2  11   2   90.21    7.44
   2  11  -2   92.25   19.82
  -2 -11   2   87.77   18.01
  -2 -11  -2   98.10   12.33
  11   2  -3  644.96   26.74
  11  -2  -3  606.44   26.23
  11  -2   3  580.95   31.30
  11   2   3  593.84   25.11
 -11  -2  -3  592.95   27.88
 -11   2  -3  542.45   21.92
  -2  11  -3  587.83   24.88
   2  11  -3  580.97   24.94
  -2  11   3  523.68   24.14
  -2 -11   3  616.51   27.54
  -2 -11  -3  551.94   22.62
   2 -11  -4   52.27    4.24
  11   2  -4   62.96    6.82
  11  -2  -4   52.61   12.82
  11  -2   4   65.75   11.55
  11   2   4   65.05   10.44
 -11  -2  -4   82.28   12.24
 -11   2  -4   50.38   10.00
  -2  11  -4   64.69   12.27
   2  11  -4   52.34    9.47
  11  -2  -4   48.93    6.69
  -2  11   4   52.46    8.59
  -2 -11   4   52.86    9.29
  -2 -11  -4   58.03   10.39
   2 -11  -5   56.00    6.65
  11   2  -5   65.44   13.19
  11  -2  -5   84.39   15.54
  11  -2   5   63.18   16.00
  11   2   5   72.27   15.18
 -11  -2  -5   68.57   13.33
 -11   2  -5   70.82    7.76
  -2  11  -5   65.38   11.29
   2  11  -5   86.77   18.70
  11  -2  -5   56.26    7.43
  11   2  -5   58.47    9.38
  -2 -11   5   71.79   15.20
  -2 -11  -5   80.28   14.45
 -11  -2   5   79.87   13.28
   2 -11  -6   55.49    9.25
  11   2  -6   80.22   17.21
  11  -2  -6   62.71   13.60
  11  -2   6   78.26   17.02
  11   2   6   63.94   17.87
 -11  -2  -6   68.91   11.66
 -11   2  -6   67.31    7.37
  -2  11  -6   69.06   12.24
   2  11  -6   80.53   15.90
  11   2  -6   64.63   10.67
  -2 -11   6   69.14   15.44
  -2 -11  -6   78.01   15.39
 -11  -2   6   68.83    9.31
   2 -11  -7  137.29   13.00
  11   2  -7  142.70   12.06
  11  -2  -7  128.75   21.29
  11  -2   7  146.66   21.39
  11   2   7  126.55   16.33
 -11  -2  -7  139.91    9.38
 -11   2  -7  155.70   15.17
  -2  11  -7  141.55   22.95
   2  11  -7  135.16   10.26
  11   2  -7  126.81   20.65
  -2 -11   7  176.28   18.27
  -2 -11  -7  154.93   12.72
 -11  -2   7  157.92   11.62
   2 -11  -8   47.72    7.07
  11   2  -8   55.81    9.20
  11  -2  -8   63.48   11.89
  11  -2   8   57.03   12.64
  11   2   8   73.77   10.39
 -11   2  -8   73.52    8.45
  -2  11  -8   57.88    9.97
   2  11  -8   69.35   10.58
  11   2  -8   59.59   11.63
  -2 -11   8   60.49    9.43
  -2 -11  -8   72.72   12.11
 -11  -2   8   59.83    8.24
   2 -11  -9  325.72   10.36
  11   2  -9  324.54   13.50
  11  -2  -9  375.34   13.68
  11  -2   9  364.44   13.53
  11   2   9  337.52   13.65
 -11  -2  -9  362.01   26.61
 -11   2  -9  355.04   18.27
  -2  11  -9  321.53   22.42
   2  11  -9  353.87   24.55
  11   2  -9  317.95   20.72
  -2 -11   9  364.56   17.30
  -2 -11  -9  349.33   17.84
 -11  -2   9  346.53   18.09
 -11  -2  -9  336.17   14.02
   2 -11 -10   89.91   15.88
  11   2 -10   93.22   18.42
  11  -2 -10   94.18   17.45
  11  -2  10   92.40   19.20
  11   2  10  105.42   19.01
 -11  -2 -10  126.81   14.59
 -11   2 -10  110.21   17.79
  -2  11 -10   86.13   20.36
   2  11 -10  101.85   17.01
  11   2 -10   83.76   14.27
  -2 -11 -10  106.70   16.92
 -11  -2  10   84.98   15.36
 -11  -2 -10  108.31    6.86
   2 -11 -11   62.43   12.15
  11   2 -11   70.45    8.55
  11  -2 -11   78.13    7.79
  11  -2  11   70.44   15.05
  11   2  11   55.60   12.39
   2  11  11   51.11   10.49
 -11  -2 -11   75.94   14.75
 -11   2 -11   82.68   11.07
  -2  11 -11   61.69   10.75
   2  11 -11   63.89   11.42
  11   2 -11   52.75    9.70
  -2 -11 -11   61.32   12.09
 -11  -2 -11   57.12   13.42
   2 -11 -12    9.67    4.17
  11   2 -12   23.70    5.94
  11  -2 -12   35.57    6.92
  11  -2  12   20.76    6.28
  11   2  12    8.21    2.87
   2  11  12   13.47    4.63
 -11  -2 -12   26.54    6.36
 -11   2 -12   34.95    5.08
  -2  11 -12   17.16    4.96
   2  11 -12   15.18    3.50
  11   2 -12   18.84    7.92
 -11  -2 -12   11.12    4.29
   2 -11 -13   23.80    6.08
  11   2 -13   37.40   10.08
  11  -2 -13   12.60    5.04
  11  -2  13   31.41    6.52
  11   2  13   11.62    4.75
   2  11  13   24.42    6.41
 -11  -2 -13   41.35    9.30
 -11   2 -13   33.45    5.89
  -2  11 -13   31.21    8.42
   2  11 -13   16.57    4.70
   2 -11 -14    1.89    2.09
  11   2 -14    5.16    4.95
  11  -2 -14    1.91    5.91
  11  -2  14   -2.00    5.41
  11   2  14   11.20    3.20
   2  11  14    1.67    2.45
  -2 -11 -14    3.10    2.19
 -11  -2 -14    4.08    2.80
 -11   2 -14    1.86    3.53
  -2  11 -14    7.07    5.11
   2  11 -14    0.22    5.72
   2 -11 -15    2.78    2.23
  11   2 -15    9.56    4.10
  11  -2 -15    5.82    4.14
  11  -2  15    5.16    2.83
  11   2  15    8.97    4.42
 -11  -2 -15    2.55    2.32
 -11   2 -15    7.57    2.40
  -2  11 -15    4.18    4.33
   2  11 -15   -0.36    5.16
  11   2 -16   15.28    4.09
  11  -2 -16    2.73    2.03
  11  -2  16    7.06    3.39
  11   2  16    9.77    4.38
 -11  -2 -16    2.87    3.40
 -11   2 -16   10.73    3.90
  -2  11 -16    5.64    4.47
   2  11 -16    8.04    4.00
  11   2 -17   13.00    3.29
  11  -2 -17   11.71    5.46
  11  -2  17    8.64    4.92
  11   2  17   13.72    6.69
  -2  11  17    9.42    5.20
 -11  -2 -17   18.89    4.65
 -11   2 -17   30.61    6.24
  -2  11 -17   15.38    4.75
   2  11 -17   10.19    5.44
  11   2 -18    5.17    3.28
  11  -2 -18    4.42    4.26
  11  -2  18    4.88    4.22
  11   2  18    6.95    5.35
 -11  -2 -18    3.54    2.45
 -11   2 -18   11.73    4.27
  -2  11 -18   12.45    7.01
   2  11 -18   -2.44    4.18
  11   3   0   66.88   14.89
  11  -3   0   63.56    9.51
  -3  11   0   62.36   10.65
  -3 -11   0   63.25   12.17
 -11  -3   0   70.14   11.45
  11   3  -1  501.96   21.40
  11  -3  -1  511.39   21.98
  11  -3   1  533.04   24.52
  11   3   1  492.49   26.04
 -11   3  -1  504.47   21.96
  -3  11  -1  498.20   22.21
  -3  11   1  483.26   20.44
   3  11  -1  481.97   23.97
  -3 -11   1  519.29   25.95
  -3 -11  -1  513.33   23.16
 -11  -3   1  500.72   22.75
 -11  -3  -1  516.24   21.72
   3 -11  -2    0.33    0.78
   3 -11   2    3.30    1.71
  11   3  -2   -1.74    4.02
  11  -3  -2    6.22    2.86
  11  -3   2   -4.08    4.21
  11   3   2   10.09    5.12
 -11   3  -2    5.36    1.56
  -3  11  -2    5.71    1.83
  -3  11   2    5.33    2.65
   3  11  -2   -1.54    4.42
  -3 -11   2    1.45    1.79
  -3 -11  -2    1.43    3.85
 -11  -3   2    2.17    3.61
 -11  -3  -2    3.03    2.39
   3 -11  -3  406.21   16.43
  11   3  -3  436.25   19.79
  11  -3  -3  475.48   22.68
  11  -3   3  413.56   18.51
  11   3   3  429.76   19.65
 -11   3  -3  437.61   19.37
  -3  11  -3  425.78   19.45
  -3  11   3  447.77   20.13
   3  11  -3  443.07   31.86
  -3 -11   3  442.57   19.61
  -3 -11  -3  446.26   20.13
 -11  -3   3  455.60   21.85
 -11  -3  -3  450.50   19.98
   3 -11  -4  262.72    9.22
  11   3  -4  302.12    9.88
  11  -3  -4  294.93   10.81
  11  -3   4  265.66   13.61
  11   3   4  286.72   21.66
 -11  -3  -4  279.03   10.37
 -11   3  -4  283.04   11.22
   3  11  -4  273.22   17.62
  -3  11   4  276.28   11.90
  -3 -11   4  291.55   11.54
  -3 -11  -4  285.54   13.56
 -11  -3   4  286.90   10.75
 -11  -3  -4  276.86   13.78
   3 -11  -5  280.40   10.83
  11   3  -5  304.02   14.28
  11  -3  -5  286.92   12.24
  11  -3   5  288.67   13.27
  11   3   5  282.21   14.22
 -11  -3  -5  309.09   11.37
 -11   3  -5  288.64   16.46
  -3  11  -5  287.80   11.82
   3  11  -5  289.96   15.14
  -3  11   5  275.35    9.21
  11   3  -5  271.96   16.46
  -3 -11   5  296.19   12.26
  -3 -11  -5  277.97   11.88
 -11  -3   5  284.81   11.57
 -11  -3  -5  294.64   19.40
   3 -11  -6   41.68    6.88
  11   3  -6   49.74    9.86
  11  -3  -6   48.49    9.47
  11  -3   6   54.69   12.73
  11   3   6   42.87    9.74
 -11  -3  -6   54.36    8.60
 -11   3  -6   53.02   10.07
  -3  11  -6   57.45    9.99
   3  11  -6   63.92   12.29
  11   3  -6   47.59    9.51
  -3 -11   6   56.43   10.56
  -3 -11  -6   56.13   11.92
 -11  -3   6   54.54    7.59
 -11  -3  -6   58.10    7.95
   3 -11  -7  106.81   10.00
  11   3  -7  121.74    9.94
  11  -3  -7  124.12   23.19
  11  -3   7  116.47    9.70
  11   3   7  111.09   22.11
 -11   3  -7  120.18   12.40
  -3  11  -7  113.45    9.46
   3  11  -7  110.86    9.56
  11   3  -7  117.70    9.63
  -3 -11   7  109.66   17.61
  -3 -11  -7  148.24   17.43
 -11  -3   7  128.89   11.62
 -11  -3  -7  132.29    8.44
   3 -11  -8  140.07    9.11
  11   3  -8  163.65    8.79
  11  -3  -8  193.99   21.34
  11  -3   8  159.72   14.81
  11   3   8  144.89   15.52
 -11  -3  -8  194.20   16.48
 -11   3  -8  186.05   12.15
  -3  11  -8  154.81   17.87
   3  11  -8  149.38   27.30
  11   3  -8  130.67   16.05
  -3 -11   8  173.35   13.43
  -3 -11  -8  192.36   11.00
 -11  -3   8  172.13    8.94
 -11  -3  -8  161.51   13.70
   3 -11  -9   99.20    8.02
  11   3  -9   89.75    6.91
  11  -3  -9   94.01   16.96
  11  -3   9   95.30   20.32
  11   3   9   98.31   11.52
 -11  -3  -9   91.34   15.03
 -11   3  -9  107.65   18.40
  -3  11  -9   97.17   17.96
   3  11  -9  104.98   15.48
  11   3  -9   85.89   16.57
  -3 -11   9  102.96    9.76
  -3 -11  -9  101.33   13.93
 -11  -3   9   90.47   17.61
 -11  -3  -9   85.81   16.02
   3 -11 -10    9.31    4.37
  11   3 -10    8.31    4.26
  11  -3 -10    3.48    2.79
  11  -3  10    7.43    3.72
  11   3  10    3.34    2.14
 -11  -3 -10    7.46    3.68
 -11   3 -10    4.97    2.77
  -3  11 -10    2.92    3.08
   3  11 -10   15.46    7.49
  11   3 -10    2.74    2.67
  -3 -11  10    3.70    1.82
  -3 -11 -10    7.64    3.49
 -11  -3  10   -1.02    1.85
 -11  -3 -10    2.08    1.36
   3 -11 -11  144.55    9.85
  11   3 -11  158.46   23.00
  11  -3 -11  165.54   12.62
  11  -3  11  134.23   16.02
  11   3  11  145.62   19.29
 -11  -3 -11  146.82   10.40
 -11   3 -11  186.52   14.57
  -3  11 -11  146.39   11.63
   3  11 -11  127.68   20.45
  11   3 -11  119.69   19.09
  -3 -11 -11  149.99   16.60
 -11  -3 -11  150.05   12.07
   3 -11 -12   31.52    6.05
  11   3 -12   44.38    7.16
  11  -3 -12   39.50   10.49
  11  -3  12   37.08    9.65
  11   3  12   42.10   11.92
 -11  -3 -12   40.76    7.30
 -11   3 -12   46.97    8.77
  -3  11 -12   35.37    7.74
   3  11 -12   41.90    8.87
  11   3 -12   29.90    6.70
 -11  -3 -12   26.96    7.26
   3 -11 -13   97.99   16.47
  11   3 -13  119.65   16.30
  11  -3 -13  131.15   18.49
  11  -3  13  113.73   14.07
  11   3  13  109.24   24.08
 -11  -3 -13  125.53   16.27
 -11   3 -13  131.09   22.07
  -3  11 -13  106.75   26.69
   3  11 -13   92.44   16.71
  11   3 -13  104.96   19.04
   3 -11 -14    1.67    3.12
  11   3 -14   -0.31    5.28
  11  -3 -14    6.41    3.77
  11  -3  14    3.38    2.90
  11   3  14    2.46    3.39
  -3 -11 -14   -0.47    2.72
 -11  -3 -14    7.19    2.85
 -11   3 -14    8.88    5.05
  -3  11 -14    0.45    2.87
   3  11 -14   10.44    8.95
   3 -11 -15   43.39    9.88
  11   3 -15   80.65   15.28
  11  -3 -15   54.49    8.14
  11  -3  15   55.23   15.88
  11   3  15   47.42    9.62
  -3 -11 -15   34.97    7.66
 -11  -3 -15   62.10   13.25
 -11   3 -15   53.75   12.17
  -3  11 -15   64.63   13.82
   3  11 -15   37.15   16.84
   3 -11 -16    8.84    5.82
  11   3 -16   14.06    5.82
  11  -3 -16    5.27    2.78
  11  -3  16    2.57    3.50
  11   3  16    5.47    3.78
 -11  -3 -16   11.59    5.08
 -11   3 -16   12.11    4.30
  -3  11 -16    7.43    5.14
   3  11 -16    9.96    4.61
   3 -11 -17   20.39    7.25
  11   3 -17   42.38    6.36
  11  -3 -17   24.19    5.46
  11  -3  17   39.48    9.84
  11   3  17   25.42    6.71
 -11  -3 -17   29.95    6.61
 -11   3 -17   34.89    6.30
  -3  11 -17   35.93    7.78
   3  11 -17   39.36   11.19
  11   3 -18    5.08    5.17
  11  -3 -18    5.93    2.84
  11  -3  18    7.31    4.45
  11   3  18    8.73    4.04
 -11  -3 -18    9.55    4.11
 -11   3 -18    3.84    3.01
  -3  11 -18    4.33    3.54
   3  11 -18    2.09    2.81
   4 -11   0  642.14   24.93
  11  -4   0  699.18   29.90
  11   4   0  658.98   28.65
  -4  11   0  636.03   26.66
  -4 -11   0  695.32   29.94
 -11  -4   0  643.52   26.30
   4 -11  -1  215.63   10.53
   4 -11   1  241.38   10.60
  11   4  -1  239.24   12.00
  11  -4  -1  253.13   12.92
  11  -4   1  236.83   12.24
  11   4   1  249.96   12.93
 -11   4  -1  227.95   12.23
  -4  11  -1  233.43   14.20
  -4  11   1  225.11   12.21
   4  11  -1  243.17   12.12
  -4 -11   1  225.47   15.81
  -4 -11  -1  240.24   14.00
 -11  -4   1  249.12   12.42
 -11  -4  -1  250.85   18.74
   4 -11  -2    1.90    1.67
  11   4  -2    7.61    3.62
  11  -4  -2   -1.76    4.38
   4 -11   2    1.58    1.24
  11  -4   2    5.62    2.89
  11   4   2    3.30    3.42
 -11   4  -2    2.42    2.07
  -4  11  -2    4.88    3.53
  -4  11   2    3.68    2.77
   4  11  -2    1.23    2.31
  -4 -11   2    9.49    3.48
  -4 -11  -2    3.26    2.63
 -11  -4   2    8.71    2.52
 -11  -4  -2    5.49    3.15
   4 -11  -3  400.34    8.88
  11   4  -3  399.84   21.48
  11  -4  -3  395.24   11.90
   4 -11   3  357.12    9.77
  11  -4   3  391.11   24.60
  11   4   3  378.25   14.29
 -11   4  -3  382.73   11.04
  -4  11  -3  401.64   11.89
  -4  11   3  390.39   11.09
   4  11  -3  386.60   26.25
  -4 -11   3  379.88   12.55
  -4 -11  -3  374.82   10.82
 -11  -4   3  406.62   11.10
 -11  -4  -3  391.71   12.63
   4 -11  -4  112.17    6.47
  11   4  -4   97.51   10.20
  11  -4  -4  136.13   10.71
   4 -11   4  128.86    8.62
  11  -4   4  126.81   12.26
  11   4   4  124.15    8.82
 -11   4  -4  136.29    9.06
  -4  11  -4  112.99   12.34
   4  11  -4  146.02   12.73
  -4 -11   4  103.41   12.93
  -4 -11  -4  144.18   12.38
 -11  -4   4  134.98    8.50
 -11  -4  -4  110.02   16.45
   4 -11  -5   30.61    4.82
  11   4  -5   33.15    7.05
  11  -4  -5   35.58    7.17
   4 -11   5   30.00    4.20
  11  -4   5   45.79    9.72
  11   4   5   26.40    6.35
 -11  -4  -5   40.14    6.10
 -11   4  -5   41.78    5.68
  -4  11  -5   34.48    6.12
   4  11  -5   28.02    6.37
  11   4  -5   35.65    5.70
  -4 -11   5   27.04    4.98
  -4 -11  -5   40.24    5.12
 -11  -4   5   54.95    8.45
 -11  -4  -5   30.10    5.64
   4 -11  -6   27.02    3.95
  11   4  -6   29.72    5.51
  11  -4  -6   29.85    9.64
  11  -4   6   29.39   12.01
   4 -11   6   16.07    3.21
  11   4   6   33.72    8.34
 -11  -4  -6   47.59   13.11
 -11   4  -6   29.51    4.23
  -4  11  -6   25.98    4.31
   4  11  -6   27.09    8.64
  11   4  -6   29.11    6.31
  -4 -11   6   32.37    7.40
  -4 -11  -6   32.10    9.14
 -11  -4   6   29.30    4.99
 -11  -4  -6   30.19    6.28
   4 -11  -7   52.73    7.79
  11   4  -7   55.75    9.76
  11  -4  -7   74.97   11.69
  11  -4   7   63.74   13.83
  11   4   7   70.78   15.86
   4 -11   7   52.72   11.12
 -11  -4  -7   67.94   12.25
 -11   4  -7   76.86   11.83
  -4  11  -7   66.45    6.54
   4  11  -7   73.96   10.49
  11   4  -7   71.66    8.60
  -4 -11   7   63.53   12.00
  -4 -11  -7   75.75   14.10
 -11  -4   7   74.95   14.27
 -11  -4  -7   79.34   13.18
   4 -11  -8    4.30    2.14
  11   4  -8   11.26    6.55
  11  -4  -8    8.13    4.79
  11  -4   8   15.61    5.13
  11   4   8   11.22    8.93
   4 -11   8    8.14    2.73
 -11  -4  -8    7.88    3.41
 -11   4  -8    5.56    2.91
  -4  11  -8   16.00    4.34
   4  11  -8    4.53    4.00
  11   4  -8    6.54    1.75
  -4 -11   8   11.65    4.75
  -4 -11  -8    3.66    2.15
 -11  -4   8    3.59    4.49
 -11  -4  -8    8.87    4.84
   4 -11  -9   97.57   14.05
  11   4  -9  102.52   19.31
  11  -4  -9  107.95   18.28
  11  -4   9   97.40   24.88
  11   4   9  123.78   16.31
   4 -11   9  102.42   11.95
 -11  -4  -9  127.83   23.52
 -11   4  -9  111.19   10.22
  -4  11  -9   99.73   17.76
   4  11  -9  102.95   23.19
  11   4  -9   94.10   12.22
  -4 -11   9   98.79    7.54
  -4 -11  -9  120.41   19.10
 -11  -4   9  117.25   11.70
 -11  -4  -9  120.88    8.70
   4 -11 -10   14.85    5.32
  11   4 -10   15.52    6.50
  11  -4 -10   10.53    4.76
  11  -4  10   22.13    5.89
  11   4  10   14.72    4.43
   4 -11  10    8.76    2.90
 -11  -4 -10   18.69    7.26
 -11   4 -10   12.86    4.46
  -4  11 -10   10.16    4.79
   4  11 -10    7.12    4.13
  11   4 -10   14.66    4.97
  -4 -11  10    3.99    3.37
  -4 -11 -10   18.48    3.53
 -11  -4  10    8.32    3.68
 -11  -4 -10   17.56    4.37
   4 -11 -11   39.12    7.65
  11   4 -11   40.80    9.81
  11  -4 -11   48.73    8.51
  11  -4  11   44.32   10.54
  11   4  11   30.92    8.09
 -11  -4 -11   40.64    7.59
 -11   4 -11   50.22    7.21
  -4  11 -11   33.02    6.92
   4  11 -11   47.88    8.72
  11   4 -11   37.92    7.83
  -4 -11  11   37.76    8.97
  -4 -11 -11   31.71    9.00
 -11  -4 -11   28.07    6.41
   4 -11 -12  167.37   14.47
  11   4 -12  172.82   20.77
  11  -4 -12  182.51   27.84
  11  -4  12  166.50   17.07
  11   4  12  167.30   20.41
 -11  -4 -12  168.23   13.68
 -11   4 -12  169.40   14.72
  -4  11 -12  162.27   16.89
   4  11 -12  220.30   28.53
  11   4 -12  117.97   22.89
  -4 -11  12  136.48   15.84
 -11  -4 -12  156.68   19.01
   4 -11 -13   45.80    9.82
  11   4 -13   55.04   10.31
  11  -4 -13   51.83   10.61
  11  -4  13   57.37   15.65
  11   4  13   50.87   12.70
 -11  -4 -13   50.64   11.10
 -11   4 -13   70.47   10.47
  -4  11 -13   40.40   10.82
   4  11 -13   57.14   10.62
  11   4 -13   45.14   12.06
   4 -11 -14    5.88    2.54
  11   4 -14   11.92    3.75
  11  -4 -14    7.14    2.66
  11  -4  14    2.19    4.31
  11   4  14    5.01    4.69
  -4 -11 -14    8.44    4.65
 -11  -4 -14    6.18    3.92
 -11   4 -14    5.99    2.04
  -4  11 -14    2.53    5.94
   4  11 -14    7.55    3.79
  11   4 -14    5.33    2.52
   4 -11 -15   37.48    8.33
  11   4 -15   46.49    7.99
  11  -4 -15   38.12   10.68
  11  -4  15   38.31   15.20
  11   4  15   29.71    9.99
  -4 -11 -15   28.62   10.56
 -11  -4 -15   41.57    6.65
 -11   4 -15   29.67    5.49
  -4  11 -15   38.98    8.33
   4  11 -15   32.40    8.42
   4 -11 -16   17.58    6.82
  11   4 -16   26.39    5.86
  11  -4 -16   32.13    6.68
  11  -4  16    9.71    4.63
  11   4  16   16.31    5.94
  -4 -11 -16   31.55    8.42
 -11  -4 -16   19.20    4.48
 -11   4 -16   31.64    6.40
  -4  11 -16   13.78    6.38
   4  11 -16   29.34    8.29
   4 -11 -17    6.94    5.62
  11   4 -17    5.28    2.50
  11  -4 -17    9.35    4.70
  11  -4  17    3.96    2.62
  11   4  17   13.47    5.60
 -11  -4 -17    8.87    4.85
 -11   4 -17   16.22    5.98
  -4  11 -17    9.61    2.86
   4  11 -17   12.77    5.32
  11   4 -18   -0.47    4.20
  11  -4 -18    2.25    2.14
  11  -4  18   -1.08    2.84
  11   4  18    2.47    3.24
 -11  -4 -18   -1.07    3.47
 -11   4 -18   -0.15    3.77
  -4  11 -18   -1.15    4.48
   4  11 -18    5.51    3.39
   5 -11   0   27.08    5.13
  11   5   0   23.39    5.52
  11  -5   0   26.32    5.62
 -11   5   0   17.54    3.44
  -5  11   0   19.60    4.92
  -5 -11   0   10.82    5.65
 -11  -5   0   30.78    7.66
   5 -11  -1    2.65    2.01
   5 -11   1    0.92    1.19
  11   5  -1    4.19    1.73
  11  -5  -1   -5.03    4.52
  11  -5   1    5.74    5.15
  11   5   1   -0.86    3.29
 -11   5  -1    5.39    6.15
  -5  11  -1   -1.37    2.04
  -5  11   1    1.96    2.21
  -5 -11   1    7.26    2.83
  -5 -11  -1   -0.84    3.57
 -11  -5   1    1.65    2.52
 -11  -5  -1    7.63    4.95
   5 -11  -2  196.51    6.88
  11   5  -2  198.55   13.30
  11  -5  -2  194.78   16.15
   5 -11   2  191.25    6.29
  11  -5   2  196.53   10.25
  11   5   2  183.29    7.97
 -11   5  -2  191.14    9.81
  -5  11  -2  188.91    6.55
   5  11  -2  190.67   15.66
  -5 -11   2  208.20    8.07
  -5 -11  -2  209.11   11.40
 -11  -5   2  209.68    9.74
 -11  -5  -2  220.54    8.78
   5 -11  -3  167.89   11.66
  11   5  -3  183.04   14.68
  11  -5  -3  215.42   18.47
   5 -11   3  187.39    9.55
  11  -5   3  177.35   13.62
  11   5   3  185.74    7.46
 -11   5  -3  191.11    9.12
  -5  11  -3  167.99    9.59
   5  11  -3  207.16   16.80
  -5 -11   3  182.01   14.18
  -5 -11  -3  210.54   12.07
 -11  -5   3  238.35    9.33
 -11  -5  -3  224.10   19.64
   5 -11  -4   20.42    3.85
  11   5  -4    7.98    3.28
  11  -5  -4   25.57    5.76
   5 -11   4   22.89    4.79
  11  -5   4   27.11    5.94
  11   5   4   19.14    4.93
 -11   5  -4   25.49    4.09
  -5  11  -4   17.60    3.39
   5  11  -4   26.45    6.90
  -5 -11   4   26.86    6.07
  -5 -11  -4   30.93    6.54
 -11  -5   4   26.84    4.81
 -11  -5  -4   23.23    5.75
   5 -11  -5   92.28   11.73
  11   5  -5  104.10    8.98
  11  -5  -5   82.44   11.68
   5 -11   5   89.41   11.46
  11  -5   5  106.33   19.35
  11   5   5   71.55    7.04
 -11   5  -5   75.86    8.11
  -5  11  -5  100.92   15.07
   5  11  -5   97.95    9.53
  11   5  -5   97.84   12.74
  -5 -11   5  116.53   13.26
  -5 -11  -5   76.84   12.67
 -11  -5   5   99.01    9.48
 -11  -5  -5  125.72   16.30
   5 -11  -6   57.58    7.03
  11   5  -6   73.70    7.55
  11  -5  -6   52.42    8.09
  11  -5   6   56.29   11.39
   5 -11   6   47.13    6.81
  11   5   6   53.15   10.46
 -11  -5  -6   75.85   12.55
 -11   5  -6   64.03   10.08
  -5  11  -6   59.89   12.26
   5  11  -6   62.31   11.42
  11   5  -6   54.07    9.66
  -5 -11   6   64.80   10.68
  -5 -11  -6   59.99   10.66
 -11  -5   6   57.40    9.75
 -11  -5  -6   61.26   12.46
   5 -11  -7  419.12   11.22
  11   5  -7  394.49   18.34
  11  -5  -7  392.20   23.15
  11  -5   7  413.25   15.10
   5 -11   7  384.94   10.46
  11   5   7  400.46   14.01
 -11  -5  -7  442.64   15.04
 -11   5  -7  430.98   13.91
  -5  11  -7  388.33   13.43
   5  11  -7  433.48   36.08
  11   5  -7  425.71   11.62
  -5 -11   7  415.37   16.43
  -5 -11  -7  420.93   19.24
 -11  -5   7  432.57   14.35
 -11  -5  -7  429.10   13.78
   5 -11  -8   84.03   14.95
  11   5  -8  120.40    7.59
  11  -5  -8  109.58   15.91
  11  -5   8   99.57   20.19
  11   5   8  107.47   15.84
   5 -11   8   80.28   12.11
 -11  -5  -8  109.70   18.94
 -11   5  -8  107.31   18.08
  -5  11  -8  103.94    7.80
   5  11  -8  111.61   17.89
  11   5  -8   84.40   16.92
  -5 -11   8  107.42   12.40
  -5 -11  -8  132.72   18.50
 -11  -5   8  103.90    8.54
 -11  -5  -8   98.35   14.47
   5 -11  -9  265.36   19.92
  11   5  -9  279.54   11.78
  11  -5  -9  274.43   10.56
  11  -5   9  264.95   24.29
  11   5   9  261.48   25.92
   5 -11   9  267.73   15.59
 -11  -5  -9  284.26   10.42
 -11   5  -9  281.12   15.33
  -5  11  -9  273.32   22.35
   5  11  -9  248.02   15.95
  11   5  -9  261.54   37.85
  -5 -11   9  275.12   13.79
  -5 -11  -9  293.56   16.59
 -11  -5   9  289.68    9.53
 -11  -5  -9  270.73   24.07
   5 -11 -10  112.61   16.67
  11   5 -10  138.36   10.86
  11  -5 -10  126.07   16.95
  11  -5  10  140.22   11.94
  11   5  10  116.09   21.24
   5 -11  10  103.88   19.60
 -11  -5 -10  158.51   22.44
 -11   5 -10  141.71   14.06
  -5  11 -10  109.52   20.67
   5  11 -10  115.78   18.86
  11   5 -10  118.59    9.20
  -5 -11  10  123.90   11.01
  -5 -11 -10  136.37   11.32
 -11  -5  10  126.13   16.22
 -11  -5 -10  121.46   13.74
   5 -11 -11   25.19    4.77
  11   5 -11   20.69    4.59
  11  -5 -11   20.15    4.81
  11  -5  11   30.56    9.10
  11   5  11   15.49    5.13
   5 -11  11   18.35    4.11
 -11  -5 -11   44.23   10.40
 -11   5 -11   11.72    5.29
  -5  11 -11   26.75    7.84
   5  11 -11   27.59    9.16
  11   5 -11   28.17    6.88
  -5 -11  11   23.93    6.12
  -5 -11 -11   21.92    3.17
 -11  -5  11   17.53    4.43
 -11  -5 -11   27.14    5.60
   5 -11 -12    5.07    2.21
  11   5 -12    9.52    4.73
  11  -5 -12   10.20    3.03
  11  -5  12    7.03    6.09
  11   5  12    2.05    3.81
 -11  -5 -12    3.07    2.68
 -11   5 -12    4.56    3.04
  -5  11 -12    7.70    4.68
   5  11 -12   13.46    8.62
  11   5 -12    9.08    3.87
 -11  -5 -12    2.91    2.85
   5 -11 -13    5.87    3.85
  11   5 -13    2.10    3.51
  11  -5 -13    6.86    2.66
  11  -5  13   11.23    4.87
  11   5  13    5.99    3.75
 -11  -5 -13   10.70    4.82
 -11   5 -13   17.07    4.46
  -5  11 -13   10.24    3.98
   5  11 -13    6.49    4.83
  11   5 -13   10.90    3.72
   5 -11 -14  259.33   57.92
  11   5 -14   61.55   11.01
  11  -5 -14   62.90   12.11
  11  -5  14   38.49   11.33
  11   5  14   43.19   12.12
  -5 -11 -14   38.11    8.68
 -11  -5 -14   61.10   12.25
 -11   5 -14   68.68   12.23
  -5  11 -14   49.30   10.00
   5  11 -14   45.02   11.11
  11   5 -14   53.96    8.56
   5 -11 -15    1.32    3.31
  11   5 -15    3.55    4.64
  11  -5 -15    3.93    4.24
  11  -5  15    4.29    5.41
  11   5  15   -1.12    3.72
  -5 -11 -15    4.22    1.42
 -11  -5 -15   15.63    5.72
 -11   5 -15    2.86    3.05
  -5  11 -15    2.98    4.14
   5  11 -15    6.63    3.77
  11   5 -15    7.09    4.23
   5 -11 -16   -1.20    3.20
  11   5 -16    2.83    2.74
  11  -5 -16    3.06    5.08
  11  -5  16    2.97    2.65
  11   5  16    7.23    4.96
  -5 -11 -16    5.74    4.16
 -11  -5 -16    3.26    1.52
 -11   5 -16    0.34    2.29
  -5  11 -16   -6.51    4.13
   5  11 -16    2.96    3.24
   5 -11 -17    2.40    3.30
  11   5 -17   -1.33    4.41
  11  -5 -17    1.94    3.42
  11  -5  17    7.29    5.29
  11   5  17    3.69    2.88
  -5 -11 -17    3.03    3.20
 -11  -5 -17    2.04    2.39
 -11   5 -17    5.11    2.71
  -5  11 -17    3.37    3.29
   5  11 -17    8.40    4.35
   5 -11 -18    6.54    3.28
  11   5 -18   10.57    4.25
  11  -5  18   10.28    5.90
  11   5  18    3.73    3.20
 -11   5 -18   21.35    4.66
   6 -11   0   -0.27    1.87
  11   6   0   -0.64    3.49
  11  -6   0    3.03    3.44
  -6 -11   0    3.62    2.40
 -11  -6   0    2.92    2.10
   6 -11  -1   14.74    4.27
   6 -11   1   13.29    3.31
  11   6  -1   12.75    3.73
  11  -6  -1   15.75    4.14
  11  -6   1   23.79    5.59
  11   6   1   10.11    4.71
  -6  11  -1   16.75    3.87
  -6 -11   1   16.07    5.66
  -6 -11  -1   15.96    4.58
 -11  -6   1    9.25    2.79
 -11  -6  -1   15.97    6.55
   6 -11  -2   91.02   12.06
  11   6  -2  116.43    8.40
  11  -6  -2  107.41   18.35
   6 -11   2  106.71    9.93
  11  -6   2  118.69   17.42
  11   6   2  134.53    9.27
 -11   6  -2  111.08    9.77
  -6  11  -2  109.07   10.85
   6  11  -2  127.95    9.71
  -6 -11   2  111.88   12.98
  -6 -11  -2  140.61   18.73
 -11  -6   2  117.62   11.35
 -11  -6  -2  114.12   21.12
   6 -11  -3   33.32    5.81
  11   6  -3   45.27   10.23
  11  -6  -3   41.88    7.31
   6 -11   3   26.82    4.56
  11  -6   3   38.39    8.34
  11   6   3   36.11    6.26
 -11   6  -3   32.97    6.22
  -6  11  -3   43.71    9.25
   6  11  -3   41.19   11.21
  -6 -11   3   38.40    8.05
  -6 -11  -3   43.89    8.24
 -11  -6   3   33.13    8.97
 -11  -6  -3   51.71   10.43
   6 -11  -4   31.61    6.35
  11   6  -4   45.95    9.59
  11  -6  -4   43.16    9.48
   6 -11   4   32.64    5.40
  11  -6   4   35.70    7.77
  11   6   4   52.70   10.83
 -11   6  -4   39.61    6.47
  -6  11  -4   42.82    5.11
   6  11  -4   52.12    8.44
  -6 -11   4   49.97   11.56
  -6 -11  -4   41.56    8.09
 -11  -6   4   45.91    9.51
 -11  -6  -4   48.72    9.70
   6 -11  -5   46.20    7.66
  11   6  -5   47.38    9.53
  11  -6  -5   44.76    7.73
   6 -11   5   43.13    5.85
  11  -6   5   52.87   11.47
  11   6   5   41.23    9.67
 -11   6  -5   51.43    9.02
  -6  11  -5   45.89    6.84
   6  11  -5   55.34   12.06
  11   6  -5   44.27   10.62
  -6 -11   5   61.00    9.13
  -6 -11  -5   52.73    8.03
 -11  -6   5   65.03   12.29
 -11  -6  -5   55.02   11.87
   6 -11  -6  641.54   21.93
  11   6  -6  648.96   17.45
  11  -6  -6  626.94   21.55
   6 -11   6  605.68   14.32
  11  -6   6  631.71   20.17
  11   6   6  622.74   17.90
 -11   6  -6  627.42   22.99
  -6  11  -6  652.78   14.22
   6  11  -6  626.32   16.84
  11   6  -6  651.20   22.37
  -6 -11   6  646.02   23.44
  -6 -11  -6  642.16   21.53
 -11  -6   6  598.22   32.31
 -11  -6  -6  659.74   21.99
   6 -11  -7   59.57    8.04
  11   6  -7   59.00   13.55
  11  -6  -7   48.19    8.40
  11  -6   7   56.01   11.31
   6 -11   7   54.04    8.06
  11   6   7   58.87   10.12
 -11  -6  -7   58.62   12.39
 -11   6  -7   66.89   10.59
  -6  11  -7   55.88   14.12
   6  11  -7   55.17    9.42
  11   6  -7   59.94   11.95
  -6 -11   7   64.50   11.27
  -6 -11  -7   72.14   10.22
 -11  -6   7   63.54    9.95
 -11  -6  -7   71.00   13.82
   6 -11  -8    9.94    4.02
  11   6  -8    4.82    3.65
  11  -6  -8   15.56    6.80
  11  -6   8    6.61    3.48
   6 -11   8   10.08    4.80
  11   6   8   10.40    4.05
 -11  -6  -8   14.59    5.14
 -11   6  -8   15.10    4.86
  -6  11  -8   17.38   10.45
   6  11  -8   11.31    2.94
  11   6  -8    9.49    5.19
  -6 -11   8   17.50    4.95
  -6 -11  -8   11.39    4.53
 -11  -6   8    8.63    2.39
 -11  -6  -8   11.21    4.30
   6 -11  -9   32.72    6.06
  11  -6  -9   34.45    7.94
  11  -6   9   33.30    6.93
   6 -11   9   26.77    8.41
  11   6   9   23.80    6.69
 -11  -6  -9   33.50    8.72
 -11   6  -9   27.17    7.46
   6  11  -9   15.45    7.63
  11   6  -9   32.71    8.68
  -6 -11   9   22.52    4.33
  -6 -11  -9   22.56    5.67
 -11  -6   9   28.27    7.19
 -11  -6  -9   22.87    5.79
   6 -11 -10  216.23   21.97
  11   6 -10  208.65   21.90
  11  -6 -10  191.07   30.24
  11  -6  10  220.14   24.74
  11   6  10  187.39   27.15
   6 -11  10  211.58   25.68
 -11  -6 -10  193.54   31.80
 -11   6 -10  190.52   23.85
  -6  11 -10  214.09   24.62
   6  11 -10  185.10   24.48
  11   6 -10  195.08   30.30
  -6 -11  10  212.43   23.46
  -6 -11 -10  223.24   24.01
 -11  -6  10  197.55   21.43
 -11  -6 -10  197.70   24.57
   6 -11 -11   -0.09    2.61
  11   6 -11    3.11    2.84
  11  -6 -11    4.54    4.13
  11  -6  11    0.79    1.89
  11   6  11    7.52    4.95
   6 -11  11   -0.32    2.60
 -11  -6 -11    5.32    2.53
 -11   6 -11    0.59    1.53
  -6  11 -11   -0.75    3.52
   6  11 -11   11.72    6.15
  11   6 -11    0.40    5.01
  -6 -11  11    2.16    2.50
  -6 -11 -11   -1.72    2.32
 -11  -6 -11    4.28    3.31
   6 -11 -12    1.44    2.16
  11   6 -12    3.30    2.47
  11  -6 -12   10.33    4.51
  11  -6  12    4.99    3.42
  11   6  12    1.14    3.98
   6 -11  12    4.48    2.95
 -11  -6 -12    8.55    3.66
 -11   6 -12    3.07    3.18
  -6  11 -12    6.77    2.64
   6  11 -12    1.72    5.35
  11   6 -12    2.53    3.12
 -11  -6 -12    4.56    2.23
   6 -11 -13    5.50    2.63
  11   6 -13   17.32    4.43
  11  -6 -13   13.67    5.75
  11  -6  13   11.49    6.83
  11   6  13    9.26    5.90
 -11  -6 -13    6.01    3.50
 -11   6 -13    4.80    3.46
  -6  11 -13    0.27    2.67
   6  11 -13    3.10    4.52
  11   6 -13    3.90    3.17
   6 -11 -14    2.47    2.87
  11   6 -14    2.71    2.11
  11  -6 -14    3.02    2.84
  11  -6  14    1.66    2.81
  11   6  14    7.82    5.98
 -11  -6 -14    8.16    4.45
 -11   6 -14   -0.60    3.53
  -6  11 -14    3.76    3.76
   6  11 -14    2.90    3.34
  11   6 -14    1.58    2.50
   6 -11 -15    2.81    3.09
  11   6 -15    8.52    2.85
  11  -6 -15    8.29    6.22
  11  -6  15    6.63    5.08
  11   6  15    3.23    2.48
  -6 -11 -15    5.64    2.68
 -11  -6 -15   12.72    3.70
 -11   6 -15    8.22    3.63
  -6  11 -15    6.48    4.21
   6  11 -15    7.33    5.37
  11   6 -15    4.39    5.22
   6 -11 -16    4.73    2.92
  11   6 -16    6.83    2.70
  11  -6 -16    6.52    4.73
  11  -6  16   -1.65    4.27
  11   6  16    5.55    2.53
  -6 -11 -16    2.58    1.92
 -11  -6 -16    3.39    2.54
 -11   6 -16    9.19    3.16
  -6  11 -16   -1.37    4.16
  11   6 -16    3.34    2.74
   6  11 -16    1.40    4.25
   6 -11 -17    4.00    3.47
  11   6 -17    2.08    1.82
  11  -6 -17   -0.77    4.53
  11  -6  17    7.64    3.83
  11   6  17    1.62    4.44
  -6 -11 -17    2.64    2.38
 -11  -6 -17   -0.42    2.33
 -11   6 -17    1.97    2.59
  -6  11 -17   -0.18    3.99
   6  11 -17    3.23    3.48
   6 -11 -18   21.80    8.30
  11   6 -18   32.90   10.20
  11   6  18   22.40   14.59
  -6 -11 -18   21.16   10.50
   7 -11   0   17.51    4.25
  11   7   0   14.07    4.36
  11  -7   0   17.07    4.97
  -7 -11   0   17.79    4.43
 -11  -7   0   17.64    5.35
   7 -11  -1  173.18    9.94
   7 -11   1  182.74   11.94
  11   7  -1  175.15   12.53
  11  -7  -1  202.34   20.26
  11  -7   1  183.12   14.26
  11   7   1  191.61   16.35
  -7 -11   1  219.41   25.92
  -7 -11  -1  187.53   13.27
 -11  -7   1  213.69   20.58
 -11  -7  -1  184.41   15.66
   7 -11  -2  394.11   17.18
  11   7  -2  381.20   19.32
  11  -7  -2  411.09   19.57
   7 -11   2  380.34   19.25
  11  -7   2  386.38   18.76
  11   7   2  391.69   22.04
  -7 -11   2  447.99   20.39
  -7 -11  -2  430.60   24.19
 -11  -7   2  395.25   17.56
 -11  -7  -2  400.85   19.20
   7 -11  -3  135.36    7.87
  11   7  -3  152.81    9.60
  11  -7  -3  172.17   13.45
   7 -11   3  144.86   14.88
  11  -7   3  150.03   21.93
  11   7   3  143.41   15.46
 -11   7  -3  155.51    9.80
  -7  11  -3  132.12   14.58
   7  11  -3  155.93   17.97
  -7 -11   3  160.66   18.64
  -7 -11  -3  186.61   19.39
 -11  -7   3  196.16    9.39
 -11  -7  -3  153.68   10.04
   7 -11  -4   10.23    4.26
  11   7  -4    9.11    5.84
  11  -7  -4   19.26    6.01
   7 -11   4   20.04    3.96
  11  -7   4   16.88    6.88
  11   7   4   18.42    4.38
 -11   7  -4   14.39    3.31
  -7  11  -4    3.76    2.26
   7  11  -4    9.52    4.80
  -7 -11   4   12.75    5.52
  -7 -11  -4   17.80    4.21
 -11  -7   4   23.72    5.30
 -11  -7  -4   15.92    6.93
   7 -11  -5    4.99    3.03
  11   7  -5    5.02    3.51
  11  -7  -5    5.31    3.46
   7 -11   5    5.25    3.50
  11  -7   5    9.98    4.57
  11   7   5    5.21    3.79
 -11   7  -5    3.33    2.17
  -7  11  -5    6.31    2.38
   7  11  -5    4.28    3.24
  11   7  -5    7.58    7.58
  -7 -11   5    9.74    4.20
  -7 -11  -5    7.67    3.33
 -11  -7   5    7.04    5.26
 -11  -7  -5   10.65    3.34
   7 -11  -6   17.30    4.09
  11   7  -6   13.39    5.85
  11  -7  -6    5.29    4.71
   7 -11   6   17.57    5.20
  11  -7   6   14.40    6.13
  11   7   6   14.45    4.96
 -11   7  -6   14.51    3.54
  -7  11  -6   12.22    2.73
   7  11  -6   18.13    7.26
  11   7  -6    8.07    7.62
  -7 -11   6   11.99    4.80
  -7 -11  -6    4.06    5.62
 -11  -7   6   12.91    5.22
 -11  -7  -6   16.41    4.45
   7 -11  -7   88.60   14.44
  11   7  -7  113.17    9.46
  11  -7  -7  105.73   19.75
   7 -11   7   84.04   16.83
  11  -7   7  100.68    7.81
  11   7   7   85.53   16.67
 -11   7  -7  104.45   10.51
  -7  11  -7  101.27    8.74
   7  11  -7  110.81   19.60
  11   7  -7  100.28    9.49
  -7 -11   7  106.84   15.37
  -7 -11  -7  108.74   18.02
 -11  -7   7  125.11    9.42
 -11  -7  -7  103.79   18.54
   7 -11  -8   27.61    4.97
  11   7  -8   15.66    5.88
  11  -7  -8   26.83    5.75
  11  -7   8   25.44    6.48
   7 -11   8   30.75    7.71
  11   7   8   24.89    5.85
 -11  -7  -8   19.54    5.51
 -11   7  -8   25.66    5.85
  -7  11  -8   25.45    5.63
   7  11  -8   10.82    5.85
  11   7  -8   23.50    6.92
  -7 -11   8   27.67    5.37
  -7 -11  -8   36.99    6.34
 -11  -7   8   20.32    3.90
 -11  -7  -8   32.37    8.78
   7 -11  -9   41.99    7.20
  11   7  -9   43.31   10.62
  11  -7  -9   51.58   10.77
  11  -7   9   45.54   12.36
   7 -11   9   39.30   12.38
  11   7   9   38.36    9.99
 -11  -7  -9   42.16   13.43
 -11   7  -9   55.22    9.75
  -7  11  -9   49.46    9.69
   7  11  -9   60.80   11.92
  11   7  -9   43.63   10.20
  -7 -11   9   56.62   11.89
  -7 -11  -9   53.11   12.20
 -11  -7   9   49.28   10.45
 -11  -7  -9   37.36    7.13
   7 -11 -10   97.76   14.38
  11   7 -10   81.76   15.70
  11  -7 -10  181.81   17.65
  11  -7  10   79.16   19.17
   7 -11  10   77.48   17.89
  11   7  10   84.28    9.77
 -11  -7 -10  101.55   16.09
 -11   7 -10  104.18   13.12
  -7  11 -10   97.95   10.61
   7  11 -10   81.66   20.04
  11   7 -10   81.73   15.66
  -7 -11  10   73.94   14.89
  -7 -11 -10   91.32   14.79
 -11  -7  10   97.91    8.39
 -11  -7 -10  113.55    8.55
   7 -11 -11   36.34    6.25
  11   7 -11   49.08    9.09
  11  -7 -11   39.66    8.47
  11  -7  11   36.33   10.32
   7 -11  11   37.19    9.06
  11   7  11   40.00    7.95
 -11  -7 -11   67.63   14.98
 -11   7 -11   41.89    7.49
  -7  11 -11   38.89   11.02
   7  11 -11   31.57    8.82
  11   7 -11   35.02    9.92
  -7 -11  11   33.64    9.75
  -7 -11 -11   39.18    9.01
 -11  -7  11   33.55    5.91
 -11  -7 -11   35.13    9.17
   7 -11 -12    5.47    3.05
  11   7 -12   11.80    3.27
  11  -7 -12    2.32    3.54
  11  -7  12    3.06    3.09
   7 -11  12    5.09    2.30
  11   7  12   10.36    4.48
 -11  -7 -12    5.04    3.74
 -11   7 -12   11.42    4.88
  -7  11 -12    3.03    3.11
   7  11 -12    9.96    5.70
  11   7 -12   10.57    7.03
 -11  -7 -12    6.61    3.00
   7 -11 -13   16.67    4.74
  11   7 -13   18.48    4.90
  11  -7 -13   12.34    4.92
  11  -7  13    9.28    4.72
  11   7  13   11.53    6.13
 -11  -7 -13   12.82    4.89
 -11   7 -13   12.48    3.68
  -7  11 -13    9.16    4.52
   7  11 -13   11.95    8.56
  11   7 -13    3.38    2.42
   7 -11 -14   71.07   11.72
  11   7 -14   70.22   11.73
  11  -7 -14   88.33   10.12
  11  -7  14   60.14   17.42
  11   7  14   61.77   16.66
 -11  -7 -14   61.45   13.60
 -11   7 -14   74.10   12.82
  -7  11 -14   60.06   18.86
   7  11 -14   69.47   13.69
  11   7 -14   63.79   12.18
   7 -11 -15    9.78    4.45
  11   7 -15    8.12    2.92
  11  -7 -15   15.23    4.56
  11  -7  15    8.20    3.25
  11   7  15   11.70    4.84
  -7 -11 -15    2.38    3.87
 -11  -7 -15    8.68    4.48
 -11   7 -15    5.61    3.53
  -7  11 -15    6.31    2.95
   7  11 -15   10.12    6.90
  11   7 -15   11.31    5.97
   7 -11 -16    7.95    3.95
  11   7 -16   13.36    4.12
  11  -7 -16    6.05    3.38
  11  -7  16   -1.39    3.10
  11   7  16    4.77    4.17
  -7 -11 -16    3.89    4.57
 -11  -7 -16    2.52    2.72
 -11   7 -16    6.27    2.43
  -7  11 -16   11.14    7.15
  11   7 -16    9.63    5.22
   7  11 -16    4.30    3.21
   7 -11 -17    5.43    5.60
  11   7 -17    4.17    3.46
  11  -7 -17   11.87    4.95
  11  -7  17    3.17    3.66
  11   7  17    5.68    3.08
  -7 -11 -17    0.19    2.01
 -11   7 -17    4.93    3.63
  -7  11 -17    4.53    2.65
  11   7 -17   17.71    8.08
   7  11 -17   15.07    9.12
  11   7 -18    8.91    4.22
   8 -11   0  385.18   18.56
  11   8   0  377.89   19.55
  11  -8   0  409.76   13.50
  -8 -11   0  381.24   25.53
 -11  -8   0  389.81   15.01
   8 -11  -1   67.82   10.99
  11   8  -1   67.38   11.60
  11  -8  -1   74.38   12.46
   8 -11   1   79.28   10.54
  11   8   1   77.28    7.44
  11  -8   1   92.68   14.39
  -8 -11   1   95.91   18.83
  -8 -11  -1   85.93   15.88
 -11  -8   1   86.75    8.61
 -11  -8  -1   86.65   15.50
   8 -11  -2   31.54    5.48
  11   8  -2   31.52    4.34
  11  -8  -2   29.84    7.24
   8 -11   2   26.61    5.05
  11  -8   2   29.46    4.98
  11   8   2   25.40    6.97
  -8 -11   2   35.24    7.66
  -8 -11  -2   28.47    8.12
 -11  -8   2   24.95    5.69
 -11  -8  -2   30.64    7.73
   8 -11  -3   11.11    3.72
  11   8  -3   13.76    2.88
  11  -8  -3   26.04    4.98
   8 -11   3   10.16    4.91
  11  -8   3   22.48    4.88
  11   8   3   10.15    4.18
   8  11  -3   18.10    7.76
  -8 -11   3    9.46    3.80
  -8 -11  -3   25.27    7.03
 -11  -8   3   15.45    7.44
 -11  -8  -3   23.06    5.45
   8 -11  -4  137.66   20.84
  11   8  -4  159.51   10.45
  11  -8  -4  173.39   13.76
   8 -11   4  129.11   18.33
  11  -8   4  156.32   13.28
  11   8   4  153.76   14.77
  -8  11  -4  140.76    9.80
   8  11  -4  138.20   23.43
  11   8  -4  151.90    9.69
  -8 -11   4  156.22   15.44
  -8 -11  -4  159.57   16.05
 -11  -8   4  132.94   25.05
 -11  -8  -4  159.03   13.72
   8 -11  -5   52.15   10.59
  11   8  -5   43.99    9.84
  11  -8  -5   54.26    8.76
   8 -11   5   45.61   10.45
  11  -8   5   45.32   13.94
  11   8   5   65.87   12.52
 -11   8  -5   57.19    9.02
  -8  11  -5   37.62   12.64
   8  11  -5   59.58   13.83
  11   8  -5   41.64   11.77
  -8 -11   5   69.99   15.11
  -8 -11  -5   69.67   11.18
 -11  -8   5   56.37   12.13
 -11  -8  -5   70.56   13.51
   8 -11  -6    2.76    2.93
  11   8  -6    6.38    4.33
  11  -8  -6    4.38    4.66
   8 -11   6    2.02    3.08
  11  -8   6   -0.98    4.98
  11   8   6    3.32    2.97
 -11   8  -6    1.80    2.92
  -8  11  -6   -0.47    2.52
   8  11  -6    0.97    5.27
  11   8  -6   -1.84    5.81
  -8 -11   6    4.32    2.48
  -8 -11  -6    4.33    4.17
 -11  -8   6    3.24    2.37
 -11  -8  -6    3.91    3.91
   8 -11  -7    5.13    3.64
  11   8  -7    8.46    3.49
  11  -8  -7    5.00    3.16
   8 -11   7    6.73    3.63
  11  -8   7    6.88    4.06
  11   8   7    5.90    4.22
 -11   8  -7    4.40    2.50
  -8  11  -7    3.82    3.23
   8  11  -7    0.83    4.14
  11   8  -7   17.42    7.58
  -8 -11   7    7.24    3.18
  -8 -11  -7   10.85    3.59
 -11  -8   7   13.09    4.88
 -11  -8  -7    2.95    2.52
   8 -11  -8   10.44    3.23
  11   8  -8    8.54    3.89
  11  -8  -8    6.74    2.92
  11  -8   8    8.52    5.07
   8 -11   8    2.95    2.48
  11   8   8    6.03    3.68
 -11   8  -8   10.50    5.75
  -8  11  -8    4.44    2.53
   8  11  -8   11.54    5.54
  11   8  -8    3.63    3.92
  -8 -11   8    7.81    2.52
  -8 -11  -8   19.97    4.97
 -11  -8   8    8.98    4.03
 -11  -8  -8   11.64    3.72
   8 -11  -9   22.13    3.20
  11   8  -9   25.52    4.98
  11  -8  -9   10.37    3.70
  11  -8   9   24.99    5.40
   8 -11   9   22.13    4.79
  11   8   9   22.10    8.26
 -11   8  -9   21.21    4.10
  -8  11  -9   24.52    5.94
   8  11  -9   29.07    9.78
  11   8  -9   18.55    4.14
  -8 -11   9   26.30    5.04
  -8 -11  -9   16.63    5.44
 -11  -8   9   31.05    5.28
 -11  -8  -9   20.63    4.49
   8 -11 -10    5.16    2.76
  11   8 -10    3.85    1.87
  11  -8 -10    5.75    3.97
  11  -8  10   10.83    5.09
   8 -11  10    3.53    2.08
  11   8  10    7.12    2.69
 -11  -8 -10    1.86    4.69
 -11   8 -10    1.97    2.61
  -8  11 -10    2.73    2.58
   8  11 -10    5.77    4.74
  11   8 -10    6.34    3.61
  -8 -11  10    6.08    2.63
  -8 -11 -10    5.95    2.66
 -11  -8  10    9.53    3.52
 -11  -8 -10    4.13    3.79
   8 -11 -11   41.32    6.36
  11   8 -11   40.59    9.71
  11  -8 -11   86.56    8.95
  11  -8  11   38.51   12.28
   8 -11  11   38.40    8.03
  11   8  11   40.19   12.03
 -11  -8 -11   37.01   12.19
 -11   8 -11   55.29   11.78
  -8  11 -11   30.52    6.51
   8  11 -11   57.30   11.88
  11   8 -11   30.47   10.22
  -8 -11  11   41.64    9.34
  -8 -11 -11   43.34   12.20
 -11  -8  11   36.89    9.76
 -11  -8 -11   35.04    9.13
   8 -11 -12  104.35   15.11
  11   8 -12  109.71   16.19
  11  -8 -12  129.51   19.36
  11  -8  12   81.21   19.98
   8 -11  12   89.12   12.37
  11   8  12  102.84   19.78
 -11  -8 -12  113.62   21.40
 -11   8 -12  116.58   10.68
  -8  11 -12  114.55   12.92
   8  11 -12   90.60   21.00
  11   8 -12   91.81   16.25
 -11  -8 -12   74.97   16.49
   8 -11 -13   -1.20    1.91
  11   8 -13   11.30    3.87
  11  -8 -13   13.28    3.59
  11  -8  13    8.30    5.58
  11   8  13   10.50    3.96
 -11  -8 -13   -0.12    4.15
 -11   8 -13    5.56    4.77
  -8  11 -13    3.19    2.84
   8  11 -13    0.39    4.11
  11   8 -13   -0.29    4.39
   8 -11 -14   -0.17    3.65
  11   8 -14   11.56    4.10
  11  -8 -14   10.57    6.38
  11  -8  14    6.18    2.27
  11   8  14    1.56    2.81
 -11  -8 -14   11.75    4.23
 -11   8 -14    6.21    3.23
  -8  11 -14    7.28    5.64
   8  11 -14   10.76    6.88
  11   8 -14    9.43    4.93
   8 -11 -15    6.91    2.63
  11   8 -15    2.44    4.41
  11  -8 -15   10.22    3.79
  11  -8  15    9.44    6.38
  11   8  15    5.17    3.94
 -11  -8 -15    5.71    4.26
 -11   8 -15    5.42    3.65
  -8  11 -15    4.75    3.17
   8  11 -15    7.34    4.12
  11   8 -15    9.17    4.85
   8 -11 -16   38.91    8.72
  11  -8 -16   44.80   11.38
  11  -8  16   43.98   12.11
  11   8  16   35.36   12.54
 -11  -8 -16   38.09   13.66
 -11   8 -16   54.52   12.61
  -8  11 -16   39.31   14.49
   8  11 -16   18.34    8.59
  11   8 -16   31.96    9.04
   8 -11 -17    3.16    2.92
  11  -8  17    4.46    3.30
  11   8  17    7.06    4.13
  -8 -11 -17    2.01    2.64
 -11   8 -17    9.12    3.91
  11   8 -17   11.22    6.76
   9 -11   0   -3.13    3.12
  11   9   0    4.57    3.76
  11  -9   0    2.97    2.36
  -9 -11   0   -0.65    3.85
 -11  -9   0    5.96    1.55
   9 -11  -1   42.21    6.09
  11   9  -1   30.49    6.38
  11  -9  -1   39.83    5.81
   9 -11   1   29.46    6.66
  11   9   1   27.94    5.26
  11  -9   1   35.88    6.33
  -9 -11   1   42.72    7.97
  -9 -11  -1   46.03    7.76
 -11  -9   1   37.91    7.27
 -11  -9  -1   42.66    6.38
   9 -11  -2    9.48    4.30
  11   9  -2   15.31    3.74
  11  -9  -2   10.01    3.32
   9 -11   2   18.47    4.81
  11   9   2    9.57    3.94
  11  -9   2    6.69    5.31
  -9 -11   2   11.18    2.98
  -9 -11  -2   16.49    4.49
 -11  -9   2    9.90    4.19
 -11  -9  -2   11.06    3.39
   9 -11  -3    6.31    2.24
  11   9  -3    4.12    3.11
  11  -9  -3    7.48    2.67
   9 -11   3   10.21    3.07
  11  -9   3    9.42    3.11
  11   9   3    8.68    3.53
   9  11  -3    8.63    2.70
  -9 -11   3   15.71    3.88
 -11  -9   3   10.69    3.95
 -11  -9  -3   -0.02    3.40
   9 -11  -4  348.87   14.45
  11   9  -4  358.82   18.04
  11  -9  -4  372.27   12.13
   9 -11   4  331.91   14.92
  11  -9   4  357.96   21.29
  11   9   4  352.82   14.04
   9  11  -4  385.57   15.03
  11   9  -4  324.49   24.71
  -9 -11   4  378.14   16.86
  -9 -11  -4  364.52   18.25
 -11  -9   4  363.78   13.45
 -11  -9  -4  361.68   14.66
  11   9  -5   14.57    4.41
   9 -11  -5   14.65    3.61
  11  -9  -5   19.39    7.20
   9 -11   5   19.47    5.21
  11  -9   5   15.90    5.00
  11   9   5    9.35    3.81
   9  11  -5   12.91    7.41
  11   9  -5   14.92    7.97
  -9 -11   5   15.06    2.95
  -9 -11  -5   24.56    4.18
 -11  -9   5   16.20    3.14
 -11  -9  -5   12.21    4.33
  11   9  -6    2.25    3.66
   9 -11  -6    6.44    2.79
  11  -9  -6    6.93    3.47
   9 -11   6    4.95    1.89
  11  -9   6    3.72    2.09
  11   9   6    1.36    1.36
  -9  11  -6    2.92    2.50
   9  11  -6    6.51    4.00
  11   9  -6    5.64    5.03
  -9 -11   6    3.46    2.51
  -9 -11  -6    0.69    4.00
 -11  -9   6    3.83    2.53
 -11  -9  -6    4.61    3.69
  11   9  -7    8.45    3.65
   9 -11  -7   10.89    6.21
  11  -9  -7   -2.13    3.87
   9 -11   7   14.88    7.97
  11  -9   7    2.25    4.20
  11   9   7   10.80    3.88
 -11   9  -7    0.13    2.14
  -9  11  -7   13.59    6.06
   9  11  -7    3.61    4.73
  11   9  -7   12.19    5.34
  -9 -11   7    9.55    4.07
  -9 -11  -7    7.88    3.84
 -11  -9   7    5.85    2.60
 -11  -9  -7    5.46    5.60
   9 -11  -8  261.79   15.82
  11  -9  -8  255.95   25.97
   9 -11   8  243.36   13.90
  11  -9   8  270.04   20.46
  11   9   8  265.64   11.39
 -11   9  -8  244.28   18.90
   9  11  -8  199.38   30.46
  11   9  -8  215.36   35.93
  -9 -11   8  304.22   28.19
  -9 -11  -8  277.52   16.91
 -11  -9   8  262.56    8.89
 -11  -9  -8  262.08   21.49
   9 -11  -9    6.12    4.85
  11  -9  -9    1.34    3.56
   9 -11   9    5.28    3.31
  11  -9   9    4.58    4.28
  11   9   9    4.32    3.40
 -11   9  -9    4.71    2.11
  -9  11  -9    0.40    1.24
   9  11  -9    3.89    5.05
  11   9  -9   -1.67    4.53
  -9 -11   9    3.72    1.89
  -9 -11  -9    7.71    3.03
 -11  -9   9    6.86    2.50
 -11  -9  -9   -0.07    2.81
   9 -11 -10    1.48    1.72
  11  -9 -10    2.20    2.49
   9 -11  10    2.09    3.24
  11  -9  10    0.77    2.26
  11   9  10   -0.11    1.88
 -11   9 -10    2.62    2.62
  -9  11 -10   -0.48    3.04
   9  11 -10   -2.09    6.85
  11   9 -10    1.52    2.91
  -9 -11  10    7.66    2.79
  -9 -11 -10    2.22    2.85
 -11  -9  10    3.09    2.07
 -11  -9 -10    2.04    2.95
   9 -11 -11    1.72    1.99
  11  -9 -11    6.37    2.49
  11  -9  11    3.66    1.87
   9 -11  11    6.38    3.90
  11   9  11   -0.84    3.18
 -11   9 -11    2.37    2.70
  -9  11 -11   -2.37    2.98
   9  11 -11    3.13    4.95
  11   9 -11    5.19    4.92
  -9 -11  11    3.62    3.13
  -9 -11 -11    3.20    2.78
 -11  -9  11    2.20    1.83
 -11  -9 -11    6.41    4.21
   9 -11 -12   29.54    6.22
  11  -9 -12   31.32    7.29
  11  -9  12   33.56    8.21
   9 -11  12   19.41    7.52
  11   9  12   28.60    7.43
 -11  -9 -12   30.39    8.21
 -11   9 -12   35.60    7.58
  -9  11 -12   29.69    8.35
   9  11 -12   28.40    8.71
  11   9 -12   22.77    9.76
 -11  -9 -12   29.07    6.95
   9 -11 -13    7.90    6.15
  11  -9 -13   18.24    4.30
  11  -9  13    4.39    2.69
  11   9  13    9.22    2.75
 -11  -9 -13   10.80    5.51
 -11   9 -13    4.92    3.09
  -9  11 -13   16.07    5.17
   9  11 -13    5.70    3.34
  11   9 -13    8.95    3.04
   9 -11 -14    1.90    1.94
  11  -9 -14    4.76    3.80
  11  -9  14    4.75    3.74
  11   9  14    5.36    2.55
 -11  -9 -14   -0.34    4.35
 -11   9 -14   -1.58    3.18
  -9  11 -14    0.55    2.18
   9  11 -14    1.72    2.33
  11   9 -14    1.08    5.31
   9 -11 -15    0.75    2.07
  11  -9 -15    5.83    4.44
  11  -9  15    4.12    3.87
  11   9  15    1.98    3.36
 -11  -9 -15    3.73    4.34
 -11   9 -15    3.72    3.17
  -9  11 -15    0.45    2.37
   9  11 -15    6.28    3.72
  11   9 -15   -0.77    5.27
   9 -11 -16   19.11    4.56
  11  -9 -16   14.10    6.56
  11  -9  16   15.10    5.17
 -11   9 -16    9.96    4.74
  -9  11 -16   16.18    9.48
  11   9 -16    8.95    6.28
   9  11 -16   23.48    8.05
  10 -11   0   63.67   10.56
  11 -10   0   56.58    8.39
 -10 -11   0   66.47   10.31
 -11 -10   0   60.59   10.12
  10 -11  -1  113.82   18.02
  11 -10  -1  128.96   24.23
  10 -11   1  126.41   21.20
  11 -10   1  110.51   18.31
 -10 -11   1  143.84   22.26
 -10 -11  -1  145.99   13.86
 -11 -10   1  148.65   21.71
 -11 -10  -1  141.56   15.20
  10 -11  -2   23.87    4.52
  11 -10  -2   24.06    4.16
  10 -11   2   26.53    5.63
  11 -10   2   35.08    8.90
 -10 -11   2   33.55    5.22
 -10 -11  -2   18.63    8.10
 -11 -10   2   27.09    4.32
 -11 -10  -2   15.83    7.04
  10 -11  -3    5.14    1.65
  11 -10  -3    8.88    3.57
  10 -11   3    6.13    2.63
  11 -10   3    8.50    3.61
  10  11  -3   15.91    5.77
 -10 -11   3   10.57    3.71
 -10 -11  -3   14.57    4.15
 -11 -10   3   10.81    3.66
 -11 -10  -3    9.18    3.07
  10 -11  -4   29.56    7.14
  11 -10  -4   44.98    9.71
  10 -11   4   54.11    7.59
  11 -10   4   43.54    9.79
  10  11  -4   41.73   14.94
  11  10  -4   33.32    9.85
 -10 -11   4   42.91    8.02
 -10 -11  -4   62.27   10.13
 -11 -10   4   65.99   11.53
 -11 -10  -4   49.88    9.95
  10 -11  -5   39.22    6.34
  11 -10  -5   33.86    7.59
  10 -11   5   29.97    6.50
  11 -10   5   35.32    7.48
  10  11  -5   40.77    8.27
  11  10  -5   29.38   10.02
 -10 -11   5   45.36    6.77
 -10 -11  -5   39.43    8.64
 -11 -10   5   45.07    8.07
 -11 -10  -5   47.52   11.67
  10 -11  -6  147.96   25.78
  11 -10  -6  170.02   28.47
  10 -11   6  156.31   20.83
  11 -10   6  183.56   23.56
  10  11  -6  160.81   31.52
  11  10  -6  186.81   32.35
 -10 -11   6  248.18   14.83
 -11 -10   6  192.45   20.20
 -10 -11  -6  203.05   21.52
 -11 -10  -6  202.33   21.36
  10 -11  -7   21.58    5.58
  11 -10  -7   34.82    6.35
  10 -11   7   24.49    7.21
  11 -10   7   27.97    7.48
  10  11  -7   40.66   10.49
  11  10  -7   34.84    8.70
 -10 -11   7   39.98    6.89
 -11 -10   7   33.99    6.76
 -10 -11  -7   38.86    6.43
 -11 -10  -7   33.39    6.79
  10 -11  -8   58.12   14.03
  11 -10  -8   69.02    9.69
  10 -11   8   63.13   13.66
  11 -10   8   58.34   15.12
  10  11  -8   51.33   12.65
  11  10  -8   76.05   11.99
 -10 -11   8   75.32   11.75
 -11 -10   8   80.65   11.05
 -10 -11  -8   64.63    9.97
 -11 -10  -8   83.27   13.46
  10 -11  -9   18.34    5.38
  11 -10  -9   24.74    5.63
  11 -10   9   26.77    6.90
  10 -11   9   17.23    4.85
 -11  10  -9   12.33    5.52
 -10  11  -9   12.03    6.47
  10  11  -9   49.05   13.89
  11  10  -9   18.45    8.41
 -10 -11   9   33.60    5.20
 -11 -10   9   26.00    6.18
 -10 -11  -9   30.09    5.84
 -11 -10  -9   13.18    3.68
  10 -11 -10   46.98    9.03
  11 -10 -10   45.79    7.45
  11 -10  10   42.39   13.41
  10 -11  10   26.36    8.16
 -11  10 -10   36.04   10.53
 -10  11 -10   38.68    8.68
  10  11 -10   41.28    9.65
  11  10 -10   46.50   12.90
 -10 -11  10   61.77   11.21
 -11 -10  10   54.30    6.59
 -10 -11 -10   55.01    7.45
 -11 -10 -10   60.92    8.40
  10 -11 -11   25.77    8.21
  11 -10 -11   33.66    5.89
  10 -11  11   26.51    8.83
  11 -10  11   29.52    5.98
 -11  10 -11   29.15    8.31
 -10  11 -11   27.73    4.65
  10  11 -11   11.38    6.92
  11  10 -11   38.10    8.33
 -10 -11  11   26.64    7.07
 -10 -11 -11   39.89    8.42
 -11 -10 -11   24.22    4.99
  10 -11 -12   21.02    6.20
  11 -10 -12   21.64    5.44
  11 -10  12    8.77    5.95
  10 -11  12   11.00    5.15
 -11  10 -12   10.47    4.94
 -10  11 -12    8.36    3.14
  10  11 -12   23.51    9.10
  11  10 -12   21.94    7.82
 -11 -10 -12   12.31    4.33
  10 -11 -13    8.56    2.25
  11 -10 -13    9.69    3.38
  11 -10  13   19.91    5.74
 -11  10 -13    9.71    5.76
 -10  11 -13   23.48    3.72
  10  11 -13   18.16    7.43
  11  10 -13    9.14    4.26
  10 -11 -14   -1.48    3.12
  11 -10 -14    5.49    4.32
  11 -10  14    3.25    2.27
 -11  10 -14    1.51    2.87
 -10  11 -14    3.21    2.39
  10  11 -14   -4.06    4.88
  11  10 -14    3.28    3.71
  10 -11 -15    8.15    3.59
  11 -10 -15   10.77    4.08
  11 -10  15    9.32    5.29
 -11  10 -15    2.92    1.93
 -10  11 -15    3.75    1.97
  10  11 -15    3.68    4.06
  11  10 -15    5.71    3.92
  10 -11 -16    3.16    1.85
  11 -10 -16    8.61    3.27
  11 -10  16    4.85    3.22
 -11  10 -16    6.24    2.56
 -10  11 -16   10.68    4.96
  11 -11   0    4.05    2.07
 -11 -11   0   -1.04    3.43
  11 -11  -1    5.65    3.53
  11 -11   1   12.50    3.46
 -11 -11   1   12.14    4.84
 -11 -11  -1   15.78    5.31
  11 -11  -2  142.51   21.37
  11 -11   2  157.21   14.69
 -11 -11   2  142.70   19.04
 -11 -11  -2  169.32   27.12
  11 -11  -3    4.92    3.40
  11 -11   3    1.26    2.84
  11  11  -3   10.22    5.13
 -11 -11   3    4.11    2.62
 -11 -11  -3    5.36    3.68
  11 -11  -4    4.81    1.63
  11 -11   4    7.37    3.04
  11  11  -4    6.21    3.30
 -11 -11   4   13.45    3.56
 -11 -11  -4    5.73    3.57
  11 -11  -5    9.80    3.09
  11 -11   5    4.34    3.83
  11  11  -5    9.26    6.91
 -11 -11   5   14.94    3.20
 -11 -11  -5    7.47    2.73
  11 -11  -6   29.58    8.66
  11 -11   6   28.93    7.07
  11  11  -6   17.40    8.83
 -11 -11   6   38.88    6.36
 -11 -11  -6   47.80    9.12
  11 -11  -7   -2.98    3.40
  11 -11   7   -0.39    3.25
  11  11  -7    5.36    6.69
 -11 -11   7    1.32    2.85
 -11 -11  -7    3.47    2.93
  11 -11  -8    8.97    5.64
  11 -11   8    7.51    3.89
  11  11  -8   10.89    7.55
 -11 -11   8   14.15    4.78
 -11 -11  -8    6.67    2.92
  11 -11  -9    4.63    3.41
  11 -11   9   16.51    6.96
  11  11  -9    9.70    6.94
 -11 -11   9    5.38    2.54
 -11 -11  -9   12.87    4.13
  11 -11 -10   43.97    8.29
  11 -11  10   36.42    7.38
  11  11 -10   38.78    7.01
 -11 -11  10   41.22    7.77
 -11 -11 -10   42.85    6.19
  11 -11 -11    3.52    2.75
  11 -11  11    2.38    3.70
  11  11 -11   -0.38    3.23
 -11 -11 -11    0.04    3.05
  11 -11 -12   11.32    3.45
  11 -11  12    3.19    3.35
 -11  11 -12    5.61    3.38
  11  11 -12    2.91    4.93
  11 -11 -13    3.68    2.36
 -11  11 -13   -0.04    3.09
  11  11 -13    7.22    4.46
  11 -11 -14   38.30   10.64
 -11  11 -14   32.64    8.94
  11  11 -14   30.44   12.70
  11 -11 -15    2.37    2.47
 -11  11 -15    1.83    2.01
  12   0   0  858.35   23.53
   0  12   0  867.37   29.27
   0 -12   0  896.53   15.22
  12   0  -1    1.36    3.00
  12   0   1   -1.12    4.07
   0  12  -1    0.18    3.01
   0  12   1   -0.02    3.58
   0 -12   1    1.58    3.03
   0 -12  -1    0.17    2.66
  12   0  -2  101.08   16.81
  12   0   2   98.17   12.42
   0  12  -2   82.92    8.26
   0  12   2  101.35   10.47
   0 -12   2  110.81   10.83
   0 -12  -2  102.79   16.82
  12   0  -3  145.63   10.76
  12   0   3  160.12   14.53
 -12   0  -3  154.01    9.22
   0  12  -3  181.11   11.53
   0 -12   3  154.63    9.44
   0 -12  -3  141.10   15.19
  12   0  -4  214.92   15.04
  12   0   4  272.31   21.09
 -12   0  -4  224.52   13.51
   0  12  -4  255.88   19.05
   0 -12  -4  239.32   11.70
  12   0  -5   35.68    6.77
  12   0   5   40.80   10.36
 -12   0  -5   41.34    6.76
   0  12  -5   40.81    7.31
  12   0  -5   26.58    5.25
   0 -12  -5   46.86   10.02
  12   0  -6    7.29    3.21
  12   0   6   11.13    4.84
 -12   0  -6   13.19    3.11
   0  12  -6   14.82    5.98
  12   0  -6    9.84    2.18
   0 -12  -6    9.30    4.61
  12   0  -7   54.92    6.45
  12   0   7   50.53   14.07
 -12   0  -7   62.61   13.76
   0  12  -7   59.41   11.36
  12   0  -7   46.73    6.81
  12   0  -8   -2.07    4.60
  12   0   8    3.30    3.49
 -12   0  -8    8.92    4.14
   0  12  -8    5.95    2.06
  12   0  -9  213.49   14.65
  12   0   9  223.09   27.21
 -12   0  -9  209.44   11.51
   0  12  -9  194.53   17.23
 -12   0   9  223.31   12.52
  12   0 -10   36.48    5.80
  12   0  10   40.29   11.04
 -12   0 -10   25.37    6.77
   0  12 -10   40.81    7.24
 -12   0  10   28.36    5.95
  12   0 -11   -4.44    4.92
  12   0  11    4.55    4.35
 -12   0 -11    4.88    3.13
   0  12 -11   -0.53    4.23
  12   0 -12   68.53   13.22
  12   0  12   72.04   21.01
 -12   0 -12   80.16   17.62
   0  12 -12   79.18    9.48
  12   0 -13    7.11    5.83
  12   0  13   28.54    8.38
 -12   0 -13   27.68    7.04
   0  12 -13   25.70    7.56
  12   0 -14    2.36    3.59
  12   0  14   -6.21    4.56
 -12   0 -14   16.67    4.86
   0  12 -14    6.01    4.23
  12   0 -15   24.63    5.26
  12   0  15    9.90    4.66
 -12   0 -15   15.90    6.74
   0  12 -15    8.33    3.17
  12   0 -16   71.54   14.10
  12   0  16   67.29   16.86
 -12   0 -16   64.13   16.63
   0  12 -16  100.51   11.81
  12   0 -17   -2.34    4.21
  12   0  17    1.56    2.60
 -12   0 -17    6.10    3.62
   0  12 -17   10.29    3.92
  12   1   0  409.64   12.21
  12  -1   0  402.42   12.06
  -1  12   0  415.16   21.71
   1  12   0  426.17   13.23
  -1 -12   0  431.85   14.62
  12   1  -1   46.40    7.29
  12  -1  -1   58.98   12.76
  12  -1   1   50.85    8.48
  12   1   1   56.96   10.46
  -1  12  -1   45.35   13.26
  -1  12   1   59.52   11.91
   1  12  -1   64.75   14.54
   1  12   1   49.48   10.97
  -1 -12   1   61.90   12.28
  -1 -12  -1   56.31   10.69
  12   1  -2  193.28   17.75
  12  -1  -2  172.50   10.90
  12   1   2  188.40    8.63
  12  -1   2  193.97   10.24
 -12   1  -2  195.48    9.99
  -1  12  -2  216.75   12.11
   1  12  -2  210.33    9.97
  -1  12   2  189.36   12.55
  -1 -12   2  291.90   16.44
  -1 -12  -2  200.51   11.87
  12   1  -3   44.79   10.63
  12  -1  -3   31.07    5.64
  12   1   3   30.45    7.02
  12  -1   3   45.08    8.73
 -12  -1  -3   37.95    6.48
 -12   1  -3   36.03    7.14
  -1  12  -3   36.82    7.44
   1  12  -3   22.59    6.05
  -1  12   3   34.38    4.70
  -1 -12   3   56.52   10.83
  -1 -12  -3   43.67    8.37
  12   1  -4  176.98   18.88
  12  -1  -4  182.28   30.46
  12   1   4  214.39   17.16
 -12  -1  -4  190.46   11.43
 -12   1  -4  239.07   19.18
  -1  12  -4  165.34   12.04
   1  12  -4  191.17   13.53
  -1 -12   4  181.84   11.12
  -1 -12  -4  192.60   18.26
  12   1  -5    9.99    6.93
  12  -1  -5    9.52    6.25
  12  -1   5    1.89    4.10
  12   1   5   15.11    5.00
 -12  -1  -5   11.92    2.75
 -12   1  -5   16.44    4.72
  -1  12  -5    6.79    4.95
   1  12  -5   12.86    6.37
  12  -1  -5    9.66    1.93
  12   1  -5    3.94    3.79
  -1 -12   5   11.65    4.63
  -1 -12  -5   10.83    3.90
  12   1  -6   52.57   11.17
  12  -1  -6   59.09   12.61
  12  -1   6   38.58    9.70
  12   1   6   61.73   11.60
 -12  -1  -6   51.05   12.27
 -12   1  -6   60.89    8.64
  -1  12  -6   53.76    6.98
   1  12  -6   65.80    9.39
  12   1  -6   46.98    7.74
  -1 -12   6   51.75   11.45
  -1 -12  -6   68.13   17.92
  12   1  -7   -0.08    5.15
  12  -1  -7    1.95    5.33
  12  -1   7    4.77    3.27
  12   1   7   -2.18    4.89
 -12  -1  -7    4.83    2.75
 -12   1  -7    4.24    2.02
  -1  12  -7   10.26    7.67
   1  12  -7    3.31    3.37
  12   1  -7    0.99    2.45
  -1 -12  -7    7.99    2.59
 -12  -1   7    3.43    2.74
  12   1  -8  141.50   12.19
  12  -1  -8  152.53   11.76
  12  -1   8  147.66   13.29
  12   1   8  154.33   14.98
 -12  -1  -8  145.65   15.02
 -12   1  -8  181.33   14.16
  -1  12  -8  134.48   22.26
   1  12  -8  164.11   12.81
  12   1  -8  131.96   18.99
  -1 -12  -8  158.86   13.87
 -12  -1   8  167.42   13.21
  12   1  -9    4.07    2.70
  12  -1  -9   18.34    8.07
  12  -1   9    6.02    4.05
  12   1   9    7.47    2.43
 -12  -1  -9    3.52    1.97
 -12   1  -9    6.82    2.78
   1  12  -9    8.59    5.17
  12   1  -9    5.52    4.55
  -1 -12  -9    8.68    3.57
 -12  -1   9    8.44    3.99
  12   1 -10   81.32   11.07
  12  -1 -10   93.03    8.51
  12  -1  10   99.27   25.51
  12   1  10   66.78   16.57
 -12  -1 -10  107.31   17.56
 -12   1 -10   84.83   12.56
  -1  12 -10  136.88   11.89
   1  12 -10   75.05   12.90
 -12  -1  10   72.96    8.46
  12   1 -11   23.97   11.57
  12  -1 -11    2.67    7.45
  12  -1  11    1.89    4.08
  12   1  11    3.92    2.15
 -12  -1 -11   11.51    3.82
 -12   1 -11    9.48    3.37
  -1  12 -11    6.94    6.35
   1  12 -11    9.03    4.53
  12   1 -12  102.70   14.47
  12  -1 -12  104.06   16.52
  12  -1  12   88.35   18.25
  12   1  12  101.48   16.46
 -12  -1 -12  101.23   17.67
 -12   1 -12  101.25   20.09
  -1  12 -12   92.64   18.86
   1  12 -12   91.31   19.71
 -12  -1 -12   80.15   15.93
  12   1 -13   24.50    5.70
  12  -1 -13   25.22    8.44
  12  -1  13   17.98    7.55
  12   1  13   26.90    8.91
 -12  -1 -13   41.91    8.88
 -12   1 -13   10.56    6.70
  -1  12 -13   30.39    8.94
   1  12 -13    9.95    7.23
 -12  -1 -13   18.54    6.92
  12   1 -14   55.22   11.40
  12  -1 -14   74.44   11.04
  12  -1  14   61.41   17.03
  12   1  14   59.88   13.79
 -12  -1 -14   59.45   12.52
 -12   1 -14   73.40   13.95
  -1  12 -14   62.50   10.87
   1  12 -14   69.91   15.25
  12   1 -15   16.03    5.46
  12  -1 -15   25.03    5.23
  12  -1  15   25.45    8.90
  12   1  15   29.41   10.03
 -12  -1 -15   31.48    6.04
 -12   1 -15   26.65    5.23
  -1  12 -15   28.29    6.78
   1  12 -15   12.99    5.87
  12   1 -16    7.18    4.00
  12  -1 -16    6.26    2.65
  12  -1  16   14.43    8.64
  12   1  16    4.22    2.99
 -12  -1 -16    9.97    3.22
 -12   1 -16   13.82    2.93
  -1  12 -16    6.65    3.26
   1  12 -16    6.70    2.92
  12   1 -17    8.98    4.16
  12  -1 -17    5.08    2.90
  12  -1  17    2.26    3.89
  12   1  17    1.03    3.93
 -12  -1 -17    3.55    3.84
 -12   1 -17    6.57    3.87
  -1  12 -17   10.91    6.16
   1  12 -17    8.56    5.36
  12   2   0   69.16   14.04
  12  -2   0   65.87    8.86
  -2  12   0   76.76   14.75
   2  12   0   68.60    7.51
  -2 -12   0   82.28   12.14
  12   2  -1  104.92    9.10
  12  -2  -1   84.16    9.52
  12  -2   1  103.49   16.47
  12   2   1   85.80   13.26
  -2  12  -1   97.68   10.45
  -2  12   1   92.74   14.05
   2  12  -1   85.06   16.34
  -2 -12   1  100.02   18.13
  -2 -12  -1   98.27   17.97
  12   2  -2  232.82    9.17
  12  -2  -2  231.90   10.73
  12  -2   2  231.49   20.71
  12   2   2  218.42   13.48
 -12   2  -2  296.57   17.31
  -2  12  -2  210.53   16.78
  -2  12   2  240.09   10.28
   2  12  -2  259.61   19.70
  -2 -12   2  244.09   16.19
  -2 -12  -2  236.53   12.84
  12   2  -3  139.01   13.19
  12  -2  -3  146.42   13.00
  12  -2   3  117.12    9.55
  12   2   3  127.06   12.09
 -12   2  -3  145.49   13.99
  -2  12  -3  115.13    9.63
   2  12  -3  153.37   20.99
  -2  12   3  132.20   11.32
  -2 -12   3  126.72   15.17
  -2 -12  -3  138.97   14.83
  12   2  -4  117.63   14.07
  12  -2  -4  139.88   23.45
  12  -2   4  149.20   15.87
  12   2   4  279.18   39.38
 -12  -2  -4  114.84    9.29
 -12   2  -4  140.86    9.90
  -2  12  -4  126.50    9.34
   2  12  -4  127.54   10.99
  -2  12   4  135.76    8.65
  -2 -12   4  135.86   13.58
  -2 -12  -4  128.03    9.28
 -12  -2   4  125.81    7.67
  12   2  -5  125.59   14.83
  12  -2  -5  126.38   20.98
  12  -2   5  122.33   24.19
  12   2   5  116.91   27.83
 -12  -2  -5  143.39   13.35
 -12   2  -5  113.37    9.98
  -2  12  -5  129.55    8.59
   2  12  -5  119.85   19.32
  12   2  -5  115.74   15.26
  -2  12   5  117.49    8.91
  -2 -12   5  124.19   15.15
  -2 -12  -5  139.57   21.42
 -12  -2   5  116.43   11.91
  12   2  -6  443.93   24.42
  12  -2  -6  460.10   20.68
  12  -2   6  457.59   20.61
  12   2   6  479.73   35.43
 -12  -2  -6  459.00   19.95
 -12   2  -6  487.86   13.45
  -2  12  -6  457.35   24.28
   2  12  -6  515.59   16.28
  12   2  -6  509.19   13.56
  -2 -12   6  554.22   23.62
  -2 -12  -6  471.71   21.11
 -12  -2   6  471.38   16.15
  12   2  -7  114.54    8.91
  12  -2  -7   78.13    9.43
  12  -2   7   93.44   23.10
  12   2   7   91.67   16.82
 -12  -2  -7  144.31   12.49
 -12   2  -7   74.63   10.76
  -2  12  -7  104.48   19.12
   2  12  -7   86.83   18.04
  12   2  -7   83.11   13.85
  -2 -12   7  103.82   11.63
  -2 -12  -7   97.24   16.23
 -12  -2   7   78.91   14.94
  12   2  -8   58.54   13.07
  12  -2  -8   49.52   10.39
  12  -2   8   56.51   12.82
  12   2   8   51.83   10.55
 -12  -2  -8   73.28   15.00
 -12   2  -8   68.68   13.12
  -2  12  -8   57.77    9.91
   2  12  -8   49.67   13.50
  12   2  -8   48.16   10.71
  -2 -12   8   48.46    8.88
  -2 -12  -8   65.75   11.70
 -12  -2   8   44.44    9.54
  12   2  -9   39.12    7.54
  12  -2  -9   38.86    7.84
  12  -2   9   38.44    7.80
  12   2   9   29.24    8.37
 -12  -2  -9   52.51    9.29
 -12   2  -9   24.50    6.20
  -2  12  -9   45.97   10.24
   2  12  -9   40.91    7.26
  12   2  -9   37.47    9.37
  -2 -12  -9   34.76    9.12
 -12  -2   9   33.12    6.64
 -12  -2  -9   32.67    7.55
  12   2 -10  132.32   11.86
  12  -2 -10  127.52    8.31
  12  -2  10  105.33   24.24
  12   2  10  135.75   19.97
 -12  -2 -10  129.83   15.04
 -12   2 -10  139.21   16.61
  -2  12 -10  107.38   20.18
   2  12 -10  127.10   17.48
  12   2 -10  103.26   16.88
  -2 -12 -10  138.85   19.81
 -12  -2  10  131.70   14.75
 -12  -2 -10  115.98   20.40
  12   2 -11   33.83    8.94
  12  -2 -11   44.18    8.79
  12  -2  11   40.61   10.54
  12   2  11   36.45    7.22
 -12  -2 -11   37.80    7.31
 -12   2 -11   53.86    9.51
  -2  12 -11   31.61    6.72
   2  12 -11   33.81    8.66
  -2 -12 -11   34.06    6.85
 -12  -2 -11   28.99   10.25
  12   2 -12   53.75    7.26
  12  -2 -12   54.04   11.21
  12  -2  12   49.49   11.59
  12   2  12   44.36   14.80
 -12  -2 -12   49.78    8.94
 -12   2 -12   69.56   14.19
  -2  12 -12   52.93   11.69
   2  12 -12   49.40   13.16
 -12  -2 -12   57.40    6.62
  12   2 -13   58.89   10.31
  12  -2 -13   58.67   12.93
  12  -2  13   43.43   11.91
  12   2  13   49.91   13.96
 -12  -2 -13   46.24   10.17
 -12   2 -13   70.68   11.66
  -2  12 -13   46.81    8.80
   2  12 -13   50.43   14.44
 -12  -2 -13   35.36    9.13
  12   2 -14    3.71    2.49
  12  -2 -14    0.59    3.83
  12  -2  14    1.99    5.19
  12   2  14    7.94    5.63
 -12  -2 -14   11.06    3.75
 -12   2 -14   14.77    3.87
  -2  12 -14    6.04    3.49
   2  12 -14   11.91    7.06
  12   2 -15   43.44    8.70
  12  -2 -15   42.87    8.68
  12  -2  15   38.64   11.53
  12   2  15   29.97   13.29
 -12  -2 -15   54.34   10.24
  -2  12 -15   26.96    8.74
   2  12 -15   28.52    9.36
  12   2 -16   10.46    4.32
  12  -2 -16    4.97    3.57
  12  -2  16    5.43    4.56
  12   2  16    2.84    2.82
 -12  -2 -16    5.01    2.02
 -12   2 -16    7.17    2.26
  -2  12 -16    5.99    6.13
   2  12 -16   10.75    6.47
  12   2 -17    7.81    3.93
  12  -2 -17   17.45    4.21
  12  -2  17   16.29    7.02
  12   2  17    6.33    4.78
 -12  -2 -17   22.48    7.05
 -12   2 -17   15.16    5.98
  -2  12 -17   16.70    6.13
  12   3   0  118.91   18.10
  12  -3   0  129.83   23.88
  -3  12   0  107.50   10.20
   3  12   0  143.91   10.95
  -3 -12   0  140.02   14.69
 -12  -3   0  134.83   10.71
  12   3  -1  173.30   15.82
  12  -3  -1  159.90   13.98
  12  -3   1  150.41    8.72
  12   3   1  144.52   12.62
 -12   3  -1  150.65    9.07
  -3  12  -1  157.03   13.96
  -3  12   1  140.94   12.40
   3  12  -1  150.03   11.45
  -3 -12   1  168.07   18.25
  -3 -12  -1  165.55   10.46
 -12  -3   1  172.74   11.85
 -12  -3  -1  194.39   15.19
  12   3  -2  379.28   23.36
  12  -3  -2  341.89   11.44
  12  -3   2  363.04   28.86
  12   3   2  367.55   13.14
 -12   3  -2  331.03   11.99
  -3  12  -2  400.47   12.62
  -3  12   2  355.50   11.60
   3  12  -2  365.75   14.94
  -3 -12   2  431.20   18.91
  -3 -12  -2  368.43   11.12
 -12  -3   2  382.16   11.80
 -12  -3  -2  413.55   17.37
  12   3  -3   78.96   14.42
  12  -3  -3   76.68    7.38
  12  -3   3   70.37   10.61
  12   3   3   65.50   14.96
 -12   3  -3   67.73    6.16
  -3  12  -3   68.70   11.49
  -3  12   3   69.10    7.29
   3  12  -3   78.31   14.73
  -3 -12   3   92.66   15.11
  -3 -12  -3   84.28   16.97
 -12  -3   3   74.64    8.22
 -12  -3  -3   85.33   15.91
  12   3  -4   54.44    6.09
  12  -3  -4   50.98    9.92
  12  -3   4   58.80    7.70
  12   3   4   57.79   12.34
 -12   3  -4   47.92    8.82
  -3  12  -4   68.40   11.69
   3  12  -4   49.78   11.00
  -3 -12   4   57.83   12.88
  -3 -12  -4   50.97   10.80
 -12  -3   4   51.80   11.61
 -12  -3  -4   62.72   10.46
  12   3  -5   80.43   13.96
  12  -3  -5   87.77    8.38
  12  -3   5   87.48   14.16
  12   3   5   94.86   21.21
 -12  -3  -5   57.06   10.92
 -12   3  -5   85.09   12.99
  -3  12  -5   74.74   13.67
   3  12  -5   82.32   13.22
  12   3  -5   71.89   10.55
  -3 -12   5   94.12   17.83
  -3 -12  -5   76.66   11.22
 -12  -3   5   96.68    8.43
 -12  -3  -5   74.89   11.47
  12   3  -6   26.53    5.56
  12  -3  -6   16.15    8.61
  12  -3   6   29.31    8.26
  12   3   6   12.63    5.30
 -12  -3  -6   33.19    6.69
 -12   3  -6   12.15    4.09
  -3  12  -6   14.80    4.66
   3  12  -6   29.16    6.68
  12   3  -6   18.46    4.23
  -3 -12   6   31.26    8.93
  -3 -12  -6   25.68    6.56
 -12  -3   6   24.28    4.62
 -12  -3  -6   31.58    8.36
  12   3  -7   79.27   18.00
  12  -3  -7   84.28   14.58
  12  -3   7   89.07   10.19
  12   3   7   90.20   23.71
 -12  -3  -7   91.47   15.58
 -12   3  -7   76.33   13.24
  -3  12  -7   74.12   13.52
   3  12  -7   83.50    8.52
  12   3  -7   61.91   10.50
  -3 -12   7   85.24   15.54
  -3 -12  -7   84.95   14.98
 -12  -3   7   83.99    6.81
 -12  -3  -7   84.37    8.02
  12   3  -8   49.06    8.88
  12  -3  -8   57.86   11.36
  12  -3   8   51.38   13.26
  12   3   8   46.57    9.85
 -12  -3  -8   61.68   10.63
 -12   3  -8   50.13   10.27
  -3  12  -8   52.43    8.88
   3  12  -8   51.37   13.43
  12   3  -8   46.83    9.12
  -3 -12   8   79.35   17.65
  -3 -12  -8   61.37   10.41
 -12  -3   8   46.39   11.48
 -12  -3  -8   59.78   10.62
  12   3  -9   46.30    6.06
  12  -3  -9   41.51    7.48
  12  -3   9   40.11    9.41
  12   3   9   30.67    6.57
 -12  -3  -9   43.48    7.36
 -12   3  -9   38.76    7.02
  -3  12  -9   37.28    6.93
   3  12  -9   27.63    7.07
  12   3  -9   34.90    7.60
  -3 -12   9   42.46    8.02
  -3 -12  -9   32.40    7.53
 -12  -3   9   29.14    6.82
 -12  -3  -9   43.99    6.26
  12   3 -10   57.79   11.39
  12  -3 -10   81.23   10.86
  12  -3  10   74.92   15.46
  12   3  10   58.26   14.89
 -12  -3 -10   75.14   13.90
 -12   3 -10   76.84   11.33
  -3  12 -10   61.30   15.81
   3  12 -10   58.65   13.73
  12   3 -10   50.87   11.33
  -3 -12  10   51.52   14.10
  -3 -12 -10   70.25   14.77
 -12  -3  10   41.94   11.26
 -12  -3 -10   59.55   13.17
  12   3 -11   71.53   12.77
  12  -3 -11   68.05   14.31
  12  -3  11   61.91   14.04
  12   3  11   71.08   14.79
 -12  -3 -11   71.37   12.51
 -12   3 -11   63.64   11.70
  -3  12 -11   63.30   13.06
   3  12 -11   61.11   15.17
  12   3 -11   49.97    9.27
  -3 -12 -11   53.28   12.19
 -12  -3 -11   46.71   13.12
  12   3 -12   18.94    5.83
  12  -3 -12   18.18    7.32
  12  -3  12   25.70    7.58
  12   3  12   28.77    9.99
 -12  -3 -12   18.06    6.81
 -12   3 -12   34.03    7.10
  -3  12 -12   23.52    5.51
   3  12 -12   24.76   10.17
 -12  -3 -12   12.83    4.54
  12   3 -13    4.64    2.42
  12  -3 -13    2.04    2.70
  12  -3  13    3.23    6.82
  12   3  13    6.54    4.25
 -12  -3 -13   10.56    3.84
 -12   3 -13    7.31    2.91
  -3  12 -13    1.53    4.14
   3  12 -13    6.51    4.17
  12   3 -14   70.10   11.76
  12  -3 -14   47.52    6.65
  12  -3  14   38.48   11.16
  12   3  14   44.33   11.88
 -12  -3 -14   64.64    9.24
 -12   3 -14   44.60   10.04
  -3  12 -14   52.24   14.17
   3  12 -14   37.71    9.61
  12   3 -15    4.79    3.76
  12  -3 -15    6.72    3.81
  12  -3  15    5.40    3.38
  12   3  15   -2.68    3.97
 -12  -3 -15   12.42    4.43
 -12   3 -15    5.72    1.70
  -3  12 -15    2.39    2.52
   3  12 -15    9.91    8.24
  12   3 -16    4.31    3.19
  12  -3 -16    7.17    3.73
  12  -3  16    6.15    2.96
  12   3  16    4.41    3.44
 -12  -3 -16    6.76    3.74
 -12   3 -16    3.24    1.80
  -3  12 -16    6.94    3.94
   3  12 -16    9.27    4.89
  12   3 -17   -1.20    4.35
  12  -3 -17   16.43    4.84
  12  -3  17   -0.60    4.17
  12   3  17    8.19    3.96
 -12  -3 -17    5.33    3.09
 -12   3 -17    8.22    2.57
  -3  12 -17    1.23    2.62
   3  12 -17   -2.53    4.38
  12  -4   0   16.03    6.87
  12   4   0   12.56    5.73
  -4  12   0   21.12    4.92
  -4 -12   0   19.75    6.42
 -12  -4   0   17.91    6.62
  12   4  -1   61.56    9.94
  12  -4  -1   53.22    7.83
  12  -4   1   59.82   14.40
  12   4   1   57.52    7.20
 -12   4  -1   42.67    7.89
  -4  12  -1   53.43    8.52
  -4  12   1   47.72   10.52
   4  12  -1   50.70   11.22
  -4 -12   1   65.86   11.38
  -4 -12  -1   65.50   13.66
 -12  -4   1   62.61    9.94
 -12  -4  -1   63.87   10.36
  12   4  -2   20.82    5.80
  12  -4  -2   36.06    8.08
  12  -4   2   20.88    6.62
  12   4   2   40.93    8.86
 -12   4  -2   34.02    5.52
  -4  12  -2   22.36    4.34
  -4  12   2   29.79    6.32
   4  12  -2   32.55    8.56
  -4 -12   2   40.84    6.89
  -4 -12  -2   33.76    8.92
 -12  -4   2   38.09    6.70
 -12  -4  -2   27.35    6.80
  12   4  -3  402.46   19.05
  12  -4  -3  336.90   27.41
  12  -4   3  361.76   18.27
  12   4   3  355.07   16.63
 -12   4  -3  357.77   20.16
  -4  12  -3  369.33   18.74
   4  12  -3  404.01   32.61
  -4 -12   3  362.69   18.65
  -4 -12  -3  371.68   21.19
 -12  -4   3  367.19   23.03
 -12  -4  -3  383.34   17.88
  12   4  -4   71.64   14.27
  12  -4  -4   57.96   11.24
  12  -4   4   78.25    9.22
  12   4   4   67.51   13.64
 -12   4  -4   50.90    8.77
  -4  12  -4   69.03   12.73
   4  12  -4   68.91   10.10
  -4 -12   4   70.66   12.21
  -4 -12  -4   48.39    9.83
 -12  -4   4   62.86    9.12
 -12  -4  -4   83.20    8.57
  12   4  -5   56.00   11.33
  12  -4  -5   78.57   10.92
  12  -4   5   64.51   12.84
  12   4   5   57.31   14.99
 -12  -4  -5   64.58   13.47
 -12   4  -5   54.96    8.89
  -4  12  -5   51.71    9.49
   4  12  -5   69.42    8.81
  12   4  -5   62.28   10.81
  -4 -12   5   60.19   14.54
  -4 -12  -5   63.98   10.04
 -12  -4   5   79.51    9.03
 -12  -4  -5   61.86    6.37
  12   4  -6   69.34   14.04
  12  -4  -6   78.65   15.64
  12  -4   6   79.85   19.30
  12   4   6   78.67    8.52
 -12  -4  -6   81.82   14.75
 -12   4  -6   85.01   14.74
  -4  12  -6   80.64    8.18
   4  12  -6   80.64   13.51
  12   4  -6   61.47    9.83
  -4 -12   6   82.67   16.60
  -4 -12  -6   88.65   20.30
 -12  -4   6   83.62   15.82
 -12  -4  -6   90.62   17.20
  12   4  -7   65.94   14.10
  12  -4  -7   78.84   13.37
  12  -4   7   70.74   14.74
  12   4   7   82.54   16.40
 -12  -4  -7  102.27   15.28
 -12   4  -7   75.95   13.27
  -4  12  -7   67.34   12.62
   4  12  -7   72.78   11.98
  12   4  -7   68.85    9.82
  -4 -12   7   83.13   16.81
  -4 -12  -7   72.37   11.76
 -12  -4   7   63.80   15.68
 -12  -4  -7   62.41    9.13
  12   4  -8  132.68   24.75
  12  -4  -8  161.00   18.24
  12  -4   8  160.26   12.27
  12   4   8  167.46    9.14
 -12  -4  -8  168.25   18.87
 -12   4  -8  172.92   18.83
  -4  12  -8  147.22   10.73
   4  12  -8  160.27   15.21
  12   4  -8  137.65   17.48
  -4 -12   8  161.01   15.00
  -4 -12  -8  167.22   18.78
 -12  -4   8  154.28   13.31
 -12  -4  -8  169.01   15.44
  12   4  -9   96.59    7.84
  12  -4  -9   76.82   13.32
  12  -4   9   77.42   19.46
  12   4   9   71.88   17.53
 -12  -4  -9   91.75   14.60
  -4  12  -9   86.29   16.15
   4  12  -9   82.86   11.34
  12   4  -9   74.02   12.69
  -4 -12  -9   93.87   14.90
 -12  -4   9   69.00   16.06
 -12  -4  -9   84.04   15.02
  12   4 -10   87.54   10.69
  12  -4 -10   65.55    9.24
  12  -4  10   54.01   11.78
  12   4  10   55.15   13.16
 -12  -4 -10  262.21   57.73
 -12   4 -10   59.70   10.08
  -4  12 -10   61.91   11.90
   4  12 -10   50.99   13.06
  12   4 -10   50.89   13.69
  -4 -12  10   63.43   14.15
  -4 -12 -10   53.02    9.78
 -12  -4  10   50.22   11.38
 -12  -4 -10   52.92   14.66
  12   4 -11   50.64    9.24
  12  -4 -11   55.00   13.58
  12  -4  11   54.27   10.26
  12   4  11   67.36   14.17
 -12  -4 -11   65.49   12.52
 -12   4 -11   56.79   13.18
  -4  12 -11   40.55    8.73
   4  12 -11   46.11    8.41
  12   4 -11   43.04   10.57
  -4 -12  11   43.07   12.23
  -4 -12 -11   52.59   10.51
 -12  -4 -11   39.58   12.84
  12   4 -12   56.05    9.48
  12  -4 -12   43.41    8.86
  12  -4  12   53.28   12.89
  12   4  12   61.91   15.30
 -12  -4 -12   73.09   14.89
 -12   4 -12   60.18   12.36
  -4  12 -12   58.59    9.24
   4  12 -12   95.42   16.62
  12   4 -12   47.96    9.69
 -12  -4 -12   36.70   10.25
  12   4 -13   15.22    5.65
  12  -4 -13    9.62    5.37
  12  -4  13   12.98    5.96
  12   4  13   14.69    6.08
 -12  -4 -13   12.98    4.53
 -12   4 -13   18.95    5.03
  -4  12 -13   18.11    5.28
   4  12 -13    8.31    4.30
  12   4 -13   27.22    7.48
  12   4 -14    9.77    2.39
  12  -4 -14   30.91    7.18
  12  -4  14   17.40    7.81
  12   4  14    6.95    3.33
 -12  -4 -14   16.34    4.22
 -12   4 -14   29.34    6.46
  -4  12 -14    9.24    4.01
   4  12 -14   22.26    4.84
  12   4 -15   14.03    4.09
  12  -4 -15   15.27    3.61
  12  -4  15   13.12    7.44
  12   4  15    7.21    6.45
 -12  -4 -15   13.98    5.07
 -12   4 -15   20.90    6.23
  -4  12 -15   10.53    3.85
   4  12 -15   11.15    4.99
  12   4 -16   17.84    5.78
  12  -4 -16   13.75    5.68
  12  -4  16   18.15    8.49
  12   4  16    6.54    3.40
 -12  -4 -16   16.83    6.62
 -12   4 -16   20.48    5.92
  -4  12 -16   20.24    5.96
   4  12 -16    8.27    5.78
  12   4 -17   11.85    5.19
  12  -4 -17    6.44    3.39
  12  -4  17   10.73    5.91
  12   4  17    5.63    2.58
 -12  -4 -17   18.22    6.59
 -12   4 -17   10.34    5.15
  -4  12 -17    0.92    2.38
   4  12 -17    5.12    1.99
  12   5   0   17.18    5.13
  12  -5   0   21.03    5.86
  -5  12   0    7.68    2.21
  -5 -12   0    9.05    5.70
 -12  -5   0   14.45    5.19
  12   5  -1  228.37   11.86
  12  -5  -1  216.92   14.87
  12  -5   1  226.63   21.25
  12   5   1  195.97   15.72
  -5  12  -1  205.49   15.00
   5  12  -1  195.29   27.36
  -5 -12   1  219.49   26.75
  -5 -12  -1  228.21   15.98
 -12  -5   1  239.68   15.92
 -12  -5  -1  236.66   21.98
  12   5  -2   35.14    6.55
  12  -5  -2   32.21    7.99
  12  -5   2   36.36    7.22
  12   5   2   23.35    5.42
 -12   5  -2   27.69    6.06
  -5  12  -2   35.02    7.64
   5  12  -2   37.56    9.27
  -5 -12   2   43.94   10.37
  -5 -12  -2   23.99   11.16
 -12  -5   2   41.71    8.09
 -12  -5  -2   39.40    7.82
  12   5  -3   82.97   11.67
  12  -5  -3  118.06   14.48
  12  -5   3   93.28   20.62
  12   5   3   95.62   15.67
 -12   5  -3   86.53   13.29
  -5  12  -3   91.59    8.09
   5  12  -3  119.84   15.14
  -5 -12   3  102.44   19.27
  -5 -12  -3  106.00   19.12
 -12  -5   3  103.89   16.94
 -12  -5  -3   96.74   14.51
  12   5  -4   80.04   15.69
  12  -5   4   81.92   16.29
  12   5   4   57.04   10.62
 -12   5  -4   69.36    7.00
  -5  12  -4   78.05    8.85
   5  12  -4   78.50   10.29
  -5 -12   4  100.40   19.31
  -5 -12  -4   74.08   14.88
 -12  -5   4   72.60   13.64
 -12  -5  -4  103.63    9.87
  12   5  -5   51.06   13.67
  12  -5  -5   75.96   12.13
  12  -5   5   85.46   17.88
  12   5   5   74.03    9.84
 -12   5  -5   78.02   11.78
  -5  12  -5   66.11   12.31
   5  12  -5   69.37   10.90
  12   5  -5   72.24    7.86
  -5 -12   5   72.23   15.86
  -5 -12  -5   76.61   16.17
 -12  -5   5   66.27   12.84
 -12  -5  -5   73.80   12.34
  12   5  -6   49.16   14.70
  12  -5  -6   56.99   11.04
  12  -5   6   58.89   11.15
  12   5   6   51.91    7.32
 -12  -5  -6   50.07   10.61
 -12   5  -6   44.33    9.35
  -5  12  -6   47.97    8.91
   5  12  -6   60.29   11.58
  12   5  -6   50.38    7.79
  -5 -12   6   59.46   10.15
  -5 -12  -6   55.36   10.28
 -12  -5   6   48.80    9.99
 -12  -5  -6   51.01    9.81
  12   5  -7   14.68    4.09
  12  -5  -7    7.72    4.42
  12  -5   7   18.67    6.42
  12   5   7   17.89    5.06
 -12  -5  -7   14.10    4.11
 -12   5  -7   15.86    4.73
  -5  12  -7   19.12    4.42
   5  12  -7   31.79    7.40
  12   5  -7   24.69    5.73
  -5 -12   7   16.59    7.63
  -5 -12  -7   12.70    4.48
 -12  -5   7   23.30    7.32
 -12  -5  -7   13.60    3.88
  12   5  -8  155.12   15.05
  12  -5  -8  173.57   22.24
  12  -5   8  161.83   15.84
  12   5   8  173.77   20.90
 -12  -5  -8  188.08   17.32
 -12   5  -8  168.05   17.02
  -5  12  -8  175.44   14.41
   5  12  -8  168.03   19.32
  12   5  -8  135.68   22.09
  -5 -12   8  152.18   10.81
  -5 -12  -8  167.14   18.92
 -12  -5   8  174.38   12.96
 -12  -5  -8  175.41   17.09
  12   5  -9   23.15    5.14
  12  -5  -9   26.99    5.43
  12  -5   9   17.55    4.78
  12   5   9   11.28    4.28
 -12  -5  -9   21.89    4.60
 -12   5  -9   21.23    4.10
  -5  12  -9   14.78    4.85
   5  12  -9   25.59    5.38
  12   5  -9   11.12    4.02
  -5 -12   9   17.67    6.43
  -5 -12  -9   18.77    5.31
 -12  -5   9    8.61    5.04
 -12  -5  -9   15.21    5.88
  12   5 -10   14.52    5.31
  12  -5 -10   15.16    5.35
  12  -5  10   16.96    5.50
  12   5  10   11.80    4.36
 -12  -5 -10    9.22    4.61
 -12   5 -10   13.04    3.72
  -5  12 -10    8.28    4.32
   5  12 -10   21.15    6.76
  12   5 -10   11.98    4.40
  -5 -12  10   18.42    3.89
  -5 -12 -10   15.67    3.43
 -12  -5  10   15.32    5.01
 -12  -5 -10   15.75    4.48
  12   5 -11  116.26   16.48
  12  -5 -11  141.44   15.57
  12  -5  11   77.34   25.14
  12   5  11   93.13   23.38
 -12  -5 -11  106.97   18.50
 -12   5 -11  111.64   20.64
  -5  12 -11  100.43   23.75
   5  12 -11  137.34   22.08
  12   5 -11   99.49   15.54
  -5 -12  11  118.02   17.22
  -5 -12 -11  103.95   20.04
 -12  -5 -11   84.12   18.93
  12   5 -12    9.60    3.88
  12  -5 -12   14.37    5.86
  12  -5  12    5.48    4.03
  12   5  12   10.51    5.85
 -12  -5 -12   24.35    5.55
 -12   5 -12    7.96    5.00
  -5  12 -12    5.17    2.35
   5  12 -12    2.96    6.28
  12   5 -12    6.30    4.41
 -12  -5 -12    4.47    2.83
  12   5 -13   32.87    6.54
  12  -5 -13   17.99    7.17
  12  -5  13   17.44    7.99
  12   5  13   36.96   11.61
 -12  -5 -13   43.66    9.32
 -12   5 -13   32.95    6.52
  -5  12 -13   23.73    5.27
   5  12 -13   34.75   12.44
  12   5 -13   18.59    4.23
  12   5 -14   10.71    3.60
  12  -5 -14    5.50    6.01
  12  -5  14    0.56    5.32
  12   5  14    6.24    5.33
 -12  -5 -14   17.30    6.17
 -12   5 -14   12.06    3.36
  -5  12 -14   12.60    5.80
   5  12 -14    0.43    3.51
  12   5 -14    3.98    3.46
  12   5 -15   26.13    6.85
  12  -5 -15   36.30   13.28
  12  -5  15   83.03    7.53
  12   5  15   25.08    7.91
 -12  -5 -15   20.71    7.67
 -12   5 -15   43.15    8.63
  -5  12 -15   34.13    9.00
   5  12 -15   27.94    7.94
  12   5 -16    7.97    4.41
  12  -5 -16   10.03    3.62
  12  -5  16    4.31    4.87
  12   5  16   12.33    5.06
 -12  -5 -16    5.96    2.80
 -12   5 -16    4.40    3.20
  -5  12 -16    4.09    1.89
   5  12 -16   -2.45    4.45
  12   5 -17   11.97    5.21
  12  -5 -17   13.19    5.50
  12  -5  17    5.36    3.70
  12   5  17    8.50    7.96
 -12   5 -17    6.97    3.28
  -5  12 -17   29.74    6.42
  12   6   0   51.11    8.52
  12  -6   0   68.69    6.78
  -6 -12   0   70.38   13.49
 -12  -6   0   56.73   15.37
  12   6  -1   26.33    5.23
  12  -6  -1   18.28    5.50
  12  -6   1    6.84    4.02
  12   6   1    8.76    3.79
  -6 -12   1   28.33    9.22
  -6 -12  -1   29.30    7.74
 -12  -6   1   20.23    4.65
 -12  -6  -1   13.97    4.11
  12   6  -2  332.15   14.20
  12  -6  -2  329.61   12.45
  12  -6   2  293.19   26.71
  12   6   2  324.82   12.10
  -6  12  -2  297.43   10.37
   6  12  -2  330.98   38.55
  -6 -12   2  302.16   21.32
  -6 -12  -2  334.53   18.96
 -12  -6   2  329.84   12.75
 -12  -6  -2  310.12   11.26
  12   6  -3   29.92    7.58
  12  -6  -3   42.44    9.46
  12  -6   3   32.15    7.32
  12   6   3   28.18    7.18
 -12   6  -3   26.74    5.37
  -6  12  -3   30.04    5.62
   6  12  -3   31.83   11.16
  -6 -12   3   40.65    9.72
  -6 -12  -3   36.88    8.62
 -12  -6   3   18.53    7.06
 -12  -6  -3   30.43    8.83
  12   6  -4  103.31   12.66
  12  -6  -4   88.11   16.89
  12  -6   4   75.01   17.11
  12   6   4   68.69   13.20
 -12   6  -4   71.78   13.08
  -6  12  -4   87.64    9.93
   6  12  -4   91.21   10.95
  -6 -12   4  101.00   16.15
  -6 -12  -4   86.34   15.12
 -12  -6   4  103.33   14.84
 -12  -6  -4   97.35   16.73
  12   6  -5   93.11   13.79
  12  -6  -5  105.19   17.46
  12  -6   5   96.59   19.89
  12   6   5  135.48   23.11
 -12   6  -5  106.82   10.37
  -6  12  -5  101.10    9.58
   6  12  -5   97.47   17.64
  12   6  -5   99.86   15.69
  -6 -12   5  116.19   19.78
  -6 -12  -5  111.91   20.34
 -12  -6   5  106.77   16.99
 -12  -6  -5  109.28   17.59
  12   6  -6    3.40    3.62
  12  -6  -6   15.37    5.63
  12  -6   6    6.30    4.17
  12   6   6    7.60    4.19
 -12   6  -6    7.25    2.92
  -6  12  -6    5.82    2.52
   6  12  -6    7.87    7.60
  12   6  -6   12.19    5.91
  -6 -12   6    3.11    2.64
  -6 -12  -6   12.94    5.47
 -12  -6   6    1.94    2.50
 -12  -6  -6    7.22    2.02
  12   6  -7  151.47   16.37
  12  -6  -7  155.09   26.81
  12  -6   7  161.46   26.95
  12   6   7  155.34   16.33
 -12   6  -7  164.50   10.60
  -6  12  -7  153.40   16.91
   6  12  -7  201.05   16.86
  12   6  -7  140.51   22.28
  -6 -12   7  159.42   17.53
  -6 -12  -7  181.00   22.20
 -12  -6   7  145.51   22.48
 -12  -6  -7  177.88    9.77
  12   6  -8   35.32    6.53
  12  -6  -8   46.08    9.49
  12  -6   8   37.06    9.79
  12   6   8   31.50    9.24
 -12  -6  -8   24.35    6.66
 -12   6  -8   33.08    5.57
  -6  12  -8   36.07    4.78
   6  12  -8   36.21    7.51
  12   6  -8   32.41    7.37
  -6 -12   8   29.74    4.99
  -6 -12  -8   39.21    7.29
 -12  -6   8   53.38    7.73
 -12  -6  -8   36.88   10.52
  12   6  -9   89.79    9.32
  12  -6  -9   79.80   15.23
  12  -6   9   72.94   16.05
  12   6   9   78.85   14.63
 -12  -6  -9   83.57   16.13
 -12   6  -9   90.81   14.52
  -6  12  -9   79.49   15.40
   6  12  -9   81.87   19.19
  12   6  -9   69.69   21.21
  -6 -12   9   87.49   18.50
  -6 -12  -9   89.67   16.00
 -12  -6   9   78.06   15.72
 -12  -6  -9   63.97   14.32
  12   6 -10   74.75   15.77
  12  -6 -10   75.54   11.44
  12  -6  10   94.99    8.59
  12   6  10  103.18   13.43
 -12  -6 -10   78.87   13.16
 -12   6 -10   98.58   15.09
  -6  12 -10   64.14   17.16
   6  12 -10  102.42   16.20
  12   6 -10   85.79   18.80
  -6 -12  10   90.13   18.07
  -6 -12 -10   83.44   18.00
 -12  -6  10   77.77   13.50
 -12  -6 -10   73.79   16.48
   6 -12 -11    3.38    2.42
  12   6 -11    2.54    1.90
  12  -6 -11    4.81    5.91
  12  -6  11    4.34    1.97
  12   6  11    2.42    3.39
 -12  -6 -11   -1.02    4.50
 -12   6 -11    6.06    2.61
  -6  12 -11   -0.14    3.82
   6  12 -11   -2.26    6.38
  12   6 -11    3.46    2.91
  -6 -12  11   -1.95    3.19
  -6 -12 -11    5.86    2.77
 -12  -6 -11    3.59    3.18
  12   6 -12   11.06    3.81
  12  -6 -12    5.27    6.18
  12  -6  12   19.87    5.23
  12   6  12   -0.06    4.62
 -12  -6 -12   14.75    5.86
 -12   6 -12   18.96    5.73
  -6  12 -12   13.08    6.23
   6  12 -12   -2.22    5.96
  12   6 -12    7.69    4.35
 -12  -6 -12    8.52    4.06
  12   6 -13   10.08    4.60
  12  -6 -13    9.71    3.91
  12  -6  13   10.84    6.83
  12   6  13    5.36    2.14
 -12  -6 -13   15.42    3.97
 -12   6 -13   10.37    4.24
  -6  12 -13   10.70    5.19
   6  12 -13   10.02    7.55
  12   6 -13   16.80    6.26
  12   6 -14   73.10   13.30
  12  -6 -14   92.56   12.84
  12  -6  14   58.21   16.32
  12   6  14   86.38   10.50
 -12  -6 -14   85.11   16.84
 -12   6 -14   98.05    7.42
  -6  12 -14   47.14   15.65
   6  12 -14   74.37   21.16
  12   6 -14   58.44   19.29
  12   6 -15    3.17    1.69
  12  -6 -15    0.48    2.81
  12  -6  15    2.29    4.75
  12   6  15   -1.73    3.63
 -12  -6 -15    2.59    2.35
 -12   6 -15    4.17    4.16
  -6  12 -15    0.91    2.45
   6  12 -15    1.17    3.11
  12   6 -15    3.28    3.10
  12   6 -16    9.67    2.18
  12  -6 -16    2.56    3.71
  12  -6  16    4.26    2.23
  12   6  16    1.77    2.83
 -12  -6 -16   -0.38    4.02
 -12   6 -16    7.61    3.34
  -6  12 -16    4.68    3.70
   6  12 -16    7.04    3.02
  12   6 -17    5.58    4.28
  12   6  17    6.62    5.00
 -12   6 -17    3.41    3.10
  -6  12 -17   -3.21    4.19
  12   7   0    2.90    3.54
  12  -7   0    2.77    4.72
  -7 -12   0    3.26    3.49
 -12  -7   0    2.74    3.35
  12   7  -1  163.32   17.55
  12  -7  -1  127.89   15.95
  12   7   1  126.29    9.20
  12  -7   1  152.38   17.19
  -7 -12   1  148.51   25.40
  -7 -12  -1  133.73   22.25
 -12  -7   1  131.74   12.09
 -12  -7  -1  121.03   20.63
  12   7  -2   76.93   15.67
  12  -7  -2   92.06   14.44
  12  -7   2   77.57   13.61
  12   7   2   87.13   17.07
   7  12  -2   88.54   19.06
  -7 -12   2   82.85   13.63
  -7 -12  -2   95.95   19.89
 -12  -7   2   96.83   19.97
 -12  -7  -2   84.15   12.19
  12   7  -3   38.76    7.46
  12  -7  -3   39.03   10.10
  12  -7   3   44.71    8.70
  12   7   3   32.19    7.56
   7  12  -3   38.33    8.66
  -7 -12   3   39.95    6.95
  -7 -12  -3   37.04    7.23
 -12  -7   3   43.36   10.55
 -12  -7  -3   37.61    7.25
  12   7  -4   10.54    5.95
  12  -7  -4    6.94    5.07
  12  -7   4    3.99    7.52
  12   7   4    0.85    3.19
  -7  12  -4    1.12    1.38
   7  12  -4    8.46    4.43
  -7 -12   4    3.40    4.36
  -7 -12  -4    2.87    2.58
 -12  -7   4    5.48    3.04
 -12  -7  -4    6.89    2.93
  12   7  -5  267.80   16.39
  12  -7  -5  248.29   19.91
  12  -7   5  260.50   20.71
  12   7   5  259.84   11.87
 -12   7  -5  274.41   12.84
  -7  12  -5  273.65   13.96
   7  12  -5  281.70   23.65
  12   7  -5  279.22   12.21
  -7 -12   5  285.97   12.58
  -7 -12  -5  269.24   20.98
 -12  -7   5  238.11   21.70
 -12  -7  -5  286.17   10.08
   7 -12  -6   32.79    7.52
  12   7  -6   37.05    8.70
  12  -7  -6   41.92    8.39
  12  -7   6   47.18   11.03
  12   7   6   40.86   10.24
 -12   7  -6   35.15    5.79
  -7  12  -6   30.19    8.70
   7  12  -6   32.09    8.17
  12   7  -6   36.15    8.96
  -7 -12   6   36.59    6.72
  -7 -12  -6   36.07    8.75
 -12  -7   6   31.70    7.57
 -12  -7  -6   41.74   12.43
   7 -12  -7   32.69    6.20
  12   7  -7   38.30    8.22
  12  -7  -7   44.69    9.28
  12  -7   7   32.76    8.38
  12   7   7   38.89   10.75
 -12   7  -7   37.50    7.15
  -7  12  -7   33.10    6.60
   7  12  -7   38.06    8.41
  12   7  -7   28.42    8.81
  -7 -12   7   39.65    7.19
  -7 -12  -7   38.65    8.86
 -12  -7   7   30.03    8.56
 -12  -7  -7   34.38    7.41
  12   7  -8    4.17    3.33
  12  -7  -8    5.82    4.37
  12  -7   8    9.94    5.29
  12   7   8    8.77    4.13
 -12   7  -8    5.79    1.82
  -7  12  -8    4.80    3.35
   7  12  -8    9.64    7.84
  12   7  -8   19.90    7.67
  -7 -12   8    5.57    2.71
  -7 -12  -8    7.93    3.73
 -12  -7   8    6.96    3.02
 -12  -7  -8    1.85    3.45
  12   7  -9    8.11    3.53
  12  -7  -9   12.34    5.81
  12  -7   9   21.13    7.10
  12   7   9   15.98    4.30
 -12  -7  -9   11.38    4.06
 -12   7  -9   19.29    5.61
  -7  12  -9   12.30    3.60
   7  12  -9   13.38    9.42
  12   7  -9   14.61    5.83
  -7 -12   9   12.28    2.62
  -7 -12  -9    8.60    3.21
 -12  -7   9    6.59    1.52
 -12  -7  -9    8.83    4.53
  12   7 -10   40.94    5.80
  12  -7 -10   51.68    6.92
  12  -7  10   44.38   11.17
  12   7  10   45.41   12.82
 -12  -7 -10   51.14   14.03
 -12   7 -10   44.13    8.08
  -7  12 -10   39.32    9.57
   7  12 -10   41.53   14.29
  12   7 -10   38.27   10.83
  -7 -12  10   45.25    9.12
  -7 -12 -10   51.82   11.26
 -12  -7  10   37.66    9.43
 -12  -7 -10   37.79    8.95
  12   7 -11   46.22    9.42
  12  -7 -11   50.40   13.18
  12  -7  11   54.64    6.62
  12   7  11   38.75   16.26
 -12  -7 -11   43.19   10.24
 -12   7 -11   69.48   10.73
  -7  12 -11   37.13    9.14
   7  12 -11   58.83   16.52
  12   7 -11   44.46   15.24
  -7 -12  11   42.48    9.25
  -7 -12 -11   46.90   12.36
 -12  -7 -11   35.12   12.66
  12   7 -12    6.77    3.67
  12  -7 -12    2.68    2.76
  12  -7  12   -1.84    4.34
  12   7  12   -3.32    4.24
 -12  -7 -12   10.23    7.00
 -12   7 -12   10.27    3.11
  -7  12 -12    0.48    2.34
   7  12 -12    5.21    3.88
  12   7 -12   -0.96    3.99
 -12  -7 -12    6.19    4.64
  12   7 -13    4.39    3.08
  12  -7 -13    7.17    3.74
  12  -7  13   14.30    6.13
  12   7  13    6.78    2.97
 -12  -7 -13   21.73    7.03
 -12   7 -13   12.89    3.01
  -7  12 -13    6.30    3.50
   7  12 -13    9.96    6.76
  12   7 -13   16.88    6.84
  12   7 -14    6.87    3.91
  12  -7 -14   27.93    6.47
  12  -7  14   12.45    8.20
  12   7  14   20.32    5.88
 -12  -7 -14   22.49    6.81
 -12   7 -14   25.14    6.37
  -7  12 -14   23.31    4.99
   7  12 -14   21.21    7.10
  12   7 -15    9.72    6.17
  12  -7 -15    4.38    2.00
  12  -7  15    9.36    4.06
  12   7  15   -0.90    3.67
 -12  -7 -15    5.57    4.52
 -12   7 -15    6.23    2.91
  -7  12 -15    5.87    3.65
   7  12 -15    7.98    4.89
  12   7 -15   16.98    7.69
  12   7 -16    9.34    3.01
  12  -7 -16    4.02    2.45
  12  -7  16    5.22    3.32
  12   7  16    6.61    2.95
 -12  -7 -16    2.54    2.03
 -12   7 -16    4.45    1.75
  -7  12 -16    3.96    3.01
   7  12 -16    5.72    5.17
  12   7 -16    2.21    3.09
  12   7 -17   27.92    8.94
  12   7  17   11.79    5.08
  12   8   0   -2.43    3.27
  12  -8   0   -1.32    4.43
  -8 -12   0    0.28    2.36
 -12  -8   0    2.68    3.81
  12   8  -1   24.30    5.64
  12  -8  -1   36.07    8.24
  12   8   1   37.39    6.22
  12  -8   1   21.17    5.09
  -8 -12   1   37.13    7.10
  -8 -12  -1   38.02    7.17
 -12  -8   1   34.75    6.84
 -12  -8  -1   22.47    6.95
   8 -12  -2   12.48    3.94
  12   8  -2   18.35    3.81
  12  -8  -2   17.79    4.34
  12   8   2    7.92    3.36
  12  -8   2   18.70    4.55
   8  12  -2    9.66    7.31
  -8 -12   2   22.17    5.22
  -8 -12  -2   17.37    5.76
 -12  -8   2   17.29    5.44
 -12  -8  -2   19.69    6.47
  12   8  -3  258.70   15.49
  12  -8  -3  278.96   10.83
  12  -8   3  245.66   24.73
  12   8   3  257.16   13.36
   8  12  -3  287.58   21.35
  -8 -12   3  285.61   14.23
  -8 -12  -3  291.54   16.95
 -12  -8   3  277.67   12.33
 -12  -8  -3  256.99   21.10
   8 -12  -4   96.52   17.47
  12   8  -4   90.34   20.02
  12  -8  -4  116.77   19.45
  12  -8   4  112.21   10.41
  12   8   4  105.31   11.27
   8  12  -4  100.97   23.79
  12   8  -4   97.46    9.07
  -8 -12   4  111.05   14.38
  -8 -12  -4  115.21   16.53
 -12  -8   4  113.38   11.40
 -12  -8  -4  106.39   21.44
   8 -12  -5   19.42    4.77
  12   8  -5   19.07    6.40
  12  -8  -5   11.55    5.82
  12  -8   5   23.64    6.96
  12   8   5   19.83    6.07
   8  12  -5   36.82    8.88
  12   8  -5   22.82    7.95
  -8 -12   5   28.42    5.52
  -8 -12  -5   29.12    7.86
 -12  -8   5   24.40    4.61
 -12  -8  -5   22.75    7.21
   8 -12  -6   45.86   11.15
  12   8  -6   51.93    8.27
  12  -8  -6   41.14    7.20
  12  -8   6   46.98    7.05
  12   8   6   50.34   11.13
  -8  12  -6   34.19    8.71
   8  12  -6   42.02    9.86
  12   8  -6   41.94   10.29
  -8 -12   6   43.63   10.80
  -8 -12  -6   41.14    7.63
 -12  -8   6   49.34    9.61
 -12  -8  -6   49.25    9.37
   8 -12  -7   73.44   13.30
  12   8  -7   61.87   17.22
  12  -8  -7   99.38   16.24
  12  -8   7   93.32   19.27
  12   8   7   77.57   17.97
 -12   8  -7   86.38   13.29
  -8  12  -7   62.63   14.46
   8  12  -7   98.98   14.19
  12   8  -7  110.07   10.10
  -8 -12   7   90.98   16.59
  -8 -12  -7   87.42   16.32
 -12  -8   7   88.14   20.82
 -12  -8  -7   98.20    8.64
   8 -12  -8   81.38   13.90
  12   8  -8  147.82   34.76
  12  -8  -8   74.91   14.10
  12  -8   8   90.84   18.00
  12   8   8   65.68   17.03
 -12   8  -8   60.24   10.87
  -8  12  -8   71.86   17.26
   8  12  -8   63.35   20.39
  12   8  -8   81.31   12.51
  -8 -12   8   82.57   15.06
  -8 -12  -8   71.09   12.71
 -12  -8   8   80.98   10.38
 -12  -8  -8   86.25   17.05
  12   8  -9   70.71   15.23
  12  -8  -9   69.71   12.72
  12  -8   9   67.85   17.92
  12   8   9   69.52   16.42
 -12   8  -9   84.79   14.56
  -8  12  -9   96.76   11.44
   8  12  -9   88.18   18.04
  12   8  -9   62.24   13.36
  -8 -12   9   71.60   15.75
  -8 -12  -9   78.25   12.47
 -12  -8   9   74.30   13.07
 -12  -8  -9   57.75   16.26
  12  -8 -10   57.42   14.02
  12  -8  10   18.57    4.94
  12   8  10   23.16    6.47
 -12   8 -10   35.52    6.89
  -8  12 -10   19.34    6.29
   8  12 -10   15.89    6.83
  12   8 -10   19.62    6.96
  -8 -12  10   24.97    7.06
  -8 -12 -10   19.28    6.43
 -12  -8  10   31.03    7.45
 -12  -8 -10   22.58    7.91
   8 -12 -11    1.83    1.53
  12   8 -11    1.52    1.33
  12  -8 -11    4.11    2.81
  12   8  11    2.72    1.78
 -12  -8 -11    2.87    3.29
 -12   8 -11    0.61    1.00
  -8  12 -11   -2.13    2.99
   8  12 -11    2.36    5.60
  12   8 -11    2.15    4.06
  -8 -12  11   -0.30    2.74
  -8 -12 -11    3.34    2.27
 -12  -8 -11    2.84    1.57
   8 -12 -12    2.33    3.52
  12   8 -12    5.17    2.69
  12  -8 -12    9.27    3.13
  12  -8  12   11.20    6.82
  12   8  12    5.12    2.32
 -12  -8 -12    4.00    1.24
 -12   8 -12    3.04    1.65
  -8  12 -12    6.03    3.78
   8  12 -12   10.92    5.69
  12   8 -12   22.15    5.91
 -12  -8 -12    6.26    3.31
  12   8 -13   21.21    5.10
  12  -8 -13   16.18    5.53
  12  -8  13   43.46    6.82
  12   8  13   12.05    5.51
 -12  -8 -13    9.88    3.83
 -12   8 -13   33.29    7.65
  -8  12 -13   13.47    6.56
   8  12 -13   28.21    8.21
  12   8 -13   19.72    8.46
  12   8 -14    2.74    1.64
  12  -8 -14    1.98    3.11
  12  -8  14   -4.06    4.83
  12   8  14    2.45    2.57
 -12  -8 -14   -0.20    3.66
 -12   8 -14    1.98    2.35
  -8  12 -14    2.63    3.91
   8  12 -14    4.10    8.11
  12   8 -14    5.14    6.15
  12  -8  15   25.12   12.59
  12   8  15   21.40   11.59
 -12  -8 -15   14.39    5.18
 -12   8 -15   47.19    9.31
  -8  12 -15   24.76    6.67
   8  12 -15   28.28    8.59
  12   8 -15   10.05    5.44
  12  -8 -16   12.48    6.22
  12  -8  16    7.52    4.30
  12   8  16    2.37    3.00
 -12   8 -16    7.15    4.03
  -8  12 -16   -0.10    4.02
  12   8 -16    3.33    3.33
  12   9   0  134.60   18.34
  12  -9   0  155.44   20.14
  -9 -12   0  168.62   25.80
 -12  -9   0  168.17   13.14
   9 -12  -1   36.84    8.44
  12   9  -1   25.97    8.77
  12  -9  -1   48.11    9.74
   9 -12   1   43.23    7.52
  12   9   1   38.47    9.36
  12  -9   1   33.71    6.07
  -9 -12   1   51.18    7.12
  -9 -12  -1   55.34   10.03
 -12  -9   1   53.28   10.40
 -12  -9  -1   41.39    7.26
   9 -12  -2    0.76    3.11
  12   9  -2    4.31    2.47
  12  -9  -2    9.21    3.98
   9 -12   2    3.23    2.69
  12   9   2    6.03    2.65
  12  -9   2   -2.46    4.05
  -9 -12   2   -0.39    3.70
  -9 -12  -2    8.26    4.66
 -12  -9   2    2.73    3.42
 -12  -9  -2    4.64    3.07
   9 -12  -3   61.35   12.18
  12   9  -3   67.24    9.65
  12  -9  -3   71.88   12.52
  12  -9   3   65.51   12.09
  12   9   3   68.89    9.60
   9  12  -3   61.06   11.67
  -9 -12   3   88.35   14.28
  -9 -12  -3   79.19   12.55
 -12  -9   3   57.16   12.87
 -12  -9  -3   72.97   15.64
   9 -12  -4   11.77    4.74
  12   9  -4   11.56    3.47
  12  -9  -4    6.97    3.65
  12  -9   4    1.20    4.86
  12   9   4   16.16    3.16
   9  12  -4    7.36    3.31
  12   9  -4    6.70    3.73
  -9 -12   4    3.94    3.53
  -9 -12  -4   10.90    5.18
 -12  -9   4    7.19    2.45
 -12  -9  -4   12.01    6.66
   9 -12  -5  124.47   21.19
  12   9  -5  149.52   20.09
  12  -9  -5  167.83   15.77
  12  -9   5  140.84   16.31
  12   9   5  148.15   19.32
   9  12  -5  142.61   31.07
  12   9  -5  175.82   17.13
  -9 -12   5  178.00   25.34
  -9 -12  -5  187.75   25.94
 -12  -9   5  157.50   23.41
 -12  -9  -5  155.04   22.70
   9 -12  -6    5.31    3.20
  12   9  -6    3.33    2.53
  12  -9  -6    3.31    4.51
  12  -9   6    3.57    2.81
  12   9   6    6.42    3.20
   9  12  -6   21.75   10.54
  12   9  -6    3.65    4.98
  -9 -12   6   11.92    3.31
  -9 -12  -6   10.05    4.04
 -12  -9   6    5.44    2.96
 -12  -9  -6   13.57    5.24
   9 -12  -7   87.75   12.64
  12  -9  -7   80.68   13.94
  12  -9   7   74.20   15.32
  12   9   7   68.34   12.34
   9  12  -7   73.09   14.09
  12   9  -7   87.89   10.76
  -9 -12   7  101.04   13.76
  -9 -12  -7   83.50   13.27
 -12  -9   7   87.27   14.85
 -12  -9  -7   72.23   18.83
   9 -12  -8    7.98    2.83
  12  -9  -8    7.90    3.59
  12  -9   8   22.10    5.88
  12   9   8   11.69    4.47
  -9  12  -8   19.14    4.94
   9  12  -8    7.84    6.67
  12   9  -8    9.32    3.46
  -9 -12   8    6.81    3.41
  -9 -12  -8   15.22    5.26
 -12  -9   8    7.54    3.22
 -12  -9  -8   22.13    6.55
   9 -12  -9   22.47    3.66
  12  -9   9    9.09    4.92
  12   9   9   24.21    6.50
 -12   9  -9   12.55    2.80
  -9  12  -9   12.30    8.28
   9  12  -9   21.19    7.19
  12   9  -9   14.18    6.68
  -9 -12   9   17.55    6.08
  -9 -12  -9   27.09    6.24
 -12  -9   9   30.75    5.34
 -12  -9  -9   19.34    6.24
   9 -12 -10    4.08    3.40
  12  -9 -10    9.70    3.88
  12  -9  10    6.68    2.94
  12   9  10    6.43    3.07
 -12   9 -10    6.91    2.32
  -9  12 -10   12.93    7.35
   9  12 -10   -1.69    6.58
  12   9 -10    7.22    5.88
  -9 -12  10    1.62    1.53
  -9 -12 -10    2.20    1.37
 -12  -9  10    7.21    2.78
 -12  -9 -10    6.23    2.73
  12  -9 -11   22.58    4.23
  12  -9  11   20.01    7.23
  12   9  11   20.38    5.72
 -12   9 -11   38.35    6.86
  -9  12 -11   22.54    7.77
   9  12 -11   35.02    9.29
  12   9 -11   17.05    3.87
  -9 -12  11   21.33    5.30
  -9 -12 -11   17.74    6.98
 -12  -9 -11   17.96    6.10
  12  -9 -12   53.43    9.87
  12  -9  12   40.24    9.51
  12   9  12   36.03   10.91
  -9  12 -12   36.21    9.50
   9  12 -12   33.72   11.25
  12   9 -12   32.73   20.29
 -12  -9 -12   50.17    8.31
  12  -9 -13    8.43    3.77
  12  -9  13    3.10    2.12
  12   9  13    5.72    4.83
 -12   9 -13    0.47    2.77
  -9  12 -13    0.92    3.36
   9  12 -13   12.07    6.95
  12   9 -13    2.92    4.31
  12  -9 -14    6.74    3.59
  12  -9  14    5.88    3.51
  12   9  14    4.55    2.00
 -12  -9 -14    4.12    3.44
 -12   9 -14   11.82    3.57
  -9  12 -14    1.07    2.91
   9  12 -14   -4.09    5.30
  12   9 -14    3.55    3.64
  12  -9 -15    6.34    3.80
  12  -9  15    4.06    4.11
 -12  -9 -15    3.58    2.68
 -12   9 -15   -3.56    3.13
  -9  12 -15    3.33    2.62
  12   9 -15   -0.32    4.28
  12  -9  16    9.85    5.88
 -12   9 -16   11.51    2.74
  12   9 -16    7.76    5.06
  10 -12   0    1.93    2.02
  12 -10   0   -1.03    3.44
 -10 -12   0    2.33    2.79
 -12 -10   0    1.53    1.63
  10 -12  -1   63.45   14.33
  12 -10  -1   65.92   15.94
  10 -12   1   55.98   10.92
  12 -10   1   68.32   14.53
 -10 -12   1   81.61   13.74
 -10 -12  -1   91.94   16.18
 -12 -10   1   72.06   12.86
 -12 -10  -1   77.94   10.92
  10 -12  -2   25.03    5.58
  12 -10  -2   19.17    3.29
  10 -12   2    9.79    3.70
  12 -10   2   31.23    6.20
 -10 -12   2   26.72    6.41
 -10 -12  -2   16.60    5.04
 -12 -10   2   19.73    7.64
 -12 -10  -2   20.71    7.83
  10 -12  -3   31.97    7.57
  12 -10  -3   46.08    9.22
  12 -10   3   27.32    5.92
  10  12  -3   58.04    9.38
 -10 -12   3   39.92    6.47
 -10 -12  -3   50.24   10.20
 -12 -10   3   52.91    9.30
 -12 -10  -3   41.00    8.36
  10 -12  -4    2.07    1.93
  12 -10  -4    3.28    3.58
  12 -10   4    3.81    2.47
  10  12  -4    3.41    3.93
  12  10  -4    6.78    7.04
 -10 -12   4    8.04    2.43
 -10 -12  -4    9.33    6.30
 -12 -10   4   10.79    3.73
 -12 -10  -4   -0.37    4.18
  10 -12  -5   -0.70    2.75
  12 -10  -5   11.60    5.89
  12 -10   5   13.07    6.51
  10  12  -5    7.48    3.00
  12  10  -5    8.01    3.79
 -10 -12   5    5.95    4.05
 -10 -12  -5    1.63    3.59
 -12 -10   5   11.11    3.51
 -12 -10  -5    1.42    2.06
  10 -12  -6   17.88    4.21
  12 -10  -6   22.35    7.27
  12 -10   6    9.31    4.77
  10  12  -6   14.61    6.33
  12  10  -6   19.23    6.84
 -10 -12   6   27.40    6.21
 -10 -12  -6   24.92    6.21
 -12 -10   6   29.16    5.27
 -12 -10  -6   19.80    3.45
  10 -12  -7   36.39    5.58
  12 -10  -7   35.27    8.99
  12 -10   7   34.73    7.68
  10  12  -7   33.49    9.85
  12  10  -7   35.27    9.99
 -10 -12   7   36.39    8.23
 -10 -12  -7   35.63    7.53
 -12 -10   7   32.30    5.44
 -12 -10  -7   28.11    5.92
  10 -12  -8    1.98    2.86
  12 -10  -8   -0.85    3.05
  12 -10   8    2.87    3.64
  10  12  -8   17.35    7.35
  12  10  -8    0.26    5.55
 -10 -12   8    4.37    2.94
 -10 -12  -8    8.46    2.11
 -12 -10   8    8.13    2.92
 -12 -10  -8   -0.29    3.20
  10 -12  -9   16.88    3.86
  12 -10  -9   21.19    6.07
  12 -10   9   20.15    5.06
  10  12  -9    9.00    5.86
  12  10  -9   19.26    5.47
 -10 -12   9   14.75    5.22
 -10 -12  -9   23.80    5.10
 -12 -10   9   11.24    3.28
 -12 -10  -9   11.49    3.02
  10 -12 -10    8.93    3.57
  12 -10 -10   10.70    3.97
  12 -10  10   12.97    4.19
  10  12 -10   19.42    7.86
  12  10 -10   10.93    5.61
 -10 -12  10    2.32    3.10
 -10 -12 -10   12.54    3.93
 -12 -10  10   12.47    3.74
 -12 -10 -10   11.12    4.45
  10 -12 -11    3.45    1.87
  12 -10 -11    3.44    1.70
  12 -10  11    7.51    5.43
  10  12 -11    6.44    2.93
  12  10 -11   14.79    6.40
 -10 -12 -11   -0.77    3.18
 -12 -10 -11    0.35    1.44
  12 -10 -12    4.67    2.97
  12 -10  12    2.32    3.32
 -12  10 -12   -2.95    3.05
 -10  12 -12   -0.34    3.10
  10  12 -12    0.29    3.95
  12  10 -12   -5.77    5.07
  12 -10 -13   41.11   10.16
  12 -10  13   41.55   11.90
 -12  10 -13   52.62    8.40
 -10  12 -13   32.07   14.62
  10  12 -13   34.23    9.70
  12  10 -13   31.74   10.73
  12 -10 -14    3.94    4.15
  12 -10  14    3.78    2.71
 -12  10 -14    2.73    2.06
 -10  12 -14    4.95    3.49
  10  12 -14   10.39    7.61
  12  10 -14    9.04    4.84
  12 -10 -15   17.33    7.05
  12 -10  15   21.20    8.88
 -10  12 -15   24.97    5.93
  12  10 -15   14.87    7.16
  11 -12   0   64.47   13.27
  12 -11   0   74.17   13.53
 -11 -12   0   88.07   12.55
 -12 -11   0   89.11   11.31
  11 -12  -1   75.83   13.91
  12 -11  -1   77.41   13.05
  11 -12   1   87.27   15.19
  12 -11   1   65.96   16.78
 -11 -12   1  100.35   14.35
 -11 -12  -1  121.62   18.35
 -12 -11   1  100.93   15.69
 -12 -11  -1  110.28   17.18
  11 -12  -2    6.93    3.81
  12 -11  -2    0.94    2.19
  11 -12   2    1.14    2.70
  12 -11   2    7.60    3.26
 -11 -12   2    4.91    4.23
 -11 -12  -2   12.22    5.21
 -12 -11   2    8.70    4.40
 -12 -11  -2   10.07    4.16
  11 -12  -3   22.88    8.18
  12 -11  -3   26.05    7.33
  11 -12   3   20.21    6.81
  12 -11   3   26.28    6.24
  11  12  -3   14.25    8.86
  12  11  -3   23.45    7.56
 -11 -12   3   30.97    5.50
 -11 -12  -3   47.52    9.22
 -12 -11   3   39.95    8.81
 -12 -11  -3   37.13    7.33
  11 -12  -4   22.20    5.29
  12 -11  -4   26.99    5.94
  12 -11   4   30.55    8.18
  11  12  -4   28.15    7.67
  12  11  -4   27.60    7.69
 -11 -12   4   35.92    7.39
 -11 -12  -4   24.35    6.05
 -12 -11   4   39.14    6.51
 -12 -11  -4   38.90    9.03
  11 -12  -5   19.55    5.25
  12 -11  -5   30.11    6.87
  12 -11   5   31.39    7.58
  11  12  -5   45.05   13.20
  12  11  -5   26.74   10.07
 -11 -12   5   43.96    9.39
 -11 -12  -5   50.25    8.74
 -12 -11   5   48.30    7.49
 -12 -11  -5   54.59    9.66
  11 -12  -6   46.74    9.54
  12 -11  -6   48.11   12.53
  12 -11   6   42.92   11.91
  11  12  -6   54.26   16.54
  12  11  -6   74.05   15.45
 -11 -12   6   69.88   11.43
 -11 -12  -6   64.67   11.49
 -12 -11   6   63.29   11.16
 -12 -11  -6   95.65   14.81
  11 -12  -7   11.08    4.11
  12 -11  -7   18.67   10.66
  12 -11   7   20.39    4.93
  11  12  -7   11.93    4.69
  12  11  -7   12.56    6.05
 -11 -12   7   24.15    4.29
 -12 -11   7   18.02    4.69
 -11 -12  -7   26.24    5.98
 -12 -11  -7   26.48    6.63
  11 -12  -8    1.77    2.70
  12 -11  -8    1.69    2.68
  12 -11   8    2.15    1.72
  11  12  -8    7.49    5.78
  12  11  -8    9.74    7.54
 -11 -12   8    5.20    2.78
 -12 -11   8    3.99    2.37
 -11 -12  -8    9.00    3.62
 -12 -11  -8   -0.02    3.20
  11 -12  -9    4.90    3.33
  12 -11  -9    4.88    2.68
  12 -11   9    2.02    2.92
  11  12  -9    6.53    5.11
  12  11  -9    0.31    5.79
 -11 -12   9   -3.14    3.07
 -12 -11   9    7.84    3.05
 -11 -12  -9    1.78    2.28
 -12 -11  -9    5.99    3.61
  11 -12 -10   15.21    4.86
  12 -11 -10   13.06    5.56
  12 -11  10    9.80    7.66
  11  12 -10   24.19    8.44
  12  11 -10   22.11    7.22
 -11 -12  10   14.82    5.24
 -12 -11  10   13.00    5.14
 -11 -12 -10   19.62    5.28
 -12 -11 -10   21.16    4.26
  12 -11 -11   26.39    6.65
  12 -11  11   23.04    6.31
  11  12 -11   23.62    7.57
  12  11 -11   23.42    8.86
 -11 -12 -11   17.73    9.74
 -12 -11 -11   29.21    5.88
  12 -11 -12    5.10    2.23
  12 -11  12   10.28    4.85
  11  12 -12   10.37    3.73
  12  11 -12   10.32    6.43
  12 -11 -13   16.40    4.50
  11  12 -13   12.63    6.37
  12  11 -13   12.34    6.91
  12 -11 -14   -1.34    3.45
  12  11 -14    4.02    3.35
  12 -12   0   33.68    6.58
 -12 -12   0   55.84    8.43
  12 -12  -1   16.81    3.58
  12 -12   1    9.46    4.39
 -12 -12   1    3.56    2.50
 -12 -12  -1    8.55    6.22
  12 -12  -2    5.53    3.12
  12 -12   2    6.43    3.59
 -12 -12   2    0.08    2.43
 -12 -12  -2    3.47    4.60
  12 -12  -3   45.82    9.57
  12 -12   3   47.63   11.42
  12  12  -3   64.10   11.27
 -12 -12   3   62.07    8.44
 -12 -12  -3   64.05   12.33
  12 -12  -4   18.83    5.51
  12  12  -4   18.37    9.15
 -12 -12   4   22.38    6.91
 -12 -12  -4   20.03    7.14
  12 -12  -5   28.96    8.54
  12  12  -5   35.55   10.81
 -12 -12   5   48.79    7.68
 -12 -12  -5   41.66    9.43
  12 -12  -6    5.63    2.58
  12  12  -6   -2.35    7.99
 -12 -12   6    4.61    3.82
 -12 -12  -6    9.71    2.79
  12 -12  -7   20.21    6.72
  12  12  -7   15.23    6.59
 -12 -12   7   26.86    4.79
 -12 -12  -7   33.84    9.89
  12 -12  -8   11.89    5.61
  12  12  -8    7.78    4.85
 -12 -12   8    7.59    3.04
 -12 -12  -8    5.12    2.82
  12 -12  -9   32.50    7.90
  12  12  -9   21.73   10.89
 -12 -12   9   32.23    8.10
 -12 -12  -9   38.73    5.44
  12 -12 -10   -0.34    3.49
  12  12 -10    6.06    4.22
 -12 -12  10    2.46    2.71
 -12 -12 -10    6.83    2.86
  12  12 -11    7.33    4.71
 -12 -12 -11    2.35    1.57
  12  12 -12   12.74    9.86
  13   0   0    0.59    2.44
   0  13   0    6.88    5.30
   0 -13   0    2.79    3.01
  13   0  -1   90.42    8.27
  13   0   1   86.41    8.07
   0  13  -1   89.89   17.27
   0  13   1   98.26   10.31
   0 -13   1   98.81   23.06
   0 -13  -1  106.21   20.39
  13   0  -2    4.13    3.58
  13   0   2   11.86    6.63
   0  13  -2    6.39    3.38
   0  13   2    3.52    2.14
   0 -13  -2    4.01    4.80
  13   0  -3  117.84   15.32
  13   0   3  114.40   12.26
 -13   0  -3  103.23   11.33
   0  13  -3  122.17   14.85
   0  13   3  115.02   14.51
   0 -13  -3  120.12   12.94
  13   0  -4  132.77   26.28
  13   0   4  144.27    9.11
 -13   0  -4  168.31   12.54
   0  13  -4  137.20   10.72
   0 -13  -4  129.67   23.55
  13   0  -5  143.72   22.29
  13   0   5  171.67   16.34
 -13   0  -5  151.39    9.86
   0  13  -5  164.47   11.74
  13   0  -5  133.78   11.53
  13   0  -6   16.09    6.10
  13   0   6    4.92    5.01
 -13   0  -6    9.11    3.66
   0  13  -6    9.96    4.56
  13   0  -7  361.91   11.22
  13   0   7  304.99   29.16
 -13   0  -7  315.51   15.46
   0  13  -7  345.44   20.25
  13   0  -8   95.24   15.70
  13   0   8   94.97   22.77
 -13   0  -8   91.47   14.46
   0  13  -8   91.01   16.81
  13   0  -9  146.52   16.01
  13   0   9  195.71   18.93
 -13   0  -9  165.64   15.86
   0  13  -9  137.75   21.26
 -13   0   9  145.90   19.07
  13   0 -10    3.54    4.13
  13   0  10    4.28    3.52
 -13   0 -10    1.77    1.83
   0  13 -10    1.27    2.48
 -13   0  10    2.44    1.89
  13   0 -11   51.05   11.86
  13   0  11   56.74   15.94
 -13   0 -11   62.34   13.32
   0  13 -11   53.49   13.25
  13   0 -12   28.59    7.05
  13   0  12   13.78    7.37
 -13   0 -12   14.53    5.89
   0  13 -12   15.13    7.36
  13   0 -13    7.01    3.92
  13   0  13    7.04    2.16
 -13   0 -13   13.16    4.25
   0  13 -13   11.21    5.92
 -13   0 -13    5.42    2.81
  13   0 -14   12.47    5.39
  13   0  14   -1.21    4.86
 -13   0 -14   -0.30    3.18
   0  13 -14   -2.80    4.85
  13   0 -15   10.22    4.14
  13   0  15    5.83    4.10
 -13   0 -15    5.44    2.36
   0  13 -15   -0.65    3.20
  13   0 -16    9.47    5.56
  13   0  16    7.59    4.61
 -13   0 -16   10.80    4.91
   0  13 -16    7.96    4.44
  13   0 -17   11.07    5.43
 -13   0 -17   11.01    4.30
   0  13 -17   11.00    5.41
  13  -1   0  165.14   11.67
  13   1   0  165.17   10.89
  -1  13   0  163.79    9.36
   1  13   0  163.71   15.64
  -1 -13   0  191.96   12.55
  13   1  -1  181.01   11.69
  13  -1  -1  167.13   11.76
  13  -1   1  176.57   24.15
  13   1   1  161.92   24.40
  -1  13  -1  179.04   14.02
  -1  13   1  158.04    8.51
   1  13  -1  154.78   17.73
   1  13   1  172.58   11.25
  -1 -13   1  171.39   11.89
  -1 -13  -1  219.98   35.77
  13   1  -2  125.51   20.53
  13  -1  -2  141.92   18.96
  13  -1   2  106.06   23.88
  13   1   2  134.03   10.58
  -1  13  -2  114.05   16.05
   1  13  -2  124.89    9.87
  -1  13   2  112.52   10.67
   1  13   2  111.92   12.67
  -1 -13   2  117.72   16.53
  -1 -13  -2  173.03   33.07
  13   1  -3   23.27    7.39
  13  -1  -3   37.68    9.12
  13   1   3   25.33    6.70
  13  -1   3   22.71    9.90
 -13   1  -3   18.36    3.99
  -1  13  -3   25.64    4.14
   1  13  -3   31.09    8.50
  -1  13   3   24.03    5.01
  -1 -13   3   34.71    8.98
  -1 -13  -3   24.19    5.26
  13  -1  -4  150.54   16.12
  13   1  -4  121.03   29.79
  13  -1   4  130.97   11.64
  13   1   4  148.11    9.94
 -13  -1  -4  129.96    9.78
 -13   1  -4  134.00   11.33
  -1  13  -4  136.98   10.51
   1  13  -4  158.68   11.52
  -1  13   4  151.07    9.00
  -1 -13   4  131.15   24.52
  -1 -13  -4  179.89   22.04
  13   1  -5  137.22   23.53
  13  -1  -5  160.50   16.67
  13  -1   5  166.62   33.60
  13   1   5  158.20   14.55
 -13  -1  -5  159.81   19.79
 -13   1  -5  192.39   12.00
  -1  13  -5  149.26   11.70
   1  13  -5  163.13   12.01
  13   1  -5  129.90   13.05
  -1 -13   5  153.77   28.32
  -1 -13  -5  170.80   23.62
  13   1  -6    3.04    3.24
  13  -1  -6    3.54    5.04
  13  -1   6    6.90    3.80
  13   1   6   -3.65    4.37
 -13  -1  -6    2.84    2.46
 -13   1  -6    6.99    3.58
  -1  13  -6    2.85    4.83
   1  13  -6    4.35    4.05
  13   1  -6    4.41    3.61
  -1 -13  -6    3.47    2.87
  13   1  -7  106.80   11.60
  13  -1  -7  135.11   13.53
  13  -1   7  106.02   19.93
  13   1   7  107.54   20.84
 -13  -1  -7  161.20   12.57
 -13   1  -7  136.48   18.33
  -1  13  -7  114.69    9.32
   1  13  -7  121.71   19.28
  -1 -13  -7  107.99   22.41
 -13  -1   7  115.48   21.18
  13   1  -8  115.88   18.27
  13  -1  -8  102.18   18.64
  13  -1   8  107.68   17.29
  13   1   8   79.24   20.80
 -13  -1  -8  107.54   10.68
 -13   1  -8   95.36   14.89
  -1  13  -8   99.21   20.51
   1  13  -8   97.91   16.33
  -1 -13  -8   76.47   19.05
 -13  -1   8   93.65   16.61
  13   1  -9    1.27    4.28
  13  -1  -9    4.91    4.26
  13  -1   9    2.58    3.20
  13   1   9    1.43    4.23
 -13  -1  -9    1.19    1.11
 -13   1  -9    2.00    1.72
  -1  13  -9    5.03    2.22
   1  13  -9    1.99    4.88
 -13  -1   9   -1.31    3.28
  13   1 -10   42.24   10.21
  13  -1 -10   48.82    8.83
  13  -1  10   53.34   12.31
  13   1  10   50.09   14.14
 -13  -1 -10   51.67   13.34
 -13   1 -10   42.68   11.05
  -1  13 -10   51.56   10.31
   1  13 -10   48.19   10.12
 -13  -1  10   56.74    8.50
  13   1 -11   63.30    9.22
  13  -1 -11   57.66   12.39
  13  -1  11   63.33   13.20
  13   1  11   67.28   16.57
 -13  -1 -11   73.26   14.85
 -13   1 -11   67.90    9.66
  -1  13 -11   60.25   15.83
   1  13 -11   52.11   12.52
 -13  -1 -11   71.84   10.67
  13   1 -12   33.80    8.14
  13  -1 -12   32.85    9.33
  13  -1  12   48.83    9.05
  13   1  12   37.83   11.13
 -13  -1 -12   50.33    7.54
 -13   1 -12   45.09   10.58
  -1  13 -12   47.61   11.86
   1  13 -12   38.42   10.53
 -13  -1 -12   32.91    7.20
  13   1 -13   32.31    8.59
  13  -1 -13   39.39    8.42
  13  -1  13   31.52    7.69
  13   1  13   10.53    4.79
 -13  -1 -13   29.00    6.98
 -13   1 -13   29.88    9.87
  -1  13 -13   29.15    8.28
   1  13 -13   27.61    9.28
  13   1 -14    5.93    2.86
  13  -1 -14   10.51    5.13
  13  -1  14   -0.71    5.39
  13   1  14    2.84    3.68
 -13  -1 -14    3.26    2.38
 -13   1 -14    3.86    2.98
  -1  13 -14    4.01    2.08
   1  13 -14   -5.74    4.97
  13   1 -15   22.71    5.93
  13  -1 -15   11.92    5.48
  13  -1  15   13.28    7.46
  13   1  15    5.93    2.84
 -13  -1 -15   16.60    5.67
 -13   1 -15   12.60    3.94
  -1  13 -15    6.74    2.77
   1  13 -15    5.41    3.70
  13   1 -16   13.76    5.94
  13  -1 -16    6.22    3.93
  13  -1  16    4.78    6.01
  13   1  16    8.25    6.23
 -13  -1 -16    9.03    3.15
 -13   1 -16    7.05    4.62
  -1  13 -16   14.81    6.56
   1  13 -16   10.54    5.40
  13   1 -17   44.86   11.28
 -13   1 -17   45.50   10.95
  13  -2   0  165.57   14.45
  13   2   0  161.51   17.40
  -2  13   0  167.35   17.23
   2  13   0  170.61   22.54
  -2 -13   0  160.56   20.33
  13   2  -1  207.85   13.95
  13  -2  -1  206.65   12.44
  13  -2   1  189.27   33.60
  13   2   1  209.61   19.73
  -2  13  -1  210.51   14.01
  -2  13   1  210.26   10.71
   2  13  -1  188.35   12.02
   2  13   1  226.94   17.55
  -2 -13   1  200.66   27.78
  -2 -13  -1  232.02   14.79
  13   2  -2  114.91   20.59
  13  -2  -2  122.10   22.80
  13   2   2  101.96    8.54
  13  -2   2  108.81   11.26
 -13   2  -2   97.22    8.94
  -2  13  -2   97.60   16.71
  -2  13   2   98.19    8.24
   2  13  -2   98.43   18.01
  -2 -13   2  117.63   18.87
  -2 -13  -2  119.05   21.16
  13   2  -3  199.92   17.99
  13  -2  -3  219.89   25.56
  13  -2   3  177.34   16.61
  13   2   3  163.96   16.80
 -13   2  -3  189.74   10.20
  -2  13  -3  194.88   17.34
   2  13  -3  171.60    9.66
  -2  13   3  191.06   15.99
  -2 -13   3  192.19   24.05
  -2 -13  -3  195.28   11.58
  13   2  -4   73.99   17.26
  13  -2  -4   83.39   13.48
  13  -2   4   86.66   18.24
  13   2   4   93.34    9.36
 -13  -2  -4   66.65   13.06
 -13   2  -4  100.11    7.26
  -2  13  -4   85.26    8.80
   2  13  -4   90.71    9.74
  -2  13   4   83.53   11.10
  -2 -13   4   80.10   24.05
  -2 -13  -4   93.79   17.99
 -13  -2   4   79.19   15.98
  13   2  -5   32.76    6.59
  13  -2  -5   21.87    4.98
  13  -2   5   76.03   18.46
  13   2   5   31.19    8.60
 -13  -2  -5   21.86    4.38
 -13   2  -5   26.15    5.25
  -2  13  -5   35.26    5.70
   2  13  -5   31.79   10.94
  13   2  -5   24.93    5.26
  -2 -13   5   33.10    8.90
  -2 -13  -5   25.17    6.29
 -13  -2   5   29.41    6.57
  13   2  -6   17.03    7.03
  13  -2  -6   -0.76    4.50
  13  -2   6   18.61    4.59
  13   2   6   11.53    5.08
 -13  -2  -6   18.92    5.60
 -13   2  -6   17.06    4.32
  -2  13  -6   10.81    4.57
   2  13  -6    8.38    3.49
  13   2  -6    9.69    3.97
  -2 -13   6    9.59    5.35
  -2 -13  -6   17.81    4.52
 -13  -2   6    4.48    3.63
  13   2  -7   16.46    6.12
  13  -2  -7   33.34    7.64
  13  -2   7   17.63    6.81
  13   2   7   16.03    6.32
 -13  -2  -7   23.95    5.59
 -13   2  -7   18.49    5.12
  -2  13  -7   21.01    5.98
   2  13  -7   10.89    2.81
  13   2  -7   17.38    5.61
  -2 -13   7   26.01    5.78
  -2 -13  -7   20.61    5.28
 -13  -2   7   16.48    4.50
  13   2  -8   31.05    7.17
  13  -2  -8   33.31    7.15
  13  -2   8   31.65    6.45
  13   2   8   42.34    8.36
 -13  -2  -8  142.72   25.12
 -13   2  -8   35.13    7.46
  -2  13  -8   20.80    6.86
   2  13  -8   25.93    7.45
  13   2  -8   18.68    4.05
  -2 -13  -8   42.94    8.93
 -13  -2   8   26.30    6.35
 -13  -2  -8   21.22    6.23
  13   2  -9   45.19   12.41
  13  -2  -9   33.23   11.98
  13  -2   9   26.02    8.52
  13   2   9   45.63    7.62
 -13  -2  -9   39.16    8.39
 -13   2  -9   37.13    7.56
  -2  13  -9   39.19    8.04
   2  13  -9   36.60    8.58
  -2 -13  -9   32.49    8.48
 -13  -2   9   34.44    9.34
 -13  -2  -9   30.37    7.53
  13   2 -10    1.79    4.77
  13  -2 -10   -1.24    4.86
  13   2  10    0.23    2.52
 -13  -2 -10   13.24    3.44
 -13   2 -10    8.22    2.88
  -2  13 -10    2.44    2.97
   2  13 -10    8.47    5.30
  -2 -13 -10    7.28    3.46
 -13  -2  10    4.36    3.09
 -13  -2 -10    5.22    2.33
  13   2 -11   99.41   19.70
  13  -2 -11   38.51   11.19
  13  -2  11   40.00   15.09
  13   2  11   43.81    8.93
 -13  -2 -11   41.83    7.73
 -13   2 -11   42.98    8.82
  -2  13 -11   49.49    8.71
   2  13 -11   44.23    8.12
 -13  -2 -11   38.12   10.85
  13   2 -12   49.18    8.64
  13  -2 -12   38.08    9.93
  13  -2  12   41.53   12.25
 -13  -2 -12   60.94    9.31
 -13   2 -12   51.80    8.80
  -2  13 -12   49.18   10.07
   2  13 -12   35.92    9.77
 -13  -2 -12   39.03    8.50
  13   2 -13   65.44    9.46
  13  -2 -13   58.81    8.98
  13  -2  13   65.84   12.47
  13   2  13   60.96   14.59
 -13  -2 -13   59.58   11.55
 -13   2 -13   48.85   11.91
  -2  13 -13   71.67   13.17
   2  13 -13   41.46   13.70
  13   2 -14   47.16    9.16
  13  -2 -14   45.23    7.27
  13  -2  14   27.08   18.29
  13   2  14   37.73   12.35
 -13  -2 -14   57.63    9.01
 -13   2 -14   47.31   11.97
  -2  13 -14   52.65   11.17
   2  13 -14   37.22   12.35
  13   2 -15   21.52    7.41
  13  -2 -15   22.02    5.00
  13  -2  15   22.88   10.82
  13   2  15   12.26    7.19
 -13  -2 -15   29.18    7.65
 -13   2 -15   25.65    6.34
  -2  13 -15   12.91    5.17
   2  13 -15   26.86    9.96
  13   2 -16   -1.47    3.89
  13  -2 -16   11.44    4.81
  13  -2  16    6.25    3.98
  13   2  16    5.65    5.48
 -13  -2 -16   13.83    3.41
 -13   2 -16    9.84    4.36
  -2  13 -16    0.80    4.24
   2  13 -16   17.73    6.16
  13   2 -17    7.75    4.56
 -13   2 -17   -1.88    3.88
  13   3   0    8.21    3.20
  13  -3   0    5.88    2.39
  -3  13   0    4.50    2.49
   3  13   0   10.98    5.21
  -3 -13   0    7.70    6.09
 -13  -3   0   11.35    5.34
  13   3  -1   62.26   14.45
  13  -3  -1   68.61   15.86
  13  -3   1   57.51    7.93
  13   3   1   78.37    8.32
  -3  13  -1   56.98   12.90
  -3  13   1   53.83   12.20
   3  13  -1   68.38   16.33
  -3 -13   1   66.67   12.04
  -3 -13  -1   51.42   10.46
 -13  -3   1   73.40   11.83
 -13  -3  -1   86.58   13.19
  13   3  -2  234.57   10.79
  13  -3  -2  292.88   26.90
  13  -3   2  230.55   20.08
  13   3   2  256.04   11.55
 -13   3  -2  239.80   12.36
  -3  13  -2  252.17   10.64
  -3  13   2  228.84   18.17
   3  13  -2  298.06   18.83
  -3 -13   2  274.08   13.58
  -3 -13  -2  292.42   14.54
 -13  -3   2  285.78   25.65
 -13  -3  -2  251.68   16.63
  13   3  -3   10.20    4.43
  13  -3  -3   12.27    4.31
  13  -3   3   11.33    4.86
  13   3   3   18.97    6.58
 -13   3  -3    3.77    1.97
  -3  13  -3   17.42    5.17
   3  13  -3   12.90    6.76
  -3 -13   3   25.24    6.70
  -3 -13  -3    9.62    2.87
 -13  -3   3    7.11    3.08
  13   3  -4    3.27    4.34
  13  -3  -4   14.27    7.10
  13  -3   4    5.75    3.34
  13   3   4    2.97    5.86
 -13   3  -4    5.23    2.22
  -3  13  -4    8.33    4.35
   3  13  -4    9.83    5.67
  -3 -13   4   -1.37    4.49
  -3 -13  -4    2.65    4.97
 -13  -3   4    8.60    4.49
 -13  -3  -4    2.81    2.55
  13   3  -5   89.40   15.86
  13  -3  -5   81.21    8.34
  13  -3   5   94.58   24.89
  13   3   5  194.49   26.06
 -13  -3  -5   98.67    9.14
 -13   3  -5   92.31    7.67
  -3  13  -5   82.49   13.81
   3  13  -5   90.44   14.76
  13   3  -5   86.55   11.52
  -3 -13   5  107.90   22.23
  -3 -13  -5   91.43   21.06
 -13  -3   5   89.39    7.56
 -13  -3  -5  113.15   19.37
  13   3  -6  155.38   23.24
  13  -3  -6  159.42   16.43
  13  -3   6  141.54   15.37
  13   3   6  168.03   14.13
 -13  -3  -6  153.10   15.51
 -13   3  -6  164.01   16.24
  -3  13  -6  133.35   21.95
   3  13  -6  176.27   14.09
  13   3  -6  133.35   21.46
  -3 -13   6  174.17   21.56
  -3 -13  -6  161.57   20.09
 -13  -3   6  177.13   13.57
 -13  -3  -6  165.47   13.59
  13   3  -7  100.64    9.41
  13  -3  -7  116.43    9.54
  13  -3   7   90.39   10.76
  13   3   7   88.62   19.28
 -13  -3  -7  107.28   18.73
 -13   3  -7   86.02   14.67
  -3  13  -7   88.03   16.79
   3  13  -7   75.65   15.27
  13   3  -7   70.40   14.10
  -3 -13   7  144.33   27.48
  -3 -13  -7   82.21   19.90
 -13  -3   7   80.95   17.03
 -13  -3  -7   90.20   16.42
  13   3  -8   10.74    4.60
  13  -3  -8    8.90    4.66
  13  -3   8    2.52    4.24
  13   3   8   10.27    4.21
 -13  -3  -8    8.50    2.56
 -13   3  -8    9.90    3.05
  -3  13  -8    8.06    4.98
   3  13  -8    2.33    1.62
  13   3  -8    5.64    4.63
  -3 -13   8    4.77    3.19
  -3 -13  -8    7.93    2.55
 -13  -3   8   10.16    4.01
 -13  -3  -8    9.07    4.68
  13   3  -9   40.66    9.30
  13  -3  -9   53.62   10.93
  13  -3   9   35.01    7.33
  13   3   9   45.60    8.57
 -13  -3  -9   54.71   12.48
 -13   3  -9   47.97   10.29
  -3  13  -9   46.84    7.58
   3  13  -9   44.35   10.15
  13   3  -9   34.93    9.43
  -3 -13   9   48.18   10.21
  -3 -13  -9   52.35    9.68
 -13  -3   9   43.59   10.71
 -13  -3  -9   38.08   10.97
  13   3 -10   40.56   11.75
  13  -3 -10   60.57   12.02
  13  -3  10   50.36   14.15
  13   3  10   45.92   10.63
 -13  -3 -10   77.69   16.23
 -13   3 -10   56.95   13.29
  -3  13 -10   45.45    9.68
   3  13 -10   57.28   12.58
  -3 -13 -10   55.28    9.58
 -13  -3  10   52.10    8.83
 -13  -3 -10   34.74   12.29
  13   3 -11   83.02   10.59
  13  -3 -11   79.36   11.09
  13  -3  11   67.61   19.50
  13   3  11   57.41   17.07
 -13  -3 -11   76.89   14.27
 -13   3 -11   74.22   15.47
  -3  13 -11   73.51   17.33
   3  13 -11   70.64   16.79
  -3 -13 -11   63.59   17.61
 -13  -3 -11   59.34   14.45
  13   3 -12    2.43    3.24
  13  -3 -12    4.14    5.17
  13  -3  12    4.59    5.51
  13   3  12   -2.86    5.59
 -13  -3 -12    2.83    3.16
 -13   3 -12    6.73    4.52
  -3  13 -12    2.88    2.79
   3  13 -12    4.06    3.57
 -13  -3 -12   -0.33    3.12
  13   3 -13    4.73    2.95
  13  -3 -13    7.32    3.86
  13  -3  13   10.94    4.88
  13   3  13    9.86    5.54
 -13  -3 -13   22.41   11.60
 -13   3 -13    6.86    2.97
  -3  13 -13    6.41    3.61
   3  13 -13    7.79    5.06
  13   3 -14   49.39    6.83
  13  -3 -14   65.17    9.02
  13  -3  14   51.34   14.08
  13   3  14   43.11   12.31
 -13  -3 -14   47.93   12.24
 -13   3 -14   58.25   12.32
  -3  13 -14   49.96   13.31
   3  13 -14   52.32    9.88
  13   3 -15    5.47    4.28
  13  -3 -15    3.30    2.20
  13  -3  15    8.97    2.22
  13   3  15    1.30    4.20
 -13  -3 -15    8.77    3.81
 -13   3 -15    9.30    3.38
  -3  13 -15    4.66    4.27
   3  13 -15    0.84    5.64
  13   3 -16    5.56    3.14
  13  -3 -16    4.04    2.68
  13  -3  16    6.69    4.90
  13   3  16    3.20    3.31
 -13  -3 -16   -0.56    3.81
 -13   3 -16    6.80    3.42
  -3  13 -16    4.89    4.79
   3  13 -16   -1.56    5.27
  13   3 -17    8.43    4.33
  13   4   0    8.22    4.51
  13  -4   0    4.51    5.33
  -4  13   0    8.95    4.59
   4  13   0    6.55    5.11
  -4 -13   0    6.79    4.27
 -13  -4   0   18.05    5.96
  13   4  -1   12.38    5.92
  13  -4  -1   25.48    7.51
  13  -4   1   15.98    7.19
  13   4   1    9.84    5.29
  -4  13  -1   20.33    4.03
   4  13  -1   22.08    7.03
  -4 -13   1   20.02    7.19
  -4 -13  -1   11.64    4.61
 -13  -4   1   20.78    5.19
 -13  -4  -1   20.71    5.94
  13   4  -2  147.75   10.16
  13  -4  -2  136.27   24.55
  13  -4   2  126.88   21.79
  13   4   2  127.72   13.41
 -13   4  -2  152.36    9.93
  -4  13  -2  123.42    9.22
   4  13  -2  143.81   26.03
  -4 -13   2  126.92   18.16
  -4 -13  -2  123.82   15.84
 -13  -4   2  133.34   21.78
 -13  -4  -2  133.27   10.11
  13   4  -3   58.34   14.30
  13  -4  -3   37.96    7.99
  13  -4   3   62.92   13.24
  13   4   3   39.36    8.49
 -13   4  -3  141.50   22.85
  -4  13  -3   48.09    9.04
   4  13  -3   45.31    9.10
  -4 -13   3   64.43   10.81
  -4 -13  -3   34.56    7.60
 -13  -4   3   38.70    8.11
 -13  -4  -3   70.51    8.16
  13   4  -4  113.59   23.06
  13  -4  -4  114.12    8.84
  13  -4   4  111.32   22.17
  13   4   4  110.33   25.08
 -13   4  -4  106.83    6.99
  -4  13  -4  115.61   10.57
   4  13  -4   94.58   17.22
  -4 -13   4  117.79   22.19
  -4 -13  -4  106.83   21.63
 -13  -4   4  114.70   14.01
 -13  -4  -4  119.87   17.72
  13   4  -5   16.08    5.32
  13  -4  -5   32.10    7.42
  13  -4   5   22.50    5.83
  13   4   5   35.99    8.53
 -13   4  -5   22.79    3.90
  -4  13  -5   16.23    4.84
   4  13  -5   21.16    5.95
  13   4  -5   16.34    3.33
  -4 -13   5   10.73    3.88
  -4 -13  -5   17.52    5.80
 -13  -4   5   16.64    6.09
 -13  -4  -5   20.24    6.03
  13   4  -6   98.68   14.67
  13  -4  -6   78.96   21.67
  13  -4   6   90.91   18.66
  13   4   6   98.66   19.52
 -13  -4  -6   97.83    7.68
 -13   4  -6   92.34   16.77
  -4  13  -6   86.96   21.75
   4  13  -6  129.22   11.40
  13   4  -6   82.43   10.09
  -4 -13   6   94.99   20.30
  -4 -13  -6  101.79   13.30
 -13  -4   6  108.66   11.17
 -13  -4  -6   96.50   15.83
  13   4  -7   98.70   18.50
  13  -4  -7  130.70   18.45
  13  -4   7  111.64   21.43
  13   4   7  103.57   23.61
 -13  -4  -7  131.99   12.73
 -13   4  -7  106.20   11.78
  -4  13  -7  102.87   18.70
   4  13  -7  128.24   23.49
  13   4  -7   98.80   18.40
  -4 -13   7  107.32   21.92
  -4 -13  -7  123.56   21.59
 -13  -4   7  109.90    8.94
 -13  -4  -7  125.46   21.63
  13   4  -8   28.67   11.52
  13  -4  -8   38.17    8.69
  13  -4   8   29.69    8.24
  13   4   8   43.75    8.18
 -13  -4  -8   41.90   12.29
 -13   4  -8   36.63    6.95
  -4  13  -8   28.12    4.19
   4  13  -8   49.76    9.70
  13   4  -8   32.33    5.09
  -4 -13   8   24.71    4.68
  -4 -13  -8   33.18    7.62
 -13  -4   8   42.60    9.98
 -13  -4  -8   37.34    7.27
  13   4  -9   75.14   10.00
  13  -4  -9   71.58   10.93
  13  -4   9   61.56   14.92
  13   4   9   52.46   11.48
 -13  -4  -9   68.49   13.90
 -13   4  -9   66.47   14.20
  -4  13  -9   66.22   10.38
   4  13  -9   63.50   12.77
  13   4  -9   76.00   10.15
  -4 -13   9   74.55   14.89
  -4 -13  -9   75.22   17.75
 -13  -4   9   54.25   13.64
 -13  -4  -9   55.57   15.20
  13   4 -10   50.59   12.33
  13  -4 -10   71.91   12.54
  13  -4  10   49.21   11.63
  13   4  10   53.81   13.58
 -13  -4 -10   75.10   13.58
 -13   4 -10   84.65   12.88
  -4  13 -10   58.92   12.41
   4  13 -10   86.08   16.20
  13   4 -10   61.69   12.41
  -4 -13  10   57.77   14.31
  -4 -13 -10   72.58   15.14
 -13  -4  10   52.87   13.26
 -13  -4 -10   57.58   12.69
  13   4 -11    2.96    4.36
  13  -4 -11   14.85    7.18
  13  -4  11    8.06    4.04
  13   4  11   11.16    4.68
 -13  -4 -11   12.04    5.40
 -13   4 -11   15.27    5.32
   4  13 -11    7.95    6.83
  13   4 -11   -0.95    3.14
  -4 -13  11    3.89    5.03
  -4 -13 -11    5.10    2.33
 -13  -4 -11    7.11    2.08
  13   4 -12    7.73    4.05
  13  -4 -12   12.53    7.24
  13  -4  12    8.46    6.40
  13   4  12    4.11    2.67
 -13  -4 -12   27.06   16.50
 -13   4 -12   12.48    5.42
  -4  13 -12    4.05    3.14
   4  13 -12   16.26   11.51
 -13  -4 -12    8.10    4.27
  13   4 -13   21.44    5.42
  13  -4 -13   22.71    6.24
  13  -4  13   25.30    7.59
  13   4  13   16.19    5.22
 -13  -4 -13   31.84    6.59
 -13   4 -13   19.00    4.06
  -4  13 -13   13.34    4.89
   4  13 -13   14.82    5.69
  13   4 -14    4.28    2.63
  13  -4 -14    6.74    2.80
  13  -4  14    2.31    3.08
  13   4  14    1.33    2.64
 -13  -4 -14    6.99    3.07
 -13   4 -14    3.98    2.03
  -4  13 -14   -0.65    3.25
   4  13 -14    1.37    3.62
  13   4 -15    6.88    6.09
  13  -4 -15    7.12    3.55
  13  -4  15   -1.65    4.92
  13   4  15   -2.20    4.03
 -13  -4 -15    5.34    2.76
 -13   4 -15    7.37    4.43
  -4  13 -15    3.54    2.91
   4  13 -15    4.06    5.34
  13   4 -16    8.88    5.28
  13  -4 -16    8.15    4.92
  13  -4  16    0.37    3.07
  13   4  16    2.15    3.20
 -13  -4 -16   16.72    3.68
 -13   4 -16    9.31    4.62
  -4  13 -16    4.81    4.32
   4  13 -16    3.87    3.42
  13   5   0   34.19    6.68
  13  -5   0   43.45    6.80
  -5 -13   0   38.75    8.03
 -13  -5   0   33.79    8.35
  13   5  -1   78.71   16.12
  13  -5  -1   91.25   14.65
  13  -5   1   91.72   19.18
  13   5   1   73.61   17.92
   5  13  -1  106.17   18.71
  -5 -13   1   86.63   15.86
  -5 -13  -1   78.47   14.28
 -13  -5   1  119.79   23.09
 -13  -5  -1   98.30   17.73
  13   5  -2   45.38   11.24
  13  -5  -2   32.25    7.13
  13  -5   2   44.20   11.51
  13   5   2   33.77    8.27
  -5  13  -2   33.95    6.64
   5  13  -2   31.88    7.03
  -5 -13   2   50.06    9.55
  -5 -13  -2   32.83    6.57
 -13  -5   2   28.75    7.61
 -13  -5  -2   44.72    8.82
  13   5  -3  194.48   16.07
  13  -5  -3  203.16   30.00
  13  -5   3  214.50    8.91
  13   5   3  181.95   11.11
  -5  13  -3  190.89    6.80
   5  13  -3  190.64   33.31
  -5 -13   3  197.81   21.56
  -5 -13  -3  205.55   22.51
 -13  -5   3  203.28   13.47
 -13  -5  -3  187.74   15.19
  13   5  -4  120.64   22.71
  13  -5  -4  139.93   14.69
  13  -5   4  129.70   22.34
  13   5   4  115.34   19.46
 -13   5  -4  122.70    9.72
  -5  13  -4  129.89   11.70
   5  13  -4  135.34   14.73
  -5 -13   4  138.44   21.10
  -5 -13  -4  135.24   25.70
 -13  -5   4  131.14   24.31
 -13  -5  -4  118.67   26.85
  13   5  -5   10.43    5.23
  13  -5  -5   23.16    6.64
  13  -5   5   15.88    5.53
  13   5   5   21.11    5.97
 -13   5  -5   16.46    3.40
  -5  13  -5   11.49    4.84
   5  13  -5   21.02    6.50
  13   5  -5   19.22    6.55
  -5 -13   5   11.79    4.72
  -5 -13  -5   12.80    4.53
 -13  -5   5   27.58    6.12
 -13  -5  -5   15.76    5.74
  13   5  -6   12.01    5.07
  13  -5  -6   24.99    6.74
  13  -5   6   48.18   13.62
  13   5   6    8.09    4.21
 -13   5  -6   15.82    4.26
  -5  13  -6   10.59    2.76
   5  13  -6   15.05    3.88
  13   5  -6   26.03    4.33
  -5 -13   6   21.38    4.69
  -5 -13  -6   10.82    4.01
 -13  -5   6   13.54    3.71
 -13  -5  -6   18.23    6.89
  13   5  -7   21.32    6.24
  13  -5  -7   16.58    5.96
  13  -5   7   31.53    7.01
  13   5   7    7.85    4.00
 -13  -5  -7   21.69    5.50
 -13   5  -7   21.64    4.32
  -5  13  -7   26.17    6.41
   5  13  -7   19.17    6.48
  13   5  -7   30.95    5.78
  -5 -13   7   24.33    5.41
  -5 -13  -7   30.90    6.86
 -13  -5  -7   24.46    6.31
  13   5  -8   73.29   15.89
  13  -5  -8   97.85   18.09
  13  -5   8  101.68   11.60
  13   5   8   78.34   22.71
 -13  -5  -8   76.36   19.98
 -13   5  -8   90.37   16.86
  -5  13  -8   79.27   14.10
   5  13  -8  109.36   14.04
  13   5  -8   76.86   15.95
  -5 -13   8   90.65   22.37
  -5 -13  -8   69.57   13.68
 -13  -5   8   64.71   16.97
 -13  -5  -8   90.21   16.45
  13   5  -9   39.41    7.38
  13  -5  -9   40.14   11.06
  13  -5   9   49.65   13.31
  13   5   9   38.20   10.53
 -13  -5  -9   37.14    9.48
 -13   5  -9   48.20    7.69
  -5  13  -9   40.89    6.99
   5  13  -9   48.90   11.32
  13   5  -9   40.38   10.20
  -5 -13   9   48.06    9.24
  -5 -13  -9   39.96    7.67
 -13  -5   9   41.52    7.28
 -13  -5  -9   42.44   11.12
  13   5 -10   35.36   14.45
  13  -5 -10   18.28    9.29
  13  -5  10    8.05    5.46
  13   5  10    9.25    4.84
 -13  -5 -10    4.99    3.64
 -13   5 -10   15.31    3.91
  -5  13 -10    7.43    3.09
   5  13 -10    7.61    5.73
  13   5 -10    7.66    3.13
  -5 -13  10    3.70    3.04
  -5 -13 -10    9.33    3.89
 -13  -5  10   19.75    5.34
 -13  -5 -10   12.08    4.64
  13   5 -11   14.81    5.96
  13  -5 -11   28.35    9.06
  13  -5  11   16.34    7.78
  13   5  11   17.80    5.76
 -13  -5 -11   12.53    4.51
 -13   5 -11   12.46    3.78
  -5  13 -11   25.12    6.55
   5  13 -11    7.28    5.20
  13   5 -11    2.41    2.24
  -5 -13  11   14.89    4.91
  -5 -13 -11    7.74    3.90
 -13  -5 -11   17.88    6.35
  13   5 -12   43.73    9.34
  13  -5 -12   28.14    7.10
  13  -5  12   25.54   10.08
  13   5  12   32.95    7.91
 -13  -5 -12   42.44    9.01
 -13   5 -12   34.83    7.40
  -5  13 -12   31.29    9.14
   5  13 -12   36.80    9.98
  13   5 -12   24.65    7.41
 -13  -5 -12   29.52    8.71
  13   5 -13   44.46    9.64
  13  -5 -13   31.72    8.34
  13  -5  13   38.51   11.50
  13   5  13   33.56    7.14
 -13  -5 -13   37.68    6.61
 -13   5 -13   45.57    9.94
  -5  13 -13   37.26    6.03
   5  13 -13   38.09    9.62
  13   5 -14    9.60    3.68
  13  -5 -14   -1.53    4.77
  13  -5  14    9.49    5.64
  13   5  14   10.06    3.28
 -13  -5 -14    8.46    4.51
 -13   5 -14   -2.94    3.33
  -5  13 -14    0.32    2.38
   5  13 -14   11.26    6.02
  13   5 -15   30.71    6.73
  13  -5 -15   29.29    6.66
  13  -5  15   15.74    7.18
  13   5  15   11.26    6.67
 -13  -5 -15   19.84    5.36
 -13   5 -15   16.42    5.97
  -5  13 -15   14.84    6.68
   5  13 -15   18.50    6.66
  13   5 -16   14.10    4.07
  13  -5 -16   48.90    7.01
  13  -5  16   22.51    7.18
  13   5  16    7.85    6.37
 -13  -5 -16   61.00   11.14
 -13   5 -16   15.62    4.09
  -5  13 -16   18.23    7.78
  13   6   0  138.97   13.52
  13  -6   0  142.20   19.69
  -6 -13   0  130.02   19.06
 -13  -6   0  130.55   22.97
  13   6  -1  102.80   20.47
  13  -6  -1  136.62   17.84
  13  -6   1  110.24    9.83
  13   6   1  123.32   17.94
   6  13  -1  109.45   20.97
  -6 -13   1  110.24   20.53
  -6 -13  -1  107.65   23.77
 -13  -6   1  111.22   21.85
 -13  -6  -1  116.80    9.89
  13   6  -2   10.82    4.50
  13  -6  -2    4.46    2.69
  13   6   2    2.61    4.14
  13  -6   2   -0.82    5.36
   6  13  -2   -0.85    4.13
  -6 -13   2    4.15    3.49
  -6 -13  -2    0.03    4.99
 -13  -6   2    7.17    3.97
 -13  -6  -2    4.10    4.80
  13   6  -3  144.91    9.35
  13  -6  -3  134.04   22.15
  13  -6   3  156.58   21.65
  13   6   3  143.14    8.90
   6  13  -3  141.62   23.60
  -6 -13   3  151.22   18.44
  -6 -13  -3  140.27   19.27
 -13  -6   3  143.49   19.98
 -13  -6  -3  152.78   12.86
  13   6  -4   83.01   10.15
  13  -6  -4   90.22    9.30
  13  -6   4   75.25   15.91
  13   6   4   71.90   16.85
  -6  13  -4   82.85   10.53
   6  13  -4   82.58   13.19
  -6 -13   4   98.38   13.82
  -6 -13  -4   99.51   17.94
 -13  -6   4   71.71   13.94
 -13  -6  -4   82.46   14.14
  13  -6  -5   31.53    8.17
  13  -6   5   21.57    7.37
  13   6   5   20.20    4.89
 -13   6  -5   22.83    6.11
  -6  13  -5   23.32    4.19
   6  13  -5   26.97    6.21
  13   6  -5   23.15    6.27
  -6 -13   5   36.01    5.96
  -6 -13  -5   30.72    6.76
 -13  -6   5   24.90    5.70
 -13  -6  -5   28.00    6.09
  13   6  -6    2.40    2.75
  13  -6  -6   12.11    5.30
  13  -6   6    2.50    5.09
  13   6   6    2.46    4.33
 -13   6  -6    1.74    1.54
  -6  13  -6   13.14    3.63
   6  13  -6    5.64    5.21
  13   6  -6    8.11    3.10
  -6 -13   6    6.08    4.36
  -6 -13  -6    8.35    4.25
 -13  -6   6    4.78    3.42
 -13  -6  -6   -0.22    2.68
  13   6  -7   34.15    6.74
  13  -6  -7   31.00    5.93
  13  -6   7   44.83    8.90
  13   6   7   29.30    6.85
 -13   6  -7   32.34    4.97
  -6  13  -7   38.63    7.19
   6  13  -7   35.07    6.51
  13   6  -7   41.71   10.97
  -6 -13   7   42.40    9.12
  -6 -13  -7   32.57    7.37
 -13  -6   7   36.82    4.93
 -13  -6  -7   34.49    8.20
  13   6  -8    5.08    2.56
  13  -6  -8    6.51    3.02
  13  -6   8    6.81    3.44
  13   6   8    3.38    3.06
 -13   6  -8    4.35    1.53
  -6  13  -8    3.24    1.18
   6  13  -8    8.23    5.37
  13   6  -8    3.84    2.80
  -6 -13   8   -2.67    3.32
  -6 -13  -8    7.20    2.41
 -13  -6   8    5.62    2.59
 -13  -6  -8    3.50    1.44
  13   6  -9   22.51    5.43
  13  -6  -9   27.20    8.49
  13  -6   9   33.14    9.95
  13   6   9   28.46    8.57
 -13  -6  -9   39.71   15.75
 -13   6  -9   37.71    8.03
  -6  13  -9   30.45    8.64
   6  13  -9   24.73    8.91
  13   6  -9   32.38    7.36
  -6 -13   9   26.23    6.37
  -6 -13  -9   26.78    6.49
 -13  -6   9   21.91    7.02
 -13  -6  -9   25.34    6.19
  13   6 -10    5.21    5.27
  13  -6 -10    5.58    4.65
  13  -6  10   16.75    5.66
  13   6  10   -0.23    4.73
 -13  -6 -10    4.05    3.95
 -13   6 -10    8.26    3.77
  -6  13 -10    4.58    4.08
   6  13 -10    9.89    7.26
  13   6 -10    3.09    2.73
  -6 -13  10    4.47    2.94
  -6 -13 -10    5.06    3.03
 -13  -6  10    0.20    3.13
 -13  -6 -10    5.83    3.17
  13   6 -11   16.89    4.84
  13  -6 -11   31.12   16.84
  13  -6  11   29.06    7.35
  13   6  11    6.76    5.67
 -13  -6 -11   17.58    5.04
 -13   6 -11   10.96    3.55
  -6  13 -11   11.84    6.93
   6  13 -11    9.18    8.30
  13   6 -11    9.81    4.34
  -6 -13  11   14.65    3.82
  -6 -13 -11    8.78    3.82
 -13  -6 -11   17.05    5.54
  13   6 -12   81.22   13.79
  13  -6 -12   60.19   14.54
  13  -6  12   71.41    9.08
  13   6  12   57.13   19.14
 -13  -6 -12   68.63   15.76
 -13   6 -12   89.59   16.24
  -6  13 -12   56.46   15.39
   6  13 -12   73.88   11.94
  13   6 -12   44.62   12.87
 -13  -6 -12   57.09   13.82
  13   6 -13    7.65    3.51
  13  -6 -13    9.58    5.72
  13  -6  13    7.64    3.94
  13   6  13    5.38    1.43
 -13  -6 -13    9.31    3.36
 -13   6 -13   12.86    3.58
  -6  13 -13    3.08    2.58
   6  13 -13   11.33    5.85
  13   6 -13    5.93    4.71
  13   6 -14    1.32    2.62
  13  -6 -14    9.77    4.04
  13  -6  14    5.95    2.51
  13   6  14    8.98    7.12
 -13  -6 -14    2.39    2.27
 -13   6 -14   12.54    4.67
  -6  13 -14    5.92    3.19
   6  13 -14    4.70    4.27
  13   6 -15    7.72    3.11
  13  -6 -15    8.14    4.06
  13  -6  15   11.43    4.85
  13   6  15    6.95    3.41
 -13  -6 -15    7.72    3.65
 -13   6 -15   13.99    4.09
  -6  13 -15    8.30    4.56
   6  13 -15    4.79    6.50
  13   6 -16   35.46    7.95
  13  -6  16   31.73    8.39
  13   6  16   22.73   11.36
 -13   6 -16   27.45    9.88
  -6  13 -16   26.52   15.72
  13   7   0   -2.73    3.89
  13  -7   0    3.63    2.76
  -7 -13   0    5.50    2.21
 -13  -7   0    3.89    2.08
  13   7  -1   19.58    7.60
  13  -7  -1   12.22    4.90
  13   7   1   10.93    5.91
  13  -7   1    9.99    6.21
   7  13  -1   17.29    4.17
  -7 -13   1    6.51    2.79
  -7 -13  -1   12.17    5.75
 -13  -7   1   20.53    5.34
 -13  -7  -1    9.62    2.87
  13   7  -2    8.31    5.03
  13  -7  -2    7.26    4.85
  13  -7   2    4.84    3.96
  13   7   2    6.28    4.02
   7  13  -2    1.20    1.91
  -7 -13   2   16.97    6.90
  -7 -13  -2    3.93    3.08
 -13  -7   2    7.55    2.71
 -13  -7  -2    3.45    3.70
  13   7  -3  194.36   11.46
  13  -7  -3  183.50   19.60
  13  -7   3  154.12   27.56
  13   7   3  168.76   15.57
   7  13  -3  176.47   28.45
  -7 -13   3  187.71   26.46
  -7 -13  -3  192.08   12.04
 -13  -7   3  204.17   15.11
 -13  -7  -3  181.79   14.59
  13   7  -4   62.63   17.81
  13  -7  -4   95.93   18.63
  13  -7   4   85.76   18.00
  13   7   4   71.23   16.69
   7  13  -4  110.16   14.50
  -7 -13   4  110.77   19.41
  -7 -13  -4  103.57   16.78
 -13  -7   4   92.18   19.82
 -13  -7  -4   77.50   16.48
  13   7  -5  105.78   13.26
  13  -7  -5  107.52   17.49
  13  -7   5  121.21   19.20
  13   7   5  117.90   15.92
   7  13  -5   94.70   23.89
  13   7  -5  130.58   13.89
  -7 -13   5  108.60   19.09
  -7 -13  -5  112.06   17.50
 -13  -7   5  127.14   13.79
 -13  -7  -5  101.79   18.41
  13   7  -6   27.55    5.56
  13  -7  -6   27.62    5.17
  13  -7   6   16.37    5.59
  13   7   6   24.73    7.43
  -7  13  -6   20.90    6.34
   7  13  -6   15.58    5.76
  13   7  -6   34.68    7.02
  -7 -13   6   30.38    5.84
  -7 -13  -6   23.14    5.59
 -13  -7   6   42.63    7.33
 -13  -7  -6   29.79    7.65
  13   7  -7  135.91   16.55
  13  -7  -7  110.81   23.74
  13  -7   7  132.20   29.15
  13   7   7  116.71   17.29
  -7  13  -7  124.66   12.68
   7  13  -7  109.29   21.28
  13   7  -7  135.36   20.16
  -7 -13   7  124.82   21.76
  -7 -13  -7  128.36   23.92
 -13  -7   7   91.84   24.02
 -13  -7  -7  137.02   16.03
  13   7  -8   70.62    9.51
  13  -7  -8   66.29   13.74
  13  -7   8   59.35   11.15
  13   7   8   69.88   10.12
 -13   7  -8   66.56   12.68
  -7  13  -8   39.04   11.28
   7  13  -8   69.93   18.80
  13   7  -8   62.25   10.44
  -7 -13   8   71.55   14.27
  -7 -13  -8   70.42   17.17
 -13  -7   8   60.36   15.25
 -13  -7  -8   53.58   12.51
  13   7  -9  171.47   20.25
  13  -7  -9   58.38    7.38
  13  -7   9   55.47   14.43
  13   7   9   53.37   15.21
 -13   7  -9   69.97   12.29
  -7  13  -9   52.86    6.92
   7  13  -9   57.07   12.15
  13   7  -9   46.83   11.63
  -7 -13   9   61.19   14.98
  -7 -13  -9   56.14   13.80
 -13  -7   9   38.93   11.29
 -13  -7  -9   51.93   13.29
  13   7 -10   12.21    4.02
  13  -7 -10   10.77    6.64
  13  -7  10    8.86    4.22
  13   7  10    7.09    2.88
 -13  -7 -10    9.45    3.16
 -13   7 -10    3.84    2.57
  -7  13 -10    7.26    2.81
   7  13 -10    2.80    6.96
  13   7 -10   21.50    6.62
  -7 -13  10   17.54    4.85
  -7 -13 -10    9.96    3.62
 -13  -7  10    6.52    3.31
  13   7 -11   12.31    4.22
  13  -7 -11    2.46    2.97
  13  -7  11    7.23    6.45
  13   7  11    7.72    4.50
 -13  -7 -11    5.20    3.04
 -13   7 -11   -2.05    2.70
  -7  13 -11    5.18    3.18
   7  13 -11   -2.14    5.46
  13   7 -11    9.68    4.90
  -7 -13  11   12.96    4.17
  -7 -13 -11    1.60    2.04
  13   7 -12    4.29    3.03
  13  -7 -12   14.58    3.69
  13  -7  12    1.15    3.59
  13   7  12    7.96    3.00
 -13  -7 -12    6.60    3.65
 -13   7 -12   10.53    3.04
  -7  13 -12    9.98    4.73
   7  13 -12   13.95    6.85
  13   7 -12    2.15    2.32
 -13  -7 -12    4.24    5.02
  13   7 -13   10.30    5.08
  13  -7 -13   14.50    4.36
  13  -7  13   15.80    4.94
  13   7  13   10.58    4.43
 -13  -7 -13   12.86    6.69
 -13   7 -13   34.06    7.68
  -7  13 -13    7.17    3.95
   7  13 -13   21.93    7.51
  13   7 -13    3.43    2.71
  13   7 -14    7.67    3.81
  13  -7 -14    8.75    4.51
  13  -7  14   11.82    4.85
  13   7  14    4.88    2.24
 -13  -7 -14    3.04    4.99
 -13   7 -14    5.64    2.88
  -7  13 -14    9.17    3.94
   7  13 -14    4.72    3.01
  13   7 -14    2.66    3.88
  13   7 -15    3.25    2.09
  13  -7 -15    4.56    2.50
  13  -7  15    6.26    6.36
  13   7  15   10.05    6.57
 -13  -7 -15   -0.70    4.96
 -13   7 -15    8.71    1.89
  -7  13 -15   10.54    5.59
   7  13 -15    7.81    5.61
  13   7 -16    2.38    1.83
  13   7  16    9.99    4.72
 -13   7 -16   10.01    4.04
  13   8   0    4.84    3.20
  13  -8   0    5.16    3.93
  -8 -13   0    4.06    2.00
 -13  -8   0    1.97    2.89
  13   8  -1   13.55    4.95
  13  -8  -1   10.62    4.17
  13   8   1   15.65    4.97
  13  -8   1   11.13    5.89
  -8 -13   1    7.54    3.77
  -8 -13  -1   23.07    6.54
 -13  -8   1   13.79    3.93
 -13  -8  -1    8.05    4.39
  13   8  -2   46.92    6.76
  13  -8  -2   43.09    9.39
  13   8   2   43.37   11.06
  13  -8   2   38.46    8.13
   8  13  -2   59.49   13.64
  -8 -13   2   60.44   12.13
  -8 -13  -2   55.33   10.33
 -13  -8   2   57.01    8.80
 -13  -8  -2   43.79    8.90
  13   8  -3   21.23    6.27
  13  -8  -3   39.02    7.98
  13  -8   3   25.53    6.54
  13   8   3   36.56    9.40
   8  13  -3   33.50    8.91
  -8 -13   3   37.97    5.11
  -8 -13  -3   43.42    7.06
 -13  -8   3   46.65    7.18
 -13  -8  -3   34.21    6.85
  13   8  -4   25.72    6.17
  13  -8  -4   21.38    5.81
  13  -8   4   18.28    7.71
  13   8   4   19.96    5.57
   8  13  -4   17.70    7.09
  13   8  -4   16.14    6.10
  -8 -13   4   20.65    5.59
  -8 -13  -4   25.82    7.43
 -13  -8   4   25.10    6.93
 -13  -8  -4   35.06    9.40
  13   8  -5   20.20    6.69
  13  -8  -5   29.67    7.43
  13  -8   5   23.59    5.19
  13   8   5   29.85    7.01
   8  13  -5   29.72    8.05
  13   8  -5   26.40    6.69
  -8 -13   5   29.41    5.93
  -8 -13  -5   33.58    6.79
 -13  -8   5   28.63    8.07
 -13  -8  -5   36.01    7.59
  13   8  -6  165.25   18.23
  13  -8  -6  176.09   11.12
  13  -8   6  146.51   24.05
  13   8   6  159.92   17.34
   8  13  -6  163.81   18.47
  13   8  -6  136.28   30.67
  -8 -13   6  171.87   17.55
  -8 -13  -6  208.81   17.03
 -13  -8   6  176.75   13.96
 -13  -8  -6  185.86   14.39
  13   8  -7   30.46    6.18
  13  -8  -7   18.35    4.99
  13  -8   7   21.89    6.40
  13   8   7   15.48    6.68
   8  13  -7   14.18    7.84
  -8 -13   7   22.41    6.40
  -8 -13  -7   10.57    3.44
 -13  -8   7   16.67    6.47
 -13  -8  -7   30.90    6.68
  13   8  -8   16.56    5.15
  13  -8  -8   26.72    6.06
  13  -8   8   60.53   14.25
  13   8   8   16.85    6.51
  -8  13  -8   10.50    4.86
   8  13  -8   18.64    8.40
  13   8  -8   27.88    5.32
  -8 -13   8   12.76    5.07
  -8 -13  -8   20.02    4.20
 -13  -8   8   21.52    8.35
 -13  -8  -8   21.82    5.82
  13   8  -9    7.22    2.93
  13  -8  -9   13.83    6.00
  13  -8   9   23.82    6.31
  13   8   9   14.06    7.03
  -8  13  -9    7.53    3.36
   8  13  -9   15.54    4.40
  13   8  -9    7.26    4.36
  -8 -13   9   10.28    4.02
  -8 -13  -9   14.19    6.45
 -13  -8   9    9.03    4.50
 -13  -8  -9   10.75    4.29
  13   8 -10   10.86    3.44
  13  -8 -10   14.60    4.44
  13  -8  10   13.60    7.06
  13   8  10   12.81    5.64
 -13   8 -10   18.86    3.04
  -8  13 -10    9.88    4.13
   8  13 -10   21.58    5.82
  13   8 -10   19.59    5.99
  -8 -13  10    5.54    3.09
  -8 -13 -10   19.78    8.22
 -13  -8  10   20.00    4.11
 -13  -8 -10   15.77    4.77
  13   8 -11   21.20    5.82
  13  -8 -11   13.59    6.47
  13  -8  11   13.60    6.49
  13   8  11   22.88    6.45
 -13   8 -11   14.07    2.16
  -8  13 -11   20.96    8.12
   8  13 -11   11.92    5.29
  13   8 -11   10.55    4.47
  -8 -13  11   10.31    6.91
  -8 -13 -11   15.42    6.31
 -13  -8 -11   19.51    5.83
  13   8 -12    5.91    3.61
  13  -8 -12    3.43    2.30
  13  -8  12    5.58    5.86
  13   8  12    2.96    1.75
 -13   8 -12    3.16    2.97
  -8  13 -12    0.44    2.43
   8  13 -12    4.77    5.26
  13   8 -12    3.82    4.15
 -13  -8 -12    0.50    2.90
  13  -8 -13    6.47    2.59
  13  -8  13    2.50    4.60
  13   8  13    2.00    1.90
 -13  -8 -13   11.42    4.14
 -13   8 -13    5.54    2.51
  -8  13 -13    5.38    4.36
   8  13 -13   -4.38    4.82
  13   8 -13    2.35    3.21
  13  -8 -14    6.10    3.45
  13  -8  14    2.54    5.07
  13   8  14    4.67    3.96
 -13  -8 -14    8.25    4.76
 -13   8 -14   12.08    3.25
  -8  13 -14    3.12    2.73
   8  13 -14   15.39    8.64
  13   8 -14   11.34    4.48
  13  -8 -15    9.99    2.96
  13  -8  15   10.90    4.37
  13   8  15    7.45    3.28
 -13   8 -15   14.40    5.07
  -8  13 -15   16.43   13.07
  13   8 -15   12.21    6.29
  13   9   0    5.16    2.49
  13  -9   0    9.63    4.14
  -9 -13   0   -0.18    3.95
 -13  -9   0    6.67    4.35
  13   9  -1   43.59   10.00
  13  -9  -1   62.89   13.94
  13   9   1   41.60   10.14
  13  -9   1   53.28   13.33
  -9 -13   1   69.62   11.33
  -9 -13  -1   85.78   14.02
 -13  -9   1   52.86   13.28
 -13  -9  -1   56.63   12.20
  13   9  -2  123.77   15.27
  13  -9  -2  154.18   14.26
  13   9   2  136.62   10.01
  13  -9   2  127.29   21.28
   9  13  -2  136.72   32.23
  -9 -13   2  146.39   22.75
  -9 -13  -2  173.70   27.69
 -13  -9   2  121.55   25.04
 -13  -9  -2  115.33   26.03
  13   9  -3   17.79    5.59
  13  -9  -3   25.20    6.76
  13  -9   3   25.11    7.32
  13   9   3   19.70    6.31
   9  13  -3   12.48    7.40
  -9 -13   3   28.42    7.19
  -9 -13  -3   31.36    6.24
 -13  -9   3   25.60    7.37
 -13  -9  -3   18.19    7.69
  13   9  -4   -0.91    2.49
  13  -9  -4    8.24    4.37
  13  -9   4    2.04    2.76
  13   9   4    2.13    1.99
   9  13  -4   -0.25    4.90
  13   9  -4    5.97    3.37
  -9 -13   4    8.30    3.25
  -9 -13  -4    6.44    5.63
 -13  -9   4   -2.38    4.12
 -13  -9  -4    1.29    3.97
  13  -9  -5    3.78    2.98
  13  -9   5    4.23    3.76
  13   9   5    4.32    2.83
   9  13  -5    2.75    3.23
  13   9  -5   -0.93    4.62
  -9 -13   5    2.62    2.60
  -9 -13  -5   -0.84    4.09
 -13  -9   5    2.30    1.97
 -13  -9  -5    1.91    3.39
  13  -9  -6    3.01    2.66
  13  -9   6    8.38    4.05
  13   9   6    6.37    5.56
   9  13  -6   15.17    7.02
  13   9  -6   12.27    3.57
  -9 -13   6   11.42    4.16
  -9 -13  -6    9.56    4.08
 -13  -9   6    3.81    3.52
 -13  -9  -6    9.77    5.15
  13  -9  -7   11.09    5.37
  13  -9   7   17.25    7.28
  13   9   7    9.49    5.37
   9  13  -7   16.56    6.73
  13   9  -7   17.93    7.07
  -9 -13   7   12.09    4.72
  -9 -13  -7   13.61    4.16
 -13  -9   7   15.87    7.08
 -13  -9  -7   13.41    4.20
  13  -9  -8    1.83    2.32
  13  -9   8    6.76    3.87
  13   9   8   17.70    5.15
   9  13  -8    4.08    6.00
  13   9  -8   11.86    7.27
  -9 -13   8    7.34    5.36
  -9 -13  -8    5.73    2.79
 -13  -9   8   11.50    5.67
 -13  -9  -8    6.81    4.21
  13  -9  -9    6.46    3.96
  13  -9   9   11.47    4.98
  13   9   9    3.11    3.34
   9  13  -9    6.47    4.14
  13   9  -9    6.38    3.41
  -9 -13   9    2.21    2.90
  -9 -13  -9    4.75    3.44
 -13  -9   9   -0.53    1.64
 -13  -9  -9   -0.37    2.94
  13  -9 -10   10.89    6.28
  13  -9  10    8.95    4.82
  13   9  10   12.87    6.34
   9  13 -10   16.97    6.25
  13   9 -10   30.14    7.72
  -9 -13  10   16.41    5.84
  -9 -13 -10   13.08    5.18
 -13  -9  10   12.44    2.80
 -13  -9 -10   18.69    7.63
  13  -9 -11    7.01    4.14
  13  -9  11    5.10    4.00
  13   9  11    6.12    3.65
  -9  13 -11   20.36    8.01
   9  13 -11   13.51    7.14
  13   9 -11    8.97    7.49
  -9 -13  11    8.95    3.37
  -9 -13 -11   10.33    4.38
 -13  -9 -11    0.09    1.77
  13  -9 -12    9.04    4.50
  13  -9  12    1.97    3.27
  -9  13 -12   -0.77    3.68
   9  13 -12    8.99    4.35
  13   9 -12   11.26    5.29
 -13  -9 -12    1.15    2.83
  13  -9 -13   18.10    6.25
  13  -9  13   21.92    8.45
 -13   9 -13   30.53    6.24
  -9  13 -13   20.77    7.59
   9  13 -13   14.82    6.36
  13   9 -13   30.89    7.64
  13  -9 -14   54.51   14.35
  13  -9  14   37.71   13.13
 -13   9 -14   44.18    8.74
  -9  13 -14   39.19   12.58
  13   9 -14   34.93   13.33
 -13   9 -15   24.00    6.31
  13   9 -15   10.60    3.59
  13 -10   0  112.34   22.05
 -10 -13   0  155.57   24.07
 -13 -10   0  124.72   25.46
  13 -10  -1    7.78    4.10
  13 -10   1   14.13    4.41
 -10 -13   1   10.99    5.53
 -10 -13  -1   13.78    6.06
 -13 -10   1    9.08    4.29
 -13 -10  -1    8.98    6.95
  13 -10  -2   47.32   10.31
  13 -10   2   50.56    9.81
  10  13  -2   64.86   14.81
 -10 -13   2   55.38   12.32
 -10 -13  -2   62.92   12.93
 -13 -10   2   46.19   15.13
 -13 -10  -2   50.95   10.15
  13 -10  -3    5.87    3.26
  13 -10   3   10.55    6.66
  10  13  -3    7.47    6.37
 -10 -13   3   10.45    4.53
 -10 -13  -3   12.90    5.82
 -13 -10   3   13.52    6.57
 -13 -10  -3   17.18    6.09
  13 -10  -4   45.09   11.50
  13 -10   4   48.10   10.57
  10  13  -4   43.98   15.19
  13  10  -4   48.22   10.92
 -10 -13   4   51.05    9.80
 -10 -13  -4   53.14   11.60
 -13 -10   4   57.90   13.14
 -13 -10  -4   56.02   15.13
  13 -10  -5   77.66   17.52
  13 -10   5   83.56   21.99
  10  13  -5   97.46   17.68
  13  10  -5   82.98   18.05
 -10 -13   5  117.25   17.86
 -10 -13  -5  143.96   22.04
 -13 -10   5  102.96   13.16
 -13 -10  -5   85.38   23.28
  13 -10  -6   13.61    4.68
  13 -10   6   18.06    6.62
  10  13  -6    8.79    6.68
  13  10  -6   18.04    7.30
 -10 -13   6   10.97    2.91
 -10 -13  -6    6.11    5.84
 -13 -10   6   11.28    2.39
 -13 -10  -6   10.39    4.73
  13 -10  -7    8.69    3.68
  13 -10   7    3.70    4.84
  10  13  -7   15.42    6.95
  13  10  -7   17.61    9.22
 -10 -13   7    6.96    3.02
 -10 -13  -7    7.14    3.02
 -13 -10   7    6.19    2.61
 -13 -10  -7    8.71    4.12
  13 -10  -8    5.76    2.26
  13 -10   8    7.48    5.01
  10  13  -8   11.94    4.58
  13  10  -8    7.91    4.78
 -10 -13   8    5.04    2.85
 -10 -13  -8    8.71    2.48
 -13 -10   8   14.32    4.96
 -13 -10  -8    6.03    2.68
  13 -10  -9    0.54    3.21
  13 -10   9   -0.60    3.27
  10  13  -9    6.27    7.07
  13  10  -9    6.18    4.03
 -10 -13   9    0.16    2.77
 -10 -13  -9    2.33    1.25
 -13 -10   9    6.71    1.76
 -13 -10  -9    3.88    4.45
  13 -10 -10   19.75    6.37
  13 -10  10   14.58    6.34
  10  13 -10   16.17    8.01
  13  10 -10    8.45    9.08
 -10 -13  10    4.53    4.88
 -10 -13 -10    1.25    2.64
 -13 -10  10    5.58    2.40
 -13 -10 -10   17.81    3.91
  13 -10 -11    6.15    3.54
  13 -10  11    6.52    2.41
  10  13 -11    6.80    4.71
  13  10 -11   10.75    5.20
 -10 -13 -11    3.20    1.98
 -13 -10 -11   13.33    3.73
  13 -10 -12   22.39    6.99
  13 -10  12   17.78    7.64
  10  13 -12   23.04   10.68
  13  10 -12   31.29    9.07
  13 -10 -13    5.44    2.08
  13 -10  13    4.18    2.37
  10  13 -13    3.40    4.13
  13  10 -13    4.57    4.13
  13 -10 -14   17.62    5.24
  13 -10  14   10.17    5.53
  13  10 -14   22.96    7.84
  13 -11   0    7.37    4.20
 -11 -13   0    8.39    3.36
 -13 -11   0    7.75    3.23
  13 -11  -1   14.09    5.05
  13 -11   1    5.00    2.80
 -11 -13   1    8.67    4.34
 -11 -13  -1   19.26    7.01
 -13 -11   1   11.28    5.21
 -13 -11  -1   13.16    5.43
  13 -11  -2    9.15    5.12
  13 -11   2   12.03    5.59
  11  13  -2   16.94    8.36
 -11 -13   2   15.97    6.60
 -11 -13  -2    7.06    3.88
 -13 -11   2   16.48    4.65
 -13 -11  -2   13.63    5.14
  13 -11  -3    4.98    2.77
  13 -11   3   11.34    5.12
  11  13  -3   18.87    7.25
  13  11  -3    8.86    8.33
 -11 -13   3   20.30    5.91
 -11 -13  -3   10.18    2.78
 -13 -11   3   13.92    5.15
 -13 -11  -3    6.37    3.82
  13 -11  -4   90.49    8.52
  13 -11   4   74.48   15.59
  11  13  -4   69.19   14.65
  13  11  -4   67.39   14.39
 -11 -13   4   91.38   12.72
 -11 -13  -4   76.46   14.63
 -13 -11   4   93.42   16.19
 -13 -11  -4   85.12   18.61
  13 -11  -5    4.04    4.01
  13 -11   5    7.59    3.99
  11  13  -5    1.70    2.80
  13  11  -5   15.26    5.26
 -11 -13   5    4.90    1.55
 -11 -13  -5   15.13    6.95
 -13 -11   5   15.40    5.26
 -13 -11  -5   13.72    5.58
  13 -11  -6    5.32    3.10
  13 -11   6    2.83    5.09
  11  13  -6    3.71    5.87
  13  11  -6   11.16    9.71
 -11 -13   6   17.23    6.08
 -11 -13  -6    6.50    4.66
 -13 -11   6   12.11    4.86
 -13 -11  -6    4.48    3.00
  13 -11  -7   34.70    9.01
  13 -11   7   32.18   10.41
  11  13  -7   41.85    9.15
  13  11  -7   46.49    9.41
 -11 -13   7   54.59    6.74
 -11 -13  -7   52.02   10.19
 -13 -11   7   41.82    6.29
 -13 -11  -7   50.85   11.05
  13 -11  -8   36.90    8.83
  13 -11   8   42.57   13.26
  11  13  -8   34.45    9.73
  13  11  -8   66.40   11.61
 -11 -13   8   44.28   14.32
 -11 -13  -8   37.64   10.12
 -13 -11   8   44.02   12.46
 -13 -11  -8   63.55   12.40
  13 -11  -9    1.62    3.90
  13 -11   9    3.16    3.35
  11  13  -9    5.06    2.98
  13  11  -9    8.24    7.48
 -11 -13   9    3.28    5.84
 -11 -13  -9    8.16    4.03
 -13 -11   9    4.56    2.94
 -13 -11  -9    1.33    2.20
  13 -11 -10    2.98    3.29
  13 -11  10   -0.94    3.52
  11  13 -10   10.42    6.48
  13  11 -10    2.35    5.89
 -11 -13  10    2.95    4.10
 -11 -13 -10    1.18    1.87
 -13 -11  10    4.06    1.87
 -13 -11 -10    3.91    1.68
  13 -11 -11    4.80    1.87
  13 -11  11    3.14    4.79
  11  13 -11   -2.47    5.82
  13  11 -11    1.95    6.40
 -11 -13 -11   13.67   10.99
 -13 -11 -11    5.95    2.80
  13 -11  12    6.60    5.08
  11  13 -12    3.85    3.85
  13  11 -12    8.83    4.96
  13 -11 -13   -1.84    3.43
  13 -12   0   36.17   11.29
 -12 -13   0   71.50   10.19
 -13 -12   0   64.73   11.03
  13 -12  -1    8.47    4.33
  13 -12   1    6.76    4.21
 -12 -13   1    0.96    2.45
 -12 -13  -1   13.88    5.17
 -13 -12   1   14.37    6.18
 -13 -12  -1    6.25    3.56
  13 -12  -2    7.42    4.55
  13 -12   2    2.83    3.53
  12  13  -2   15.04    5.66
 -12 -13   2   11.46    4.88
 -12 -13  -2    4.64    2.62
 -13 -12   2    9.73    3.68
 -13 -12  -2    3.18    3.43
  13 -12  -3    9.10    3.76
  12  13  -3   -1.90    5.11
  13  12  -3   13.18    8.82
 -12 -13   3   11.34    3.12
 -12 -13  -3    9.19    4.46
 -13 -12   3   11.06    3.52
 -13 -12  -3   13.26    4.27
  13 -12  -4   16.45    6.42
  12  13  -4   25.40    8.43
  13  12  -4   21.08    8.86
 -12 -13   4   26.00    5.78
 -12 -13  -4   10.97    4.18
 -13 -12   4   27.43    4.90
 -13 -12  -4   19.41    7.15
  13 -12  -5   34.75   10.23
  12  13  -5   42.01   11.27
  13  12  -5   52.38   12.75
 -12 -13   5   55.59   10.19
 -12 -13  -5   58.71    9.12
 -13 -12   5   58.31   10.00
 -13 -12  -5   47.34   11.27
  13 -12  -6   -0.85    4.10
  12  13  -6    4.83    4.31
  13  12  -6    6.89    6.37
 -12 -13   6   12.95    3.55
 -13 -12   6    6.62    3.02
 -12 -13  -6    7.96    3.38
 -13 -12  -6    4.60    3.14
  13 -12  -7   20.19    5.10
  12  13  -7    2.59    6.16
  13  12  -7    4.15    7.48
 -12 -13   7   16.02    4.53
 -12 -13  -7    9.04    3.91
 -13 -12  -7   12.00    3.64
  13 -12  -8   22.73    5.78
  12  13  -8   20.21    7.57
  13  12  -8    8.15    5.80
 -12 -13   8   29.30    5.49
 -13 -12   8   16.32    3.80
 -12 -13  -8   19.81    5.30
 -13 -12  -8   17.35    5.63
  12  13  -9    9.65    4.20
  13  12  -9   12.24    5.51
 -12 -13   9    4.30    2.35
 -13 -12   9   10.47    4.98
 -12 -13  -9    9.01    4.47
 -13 -12  -9    5.76    5.30
  12  13 -10    6.07    5.06
  13  12 -10    2.25    3.54
 -12 -13  10    8.27    4.56
 -13 -12  10   10.85    5.18
 -12 -13 -10    3.60    1.68
 -13 -12 -10    5.93    1.62
  12  13 -11    4.91    5.02
  13  12 -11   12.08    7.80
 -12 -13 -11    8.76    4.62
 -13 -12 -11    8.05    4.59
 -13 -13   0    3.55    2.35
 -13 -13   1   41.58    7.95
 -13 -13  -1   42.88   12.19
  13  13  -2   68.62   15.81
 -13 -13   2   73.97   12.37
 -13 -13  -2   77.06   14.18
  13  13  -3    8.45    6.74
 -13 -13   3    5.09    1.88
 -13 -13  -3    1.60    2.80
  13  13  -4   12.56    5.36
 -13 -13   4   37.45    6.73
 -13 -13  -4   32.52    9.35
  13  13  -5    3.45    6.20
 -13 -13   5    2.54    4.19
 -13 -13  -5    4.39    2.64
  13  13  -6   13.36    6.18
 -13 -13   6    4.76    2.76
 -13 -13  -6   15.02    5.73
  13  13  -7    4.32    5.88
 -13 -13   7   -1.69    3.61
 -13 -13  -7    6.12    3.06
  13  13  -8    3.58    5.75
 -13 -13   8    0.08    2.41
 -13 -13  -8    8.59    4.41
  13  13  -9   -0.85    5.68
 -13 -13   9    6.20    3.87
 -13 -13  -9    5.04    1.75
 -13 -13 -10    9.02    3.87
  14   0   0   -0.24    4.66
   0  14   0    8.12    3.89
  14   0  -1  208.35   15.79
  14   0   1  204.99   18.47
   0  14  -1  212.17   19.38
   0  14   1  237.01   18.35
  14   0  -2   54.68   10.97
  14   0   2   45.56    6.86
   0  14  -2   47.23   11.95
   0  14   2   38.77    8.03
  14   0  -3  111.45   14.72
  14   0   3  102.57   24.93
   0  14  -3  114.43    8.97
   0  14   3  121.34    8.46
  14   0  -4    4.07    6.04
  14   0   4    4.78    3.84
 -14   0  -4    2.99    2.87
   0  14  -4   -1.95    4.26
   0  14   4    0.79    2.87
  14   0  -5   56.24   11.99
  14   0   5   58.92   12.61
 -14   0  -5   73.12   12.12
   0  14  -5   53.36   11.15
  14   0  -6  257.39   14.11
  14   0   6  343.72   13.61
   0  14  -6  254.06   23.96
  14   0  -7   85.29   16.83
  14   0   7   65.94   16.03
 -14   0  -7  264.09   55.92
   0  14  -7   60.99    8.13
  14   0  -8    9.92    5.03
  14   0   8    6.23    5.28
 -14   0  -8    8.83    3.05
   0  14  -8   10.07    4.19
  14   0  -9    7.67    4.80
  14   0   9   11.71    4.93
 -14   0  -9    3.95    2.00
   0  14  -9    1.49    4.50
 -14   0   9    8.56    3.09
  14   0 -10   58.06    9.93
  14   0  10   12.29    6.61
 -14   0 -10   41.91    9.34
   0  14 -10   33.90   13.53
 -14   0  10   26.64    8.81
  14   0 -11   11.69    7.27
  14   0  11   13.89    5.59
 -14   0 -11   12.54    2.70
   0  14 -11   19.05    8.71
  14   0 -12    1.66    3.24
  14   0  12    2.56    1.76
 -14   0 -12    3.28    2.66
   0  14 -12   10.20    5.67
  14   0 -13   80.94   12.05
  14   0  13   58.00   16.74
 -14   0 -13   46.46   11.25
   0  14 -13   40.60   12.07
  14   0 -14    4.81    2.38
  14   0  14    3.93    4.47
 -14   0 -14    1.05    3.50
   0  14 -14   13.59    6.41
  14   0 -15    6.05    3.81
  14   0  15   -0.12    4.41
 -14   0 -15    6.04    4.00
   0  14 -15   23.64   13.88
  14   0 -16    2.71    3.41
 -14   0 -16   14.34    4.28
   0  14 -16    1.24    2.76
  14  -1   0  133.40   11.52
  14   1   0  133.79   10.87
  -1  14   0   98.71   20.80
   1  14   0  128.51   16.13
  -1 -14   0  143.07   27.63
  14  -1  -1    4.37    4.64
  14   1  -1    4.40    3.95
  14  -1   1   -0.57    5.04
  14   1   1    5.17    4.49
  -1  14  -1    1.51    2.70
  -1  14   1    9.40    3.92
   1  14  -1    3.97    3.85
   1  14   1    9.27    5.06
  -1 -14   1   -4.28    4.12
  -1 -14  -1    5.01    3.41
  14   1  -2  185.98   19.29
  14  -1  -2  207.47   31.93
  14   1   2  198.00   15.11
  14  -1   2  168.97   19.68
  -1  14  -2  205.60   13.45
   1  14  -2  201.21   20.40
  -1  14   2  232.93   11.84
   1  14   2  199.94   19.86
  -1 -14   2  227.84   24.03
  -1 -14  -2  215.10    9.91
  14   1  -3  104.30   20.35
  14  -1  -3  110.26   18.34
  14  -1   3  114.03   19.55
  14   1   3  104.59   21.30
 -14   1  -3   97.03   13.66
  -1  14  -3  107.96    9.03
   1  14  -3  121.01   11.08
  -1  14   3  107.31   13.81
   1  14   3   92.91   18.66
  -1 -14   3  118.52   21.73
  -1 -14  -3  125.42   16.80
  14   1  -4   97.48   16.67
  14  -1  -4  109.05   11.00
  14  -1   4  109.66   22.18
  14   1   4   86.29   16.96
 -14   1  -4   92.34    9.60
  -1  14  -4  100.15   21.45
   1  14  -4   93.02   19.04
  -1  14   4   83.43   19.02
  -1 -14   4  117.52   15.95
  -1 -14  -4  108.59   19.92
  14   1  -5   69.66    7.05
  14  -1  -5   77.21   13.53
  14  -1   5   54.64   11.66
  14   1   5   66.86   13.53
 -14  -1  -5   57.86   12.86
 -14   1  -5   73.11   13.81
  -1  14  -5   57.42   10.93
   1  14  -5   72.51   13.27
  -1 -14  -5   63.38   16.73
  14   1  -6    5.30    2.67
  14  -1  -6   10.96    5.88
  14  -1   6   18.28    7.86
  14   1   6    4.89    4.22
 -14   1  -6   57.71   15.10
  -1  14  -6   14.30    5.97
   1  14  -6   15.57    5.15
  -1 -14  -6   20.01    6.46
  14   1  -7   79.59   10.58
  14  -1  -7   73.00   13.35
  14  -1   7   86.16   12.32
  14   1   7   60.92   16.85
 -14  -1  -7   80.12    9.66
 -14   1  -7   74.89   13.31
  -1  14  -7   87.87   12.33
   1  14  -7   74.36   18.13
  -1 -14  -7   66.20   15.30
 -14  -1   7   58.35   11.99
  14   1  -8   69.88   12.82
  14  -1  -8   72.56   14.21
  14   1   8   58.04   16.13
  14  -1   8   50.83   13.82
 -14  -1  -8   73.59   13.47
 -14   1  -8   72.33   12.87
  -1  14  -8   63.35   14.91
   1  14  -8   83.67    9.31
 -14  -1   8   75.27    8.87
  14   1  -9  119.37   19.49
  14  -1  -9  101.79   18.76
  14  -1   9  118.52   22.78
  14   1   9  126.89   13.21
 -14  -1  -9  156.16   12.36
 -14   1  -9  122.63   16.08
  -1  14  -9  129.70   25.25
   1  14  -9  111.06   25.38
 -14  -1   9  115.78   14.57
  14   1 -10   40.33    8.89
  14  -1 -10   53.30    8.55
  14  -1  10   44.19   12.45
  14   1  10   44.07   13.48
 -14  -1 -10   51.57   10.73
 -14   1 -10   45.70    7.64
  -1  14 -10   36.38    7.88
   1  14 -10   34.97   10.37
 -14  -1  10   31.69   10.48
 -14   1  10   35.45   10.65
  14   1 -11    5.00    3.73
  14  -1 -11    7.49    4.80
  14  -1  11    0.91    5.22
  14   1  11    3.05    3.66
 -14  -1 -11    1.58    2.34
 -14   1 -11    1.48    2.64
  -1  14 -11    3.82    4.27
   1  14 -11    4.37    6.11
 -14  -1 -11   -0.05    3.23
  14   1 -12   33.91    8.77
  14  -1 -12   46.48   13.10
  14  -1  12   43.62   17.52
  14   1  12   34.57   13.43
 -14  -1 -12   47.24   11.07
 -14   1 -12   48.01    8.28
  -1  14 -12   50.45   10.77
   1  14 -12   45.55   12.09
 -14  -1 -12   46.08    5.91
  14   1 -13   15.77    5.11
  14  -1 -13    9.62    4.94
  14  -1  13   10.14    4.38
  14   1  13   10.02    4.66
 -14  -1 -13   19.46    4.96
 -14   1 -13   21.40    4.31
  -1  14 -13   11.68    4.07
   1  14 -13    5.48    5.15
  14   1 -14   13.75    4.32
  14  -1 -14   14.22    5.37
  14  -1  14   11.77    6.64
  14   1  14   12.44    5.94
 -14   1 -14   14.25    5.76
  -1  14 -14   15.03    7.09
   1  14 -14    8.65    5.87
  14   1 -15   11.05    4.61
  14  -1 -15   17.56    6.84
  14   1  15   10.84    8.25
  14  -1  15    6.93    6.51
 -14  -1 -15   26.83    5.37
 -14   1 -15    9.13    3.77
  -1  14 -15   11.31    6.85
   1  14 -15   10.65    3.77
  14   1 -16    8.00    2.66
  14   1  16    8.00    6.16
 -14  -1 -16    8.38    6.27
 -14   1 -16    1.84    1.95
  -1  14 -16    1.72    2.41
   1  14 -16    4.52    3.06
  14  -2   0  159.13   13.63
  14   2   0  187.45   22.46
  -2  14   0  169.06   14.89
   2  14   0  189.44   10.87
  -2 -14   0  174.53   10.52
  14   2  -1    4.45    4.55
  14  -2  -1    7.96    4.05
  14  -2   1   11.32    4.55
  14   2   1    3.46    2.79
  -2  14  -1    8.61    4.21
  -2  14   1    6.69    5.02
   2  14  -1    3.46    2.59
   2  14   1   10.36    4.78
  -2 -14   1   10.15    5.12
  -2 -14  -1   12.28    6.02
  14   2  -2   10.63    5.70
  14  -2  -2    5.97    4.74
  14  -2   2   20.68    6.04
  14   2   2   15.71    6.11
  -2  14  -2   15.25    3.05
  -2  14   2   19.02    5.08
   2  14  -2   16.97    5.85
   2  14   2   26.12    7.02
  -2 -14   2   30.05   10.48
  -2 -14  -2   22.67    5.78
  14   2  -3   41.98    7.65
  14  -2  -3   54.61   11.47
  14  -2   3   48.42    8.55
  14   2   3   54.92   10.24
 -14   2  -3   38.63    9.55
  -2  14  -3   36.41   10.82
   2  14  -3   48.75    9.55
  -2 -14   3   57.68   14.78
  -2 -14  -3   60.75   12.81
 -14  -2   3   50.60   10.03
  14   2  -4  105.88    8.88
  14  -2  -4   77.08    9.89
  14  -2   4   79.60    8.36
  14   2   4   74.76   15.09
 -14   2  -4   74.59   13.02
  -2  14  -4   91.39   14.05
   2  14  -4   99.23   17.45
  -2 -14   4  105.56   20.14
  -2 -14  -4   96.59   21.15
 -14  -2   4   75.10   11.90
  14   2  -5   60.41   12.95
  14  -2  -5   58.77   16.17
  14  -2   5   54.56    8.80
  14   2   5   45.78   11.56
 -14  -2  -5   51.96   11.53
 -14   2  -5   52.13   10.74
  -2  14  -5   50.17    9.31
   2  14  -5   55.68   11.89
  14   2  -5   37.79    6.46
  -2 -14   5   63.77   14.86
  -2 -14  -5   70.20   13.62
 -14  -2   5   51.93    9.67
  14   2  -6    2.24    3.09
  14  -2  -6   -0.88    2.95
  14  -2   6   10.14    8.83
  14   2   6   -1.37    5.29
 -14  -2  -6    2.59    1.92
 -14   2  -6    4.06    1.44
  -2  14  -6    5.01    2.39
   2  14  -6    2.36    2.90
  14   2  -6    3.99    2.70
  -2 -14   6    5.43    2.28
  -2 -14  -6   14.53    5.19
 -14  -2   6    6.49    4.10
  14   2  -7  100.91   23.30
  14  -2  -7   76.19   15.60
  14  -2   7   85.48   19.31
  14   2   7   86.89   14.75
 -14  -2  -7   94.49   16.64
 -14   2  -7  100.97   12.63
  -2  14  -7   84.87   15.94
   2  14  -7   90.17   18.18
  -2 -14  -7   99.92   22.61
 -14  -2   7   77.43   16.59
 -14  -2  -7   78.97   18.52
  14   2  -8   25.34    8.01
  14  -2  -8   16.80    7.23
  14  -2   8   16.99    5.89
  14   2   8   24.37    6.59
 -14  -2  -8   28.61    6.27
 -14   2  -8   31.14    5.23
  -2  14  -8   25.37    7.18
   2  14  -8   21.65    9.49
  -2 -14  -8   25.82    7.32
 -14  -2   8   25.89    6.17
 -14  -2  -8   21.77    5.79
  14   2  -9   84.83   17.76
  14  -2  -9   79.14   20.50
  14  -2   9   83.24   17.30
  14   2   9   76.53   20.99
 -14  -2  -9   79.33   17.03
 -14   2  -9   90.50   16.53
  -2  14  -9   68.52   19.94
   2  14  -9   82.60   11.29
  -2 -14  -9   66.05   20.50
 -14  -2   9   68.81   16.96
 -14  -2  -9   68.96   20.16
  14   2 -10    9.33    5.12
  14  -2 -10    5.08    5.19
  14  -2  10    4.93    5.24
  14   2  10   16.80    6.85
 -14  -2 -10   23.80   10.25
 -14   2 -10   11.48    3.77
  -2  14 -10    7.73    4.31
   2  14 -10   10.06    5.67
 -14  -2  10   13.03    6.24
 -14  -2 -10    3.93    3.31
  14   2 -11   20.93    5.96
  14  -2 -11   21.51    9.32
  14  -2  11   21.67    7.83
  14   2  11   27.95    6.64
 -14  -2 -11   27.49    7.55
 -14   2 -11   25.07    6.63
  -2  14 -11   20.88    6.97
   2  14 -11   27.72    7.92
 -14  -2 -11   28.45    6.89
  14   2 -12   34.47    7.78
  14  -2 -12   44.08   10.04
  14  -2  12   31.80    9.07
  14   2  12   27.06   10.40
 -14  -2 -12   38.07    9.03
 -14   2 -12   24.86    7.66
  -2  14 -12   33.69    8.10
   2  14 -12   43.46   12.21
 -14  -2 -12   34.54    8.53
  14   2 -13    6.42    2.66
  14  -2 -13    1.50    6.15
  14  -2  13    4.99    3.66
  14   2  13    6.18    2.86
 -14  -2 -13   -0.96    3.54
 -14   2 -13    5.27    3.08
  -2  14 -13    3.58    2.29
   2  14 -13    9.43    7.17
  14   2 -14   10.48    3.61
  14  -2 -14    2.28    3.44
  14  -2  14    3.82    3.11
  14   2  14   12.26    3.36
 -14  -2 -14    5.54    2.36
 -14   2 -14    4.49    2.25
  -2  14 -14    3.71    3.15
   2  14 -14    9.07    7.31
  14   2 -15    2.85    3.97
  14  -2 -15    3.79    2.32
  14  -2  15    8.17    4.27
  14   2  15    6.03    5.64
 -14  -2 -15    9.33    5.24
 -14   2 -15    3.46    3.82
  -2  14 -15    3.50    2.60
   2  14 -15    7.16    4.93
  14   2 -16   20.19    5.40
 -14   2 -16   18.67    5.18
  -2  14 -16   32.26    6.61
  14   3   0    7.48    2.86
  14  -3   0    4.98    5.27
  -3  14   0    3.21    1.16
   3  14   0    4.94    3.66
  -3 -14   0    6.29    2.69
 -14  -3   0   10.76    5.71
  14   3  -1  112.78   15.53
  14  -3  -1   89.81   16.86
  14  -3   1   89.43   18.06
  14   3   1  100.09   12.55
  -3  14  -1   87.97   16.91
   3  14  -1  102.37   14.55
   3  14   1  107.16   13.83
  -3 -14   1  109.84   19.09
  -3 -14  -1  116.22   18.90
 -14  -3   1  110.93    8.14
 -14  -3  -1  103.88   18.23
  14   3  -2   -2.74    4.20
  14  -3  -2    2.99    3.81
  14  -3   2    9.51    6.89
  14   3   2    1.79    2.31
  -3  14  -2    0.93    2.54
   3  14  -2    2.07    4.43
  -3 -14   2   -2.50    4.39
  -3 -14  -2    5.20    4.51
 -14  -3   2    5.79    1.91
 -14  -3  -2    7.40    3.78
  14   3  -3   74.48   12.33
  14  -3  -3   70.94   11.59
  14  -3   3   65.92   14.89
  14   3   3   53.07   13.57
 -14   3  -3   54.30    6.48
  -3  14  -3   81.37    9.83
   3  14  -3  105.11    8.10
  -3 -14   3   74.86   12.49
  -3 -14  -3   66.23   11.82
 -14  -3   3   57.62   10.72
 -14  -3  -3   68.88   12.02
  14   3  -4   37.56    8.53
  14  -3  -4   41.91    8.06
  14  -3   4   21.00    5.44
  14   3   4   31.54    6.39
 -14   3  -4   31.00    4.50
  -3  14  -4   31.61    7.94
   3  14  -4   35.40    7.59
  -3 -14   4   33.95    6.14
  -3 -14  -4   39.99    8.87
 -14  -3   4   42.19    6.92
 -14  -3  -4   30.27   10.32
  14   3  -5   27.55    5.61
  14  -3  -5   17.69    6.73
  14  -3   5   17.16    5.70
  14   3   5   13.99    4.20
 -14   3  -5   26.34    4.23
  -3  14  -5   14.82    5.22
   3  14  -5   15.33    3.57
  14   3  -5   10.17    4.54
  -3 -14  -5   19.13    5.69
 -14  -3   5   23.24    6.69
 -14  -3  -5   11.78    6.84
  14   3  -6   73.67   16.87
  14  -3  -6   94.71   20.46
  14  -3   6  104.68   22.19
  14   3   6  227.65   32.43
 -14  -3  -6   82.13   18.89
 -14   3  -6   96.26   17.72
  -3  14  -6   66.81   15.95
   3  14  -6   86.15   17.50
  14   3  -6   64.30   14.75
  -3 -14   6   93.08   20.93
  -3 -14  -6  103.16   20.69
 -14  -3   6  106.54   24.16
 -14  -3  -6   98.93   13.36
  14   3  -7    2.49    3.80
  14  -3  -7    5.96    4.80
  14  -3   7   13.37    6.11
  14   3   7    9.34    3.51
 -14  -3  -7    4.24    2.41
 -14   3  -7    2.99    1.50
  -3  14  -7    7.52    3.13
   3  14  -7    8.38    6.44
  14   3  -7   12.90    6.13
  -3 -14   7    7.86    2.74
  -3 -14  -7   12.95    3.92
 -14  -3   7   12.47    5.46
 -14  -3  -7    6.05    3.90
  14   3  -8   45.55    9.61
  14  -3  -8   54.88   12.02
  14  -3   8   57.71   14.46
  14   3   8   38.94   12.33
 -14  -3  -8   65.58   16.09
 -14   3  -8   45.54    7.25
  -3  14  -8   61.71    7.82
   3  14  -8   55.36   12.55
  -3 -14   8   50.46   11.75
  -3 -14  -8   47.61    9.78
 -14  -3   8   46.96   11.76
 -14  -3  -8   45.81    9.64
  14   3  -9    2.70    3.06
  14  -3  -9    3.66    4.20
  14  -3   9    3.42    6.25
  14   3   9   51.98    8.63
 -14  -3  -9   -1.76    4.06
 -14   3  -9    6.49    3.17
  -3  14  -9   -2.21    4.22
   3  14  -9    3.40    5.40
  -3 -14  -9    6.39    3.26
 -14  -3   9    2.35    2.94
 -14  -3  -9    3.04    3.79
  14   3 -10   28.12    9.60
  14  -3 -10   45.32    9.38
  14  -3  10   24.69    7.94
  14   3  10   14.59    9.19
 -14  -3 -10   28.05    8.23
 -14   3 -10   18.32    4.14
  -3  14 -10   13.62    5.29
   3  14 -10   27.30    7.64
  -3 -14 -10   24.00    5.72
 -14  -3  10   22.97    6.09
 -14  -3 -10   20.65    4.99
  14   3 -11   23.53   14.47
  14  -3 -11   -1.00    5.07
  14  -3  11    9.72    3.86
  14   3  11    8.47    5.38
 -14  -3 -11    9.38    5.07
 -14   3 -11   11.33    4.05
  -3  14 -11   10.44    3.20
   3  14 -11    8.79    6.23
  -3 -14 -11    7.33    3.50
 -14  -3 -11    6.03    2.54
  14   3 -12    8.92    5.90
  14  -3 -12   10.88    6.92
  14  -3  12    9.52    5.96
  14   3  12   18.31    6.20
 -14  -3 -12   18.68    5.34
 -14   3 -12   13.05    4.66
  -3  14 -12   17.40    5.36
   3  14 -12   17.59    7.02
 -14  -3 -12   11.44    5.39
  14   3 -13   43.40    8.69
  14  -3 -13   38.35    8.60
  14  -3  13   40.30   10.05
  14   3  13   28.42   11.04
 -14  -3 -13   56.79   11.53
 -14   3 -13   47.35   11.92
  -3  14 -13   32.49   11.53
   3  14 -13   35.68   10.16
  14   3 -14    7.98    4.54
  14  -3 -14    6.54    5.55
  14  -3  14   10.55    7.00
  14   3  14    4.19    3.88
 -14  -3 -14   12.32    5.91
 -14   3 -14    8.83    2.57
  -3  14 -14   12.33    6.70
   3  14 -14    8.03    6.39
  14   3 -15   20.69    8.43
  14  -3 -15   18.68    6.98
  14  -3  15   26.01    9.66
  14   3  15   17.13    8.70
 -14  -3 -15   22.38    9.32
 -14   3 -15   22.74    7.16
  -3  14 -15   13.91   14.27
   3  14 -15   40.43    7.62
  14   3 -16    3.08    4.17
 -14   3 -16    2.61    9.99
  -3  14 -16    3.36    4.46
  14   4   0    4.26    2.80
  14  -4   0    2.94    4.78
   4  14   0   12.17    6.86
  -4 -14   0    3.64    1.72
 -14  -4   0   -0.29    2.71
  14   4  -1   54.40   12.06
  14  -4  -1   50.82    9.21
  14  -4   1   40.72    8.52
  14   4   1   50.50   10.32
   4  14  -1   47.04   10.37
   4  14   1   47.74   11.73
  -4 -14   1   42.88   10.45
  -4 -14  -1   65.51   14.38
 -14  -4   1   65.42    8.95
 -14  -4  -1   50.05    6.97
  14   4  -2  186.16   31.10
  14  -4  -2  168.01   27.71
  14  -4   2  200.10   29.11
  14   4   2  173.88   21.35
  -4  14  -2  168.65   14.55
   4  14  -2  184.86   18.90
  -4 -14   2  208.99   10.86
  -4 -14  -2  229.47   14.22
 -14  -4   2  210.89   13.53
 -14  -4  -2  235.62   10.29
  14   4  -3   10.41    4.14
  14  -4  -3   18.48    7.64
  14  -4   3   18.80    6.77
  14   4   3   22.84    5.78
  -4  14  -3   17.95    4.46
   4  14  -3   16.75    6.83
  -4 -14   3   20.83    3.89
  -4 -14  -3   23.64    5.63
 -14  -4   3   24.60    4.94
 -14  -4  -3   13.42    4.23
  14   4  -4   13.38    5.76
  14  -4  -4    9.22    5.09
  14  -4   4    6.15    3.94
  14   4   4    2.97    2.08
 -14   4  -4    4.84    2.18
  -4  14  -4    1.51    2.67
   4  14  -4   -1.34    2.91
  -4 -14   4    4.95    3.88
  -4 -14  -4    4.44    1.90
 -14  -4   4   17.79    4.87
 -14  -4  -4   -0.29    3.57
  14   4  -5   67.19   16.15
  14  -4  -5   78.26   13.58
  14  -4   5   72.39   14.88
  14   4   5   59.39   13.88
 -14   4  -5   59.41   10.82
  -4  14  -5   49.54   11.75
   4  14  -5   63.92   13.29
  14   4  -5   60.86   13.83
  -4 -14   5   70.24   15.13
  -4 -14  -5   67.83   12.89
 -14  -4   5   66.55   11.34
 -14  -4  -5   74.11   18.02
  14   4  -6   25.07    6.35
  14  -4  -6   23.94    7.42
  14  -4   6   26.03    8.62
  14   4   6   34.07    7.75
 -14   4  -6   24.22    4.65
  -4  14  -6   42.31    6.97
   4  14  -6   32.94    8.48
  14   4  -6   19.57    5.78
  -4 -14   6   36.92    6.43
  -4 -14  -6   31.46    7.42
 -14  -4   6   33.50    7.10
 -14  -4  -6   31.16    5.92
  14   4  -7   43.58   10.86
  14  -4  -7   59.69    8.98
  14  -4   7   56.49   13.15
  14   4   7   60.63   10.43
 -14  -4  -7   38.17    9.65
 -14   4  -7   48.45   11.31
  -4  14  -7   55.69   10.92
   4  14  -7   56.98   12.87
  14   4  -7   49.59    7.92
  -4 -14   7   51.43    8.90
  -4 -14  -7   62.35   14.69
 -14  -4   7   54.28   11.88
 -14  -4  -7   53.38   10.56
  14   4  -8    1.74    2.60
  14  -4  -8    4.15    4.31
  14  -4   8   -4.38    4.78
  14   4   8    2.23    4.11
 -14  -4  -8    3.93    3.92
 -14   4  -8    5.21    2.35
  -4  14  -8    3.36    3.35
   4  14  -8    5.76    4.90
  14   4  -8    4.25    3.06
  -4 -14   8   17.27    6.24
  -4 -14  -8   -0.06    3.28
 -14  -4   8    9.45    3.66
 -14  -4  -8    4.88    3.17
  14   4  -9   11.46    4.81
  14  -4  -9    8.08    4.54
  14  -4   9   12.55    5.86
  14   4   9   12.31    3.65
 -14  -4  -9    9.33    4.95
 -14   4  -9    4.54    1.49
  -4  14  -9   11.53    6.50
   4  14  -9   12.66    8.90
  14   4  -9    8.17    5.06
  -4 -14   9   11.35    3.43
  -4 -14  -9   11.60    4.03
 -14  -4   9    4.92    3.15
 -14  -4  -9    9.61    4.72
  14   4 -10   50.03    8.25
  14  -4 -10   36.31    8.31
  14  -4  10   16.90    5.52
  14   4  10   43.30   12.74
 -14  -4 -10   31.72    8.45
 -14   4 -10   25.91    9.80
  -4  14 -10   37.82    7.90
   4  14 -10   25.94    9.31
  -4 -14  10   31.61   11.43
  -4 -14 -10   20.47    6.59
 -14  -4  10   29.46    8.55
 -14  -4 -10   36.22    7.72
  14   4 -11    1.37    3.90
  14  -4 -11   13.10    6.75
  14  -4  11    9.03    3.93
  14   4  11   11.52    4.47
 -14  -4 -11   15.56    4.49
 -14   4 -11    8.99    3.03
  -4  14 -11   10.45    4.56
   4  14 -11   10.13    7.92
  -4 -14 -11    8.67    3.49
 -14  -4 -11    8.26    3.68
  14   4 -12    5.26    3.53
  14  -4 -12    4.40    2.90
  14  -4  12    2.44    3.38
  14   4  12   -3.90    4.59
 -14  -4 -12    4.53    2.72
 -14   4 -12    3.42    2.46
  -4  14 -12    1.97    3.84
   4  14 -12    5.44    3.75
 -14  -4 -12    1.84    1.64
  14   4 -13    4.33    3.20
  14  -4 -13    9.89    3.28
  14  -4  13    8.18    5.39
  14   4  13   20.94    6.67
 -14  -4 -13   14.03    4.81
 -14   4 -13   14.23    5.71
  -4  14 -13    6.91    3.75
   4  14 -13   14.87    6.16
  14   4 -14   44.07    9.61
  14  -4 -14   44.38    6.94
  14  -4  14   35.83   12.93
  14   4  14   30.32   11.79
 -14  -4 -14   49.42    8.20
 -14   4 -14   27.31    7.35
  -4  14 -14   29.61    8.24
   4  14 -14   36.11    7.93
  14   4 -15    8.65    4.79
  14  -4 -15   13.30    4.43
  14  -4  15    6.75    3.27
  14   4  15   10.59    4.44
 -14  -4 -15   49.13   17.07
 -14   4 -15   13.07    5.53
  -4  14 -15    9.44    4.98
   4  14 -15   17.31    7.38
  14   4 -16    2.81    3.73
 -14   4 -16   -1.20    4.08
  14   5   0   12.16    6.44
  14  -5   0   17.88    7.08
   5  14   0   12.04    5.25
  -5 -14   0   13.21    4.40
 -14  -5   0   11.16    6.33
  14   5  -1   14.06    5.09
  14  -5  -1   17.63    6.47
  14   5   1   13.67    5.28
  14  -5   1   22.49    6.33
   5  14  -1   33.15    6.64
  -5 -14   1   26.27    7.12
  -5 -14  -1   25.59    6.51
 -14  -5   1   25.86    5.85
  14   5  -2  135.93   13.37
  14  -5  -2  116.76   21.73
  14   5   2  119.58   11.33
  14  -5   2  136.92   14.32
   5  14  -2  103.93   22.68
  -5 -14   2  126.43   24.26
  -5 -14  -2  121.08   25.34
 -14  -5   2  107.14   18.64
 -14  -5  -2  118.32   24.31
  14   5  -3   64.20    7.96
  14  -5  -3   54.37   10.14
  14  -5   3   59.08    9.97
  14   5   3   50.40    9.62
   5  14  -3   50.20   10.80
  -5 -14   3   59.12    9.86
  -5 -14  -3   47.19   10.29
 -14  -5   3   54.51   15.42
 -14  -5  -3   50.76    7.70
  14   5  -4   -0.25    3.68
  14  -5  -4    4.19    4.63
  14  -5   4    7.85    3.33
  14   5   4    7.20    4.36
  -5  14  -4   12.21    3.52
   5  14  -4    8.75    4.32
  -5 -14   4   12.67    5.87
  -5 -14  -4   16.26    4.75
 -14  -5   4    8.06    3.31
 -14  -5  -4   10.89    5.30
  14   5  -5   49.95   12.62
  14  -5  -5   30.94    6.62
  14  -5   5   45.95    9.49
  14   5   5   31.27    9.17
  -5  14  -5   56.29    7.26
   5  14  -5   36.92    8.11
  14   5  -5   53.79   10.44
  -5 -14   5   56.74   12.75
  -5 -14  -5   44.22   10.98
 -14  -5   5   45.36   10.24
 -14  -5  -5   61.98   11.72
  14   5  -6   17.64    5.96
  14  -5  -6   14.08    5.07
  14  -5   6   17.06    4.75
  14   5   6   16.55    6.02
 -14   5  -6   18.56    3.97
  -5  14  -6   13.72    5.22
   5  14  -6    9.45    5.79
  14   5  -6   13.47    7.17
  -5 -14   6   15.88    4.08
  -5 -14  -6   20.08    5.36
 -14  -5   6   13.98    5.75
 -14  -5  -6   26.28    7.39
  14   5  -7   48.69   10.42
  14  -5  -7   73.02    9.82
  14  -5   7  122.05   29.68
  14   5   7   41.68   10.33
 -14   5  -7   51.03   10.16
  -5  14  -7   43.92    7.63
   5  14  -7   57.89   13.45
  14   5  -7   42.71   12.12
  -5 -14   7   38.48   10.52
  -5 -14  -7   49.38    9.69
 -14  -5   7   46.00    9.44
 -14  -5  -7   52.24   10.03
  14   5  -8   11.36    6.87
  14  -5  -8    4.42    3.63
  14  -5   8    5.61    3.57
  14   5   8    5.78    3.36
 -14  -5  -8    4.38    2.29
 -14   5  -8    4.02    1.59
  -5  14  -8    7.48    3.21
   5  14  -8   14.99    8.00
  14   5  -8    7.99    3.79
  -5 -14   8    8.18    4.50
  -5 -14  -8   13.30    3.65
 -14  -5   8    7.02    3.84
 -14  -5  -8    5.88    4.86
  14   5  -9   35.10    9.16
  14  -5  -9   29.90   11.09
  14  -5   9   29.13   11.70
  14   5   9   26.56   11.89
 -14  -5  -9   27.75    9.51
 -14   5  -9   36.52    6.50
  -5  14  -9   32.41    9.02
   5  14  -9   43.22   12.24
  14   5  -9   21.16    6.22
  -5 -14   9   27.63   10.78
  -5 -14  -9   39.09    9.51
 -14  -5   9   34.35    8.62
 -14  -5  -9   33.49    6.92
  14   5 -10   54.38    7.67
  14  -5 -10   40.45   10.36
  14  -5  10   48.98   12.70
  14   5  10   59.85    7.53
 -14  -5 -10   50.23   12.48
 -14   5 -10   49.54   10.50
  -5  14 -10   54.52    8.05
   5  14 -10   53.10   12.29
  14   5 -10   43.57   10.14
  -5 -14  10   50.86   13.11
  -5 -14 -10   49.68   12.21
 -14  -5  10   49.20   13.21
 -14  -5 -10   38.84   11.99
  14   5 -11   19.22    5.97
  14  -5 -11   11.80    4.91
  14  -5  11   22.46    7.48
  14   5  11   13.39    4.31
 -14  -5 -11   20.29    6.24
 -14   5 -11   13.21    9.00
  -5  14 -11   17.66    7.24
   5  14 -11    9.44    6.08
  -5 -14  11   16.47    5.98
  -5 -14 -11   19.08    7.00
 -14  -5 -11   21.75    6.55
  14   5 -12    7.43    3.08
  14  -5 -12    5.06    4.99
  14  -5  12    8.64    4.43
  14   5  12    6.00    3.81
 -14  -5 -12    0.68    4.80
 -14   5 -12    9.54    4.67
  -5  14 -12    5.93    2.32
   5  14 -12    3.57    6.29
 -14  -5 -12    2.24    3.35
  14   5 -13   10.89    3.17
  14  -5 -13   12.10    5.23
  14  -5  13   12.97    6.30
  14   5  13   11.85    5.10
 -14  -5 -13    1.85    3.67
 -14   5 -13    9.40    3.53
  -5  14 -13    3.28    3.59
   5  14 -13    4.63    3.64
  14   5 -14   17.01    6.97
  14  -5 -14   33.43    8.36
  14  -5  14   23.29    7.46
  14   5  14   18.16    8.90
 -14  -5 -14   30.67    7.72
 -14   5 -14   36.69    7.98
  -5  14 -14   22.57   11.74
   5  14 -14   33.48   11.76
  14   5 -15    2.66    2.63
  14  -5 -15   -3.33    4.18
  14  -5  15   -0.33    4.55
  14   5  15    2.10    3.08
 -14   5 -15    7.47    3.11
  -5  14 -15   -0.04    4.38
  14   6   0    1.68    2.20
  14  -6   0    4.55    4.09
   6  14   0    5.42    5.71
  -6 -14   0    5.76    2.45
 -14  -6   0    7.89    4.99
  14   6  -1   34.11   10.57
  14  -6  -1   43.53   12.53
  14  -6   1   62.97   10.51
   6  14  -1   36.82    7.53
  -6 -14   1   61.23   11.36
  -6 -14  -1   56.47   12.82
 -14  -6   1   53.02   10.72
 -14  -6  -1   60.48   13.91
  14   6  -2   32.68    8.27
  14  -6  -2   31.54    8.06
  14  -6   2   20.02    4.90
  14   6   2   27.61    6.98
   6  14  -2   35.51    6.27
  -6 -14   2   32.08    6.58
  -6 -14  -2   40.10    8.73
 -14  -6   2   21.99    5.87
 -14  -6  -2   26.68    7.09
  14   6  -3   28.79    6.90
  14  -6  -3   22.98    5.84
  14   6   3   26.04    5.12
  14  -6   3   19.74    6.70
   6  14  -3   31.09    6.76
  -6 -14   3   52.86    8.71
  -6 -14  -3   37.13    6.36
 -14  -6   3   30.25    4.83
 -14  -6  -3   27.63    7.71
  14   6  -4  180.63   16.63
  14  -6  -4  198.45   28.21
  14  -6   4  188.85   17.78
  14   6   4  180.90   26.45
   6  14  -4  205.55   26.14
  -6 -14   4  157.35   32.70
  -6 -14  -4  209.75   34.82
 -14  -6   4  186.48   25.38
 -14  -6  -4  179.27   19.58
  14   6  -5   61.68   13.30
  14  -6  -5   65.22   12.89
  14  -6   5   70.66   18.35
  14   6   5   52.96   13.36
   6  14  -5   75.11    9.82
  14   6  -5   92.46    9.86
  -6 -14   5   74.75   15.82
  -6 -14  -5   71.04   17.34
 -14  -6   5   78.32   12.90
 -14  -6  -5   82.95   16.63
  14   6  -6   48.40    7.19
  14  -6  -6   50.22   11.36
  14  -6   6   42.35    8.75
  14   6   6   50.65    7.16
  -6  14  -6   35.99    8.55
   6  14  -6   56.24   12.45
  14   6  -6   65.21   16.69
  -6 -14   6   37.51    9.61
  -6 -14  -6   41.03    8.85
 -14  -6   6   32.97   12.68
 -14  -6  -6   44.39   11.13
  14   6  -7    5.09    3.01
  14  -6  -7    7.20    4.82
  14  -6   7    6.19    4.96
  14   6   7   -3.90    4.84
  -6  14  -7    9.49    4.12
   6  14  -7    4.77    6.53
  14   6  -7   12.62    4.85
  -6 -14   7    3.81    3.45
  -6 -14  -7    2.57    1.81
 -14  -6   7    5.14    3.61
 -14  -6  -7    3.27    2.32
  14   6  -8   65.13   14.69
  14  -6  -8   65.08   12.56
  14  -6   8   66.46   19.12
  14   6   8   50.16   15.31
 -14   6  -8   58.74   12.09
  -6  14  -8   56.04   14.36
   6  14  -8   68.73   13.00
  14   6  -8   60.18   14.31
  -6 -14   8   62.04   14.64
  -6 -14  -8   61.06   11.26
 -14  -6   8   76.78   10.06
 -14  -6  -8   69.73   16.35
  14   6  -9    1.40    2.72
  14  -6  -9   -0.96    6.01
  14  -6   9    3.62    3.07
  14   6   9    6.74    5.80
 -14   6  -9    2.92    2.44
  -6  14  -9    1.62    2.74
   6  14  -9    1.41    5.11
  14   6  -9    5.46    5.14
  -6 -14   9   -0.78    3.84
  -6 -14  -9    3.22    1.78
 -14  -6   9    0.88    1.34
 -14  -6  -9    3.40    2.59
  14   6 -10   10.63    7.92
  14  -6 -10   21.32    8.09
  14  -6  10    4.61    5.09
  14   6  10    0.39    5.28
 -14  -6 -10    7.85    3.65
 -14   6 -10    4.09    1.63
  -6  14 -10    2.38    3.02
   6  14 -10   -0.26    2.72
  14   6 -10    2.34    1.85
  -6 -14  10    6.69    4.05
  -6 -14 -10    5.81    4.95
 -14  -6  10    6.81    4.33
 -14  -6 -10    4.23    1.87
  14   6 -11   18.98    5.60
  14  -6 -11   13.46    6.92
  14  -6  11   17.24    6.59
  14   6  11   14.82    5.72
 -14   6 -11   32.46    5.55
  -6  14 -11   12.27    5.40
   6  14 -11   22.89    8.63
  14   6 -11   12.87    6.33
  -6 -14  11   12.89    4.32
  -6 -14 -11    8.85    2.09
 -14  -6 -11   19.81    5.56
  14   6 -12    8.26    2.91
  14  -6 -12   14.88    4.07
  14  -6  12   14.98    6.47
  14   6  12   23.05    5.91
 -14  -6 -12   14.12    4.83
 -14   6 -12   13.38    4.06
  -6  14 -12    7.96    4.55
   6  14 -12   22.99    8.35
 -14  -6 -12    6.98    3.14
  14   6 -13    6.62    3.69
  14  -6 -13   -0.40    4.54
  14  -6  13    8.21    5.41
  14   6  13    8.19    4.07
 -14  -6 -13    2.78    2.46
 -14   6 -13    6.58    2.50
  -6  14 -13    1.92    2.18
   6  14 -13   14.48    8.21
  14   6 -14    8.61    3.24
  14  -6 -14    7.49    4.13
  14  -6  14    3.81    4.84
  14   6  14   -1.15    3.90
 -14  -6 -14   10.57    5.11
 -14   6 -14    5.97    3.82
  -6  14 -14    1.82    2.68
   6  14 -14    8.02    5.09
  14   6 -15   10.39    4.39
  14   6  15    4.54    3.91
 -14   6 -15   10.25    5.10
  -6  14 -15   11.78    5.83
  14   7   0   45.90    9.87
  14  -7   0   46.33   10.72
  -7 -14   0   54.48   11.87
 -14  -7   0   44.09   10.48
  14   7  -1   -1.99    3.45
  14  -7  -1    1.59    2.58
  14   7   1    5.78    3.24
  14  -7   1    7.76    2.62
   7  14  -1    6.32    3.98
  -7 -14   1    8.25    4.07
  -7 -14  -1    7.45    4.30
 -14  -7   1    3.18    3.52
 -14  -7  -1    4.15    3.02
  14   7  -2    6.01    3.94
  14  -7  -2    4.33    3.96
  14  -7   2   11.72    5.09
  14   7   2    9.83    4.18
   7  14  -2   17.97    7.19
  -7 -14   2   17.10    5.23
  -7 -14  -2   15.64    4.94
 -14  -7   2    9.33    5.45
 -14  -7  -2   18.63    7.45
  14   7  -3    3.49    2.71
  14  -7  -3    3.49    4.98
  14  -7   3    4.59    2.93
  14   7   3    3.94    2.69
   7  14  -3    5.32    7.96
  -7 -14   3    7.98    3.96
  -7 -14  -3    4.77    2.21
 -14  -7   3   -1.43    4.21
 -14  -7  -3    7.06    5.71
  14   7  -4   40.27    7.88
  14  -7  -4   62.19    7.47
  14  -7   4   47.40    9.86
  14   7   4   42.48    7.48
   7  14  -4   57.39    9.65
  -7 -14   4   45.56   10.69
  -7 -14  -4   58.72   12.20
 -14  -7   4   59.64   10.67
 -14  -7  -4   48.14   13.56
  14   7  -5   96.73    8.74
  14  -7  -5   72.61   16.14
  14  -7   5   76.99   15.92
  14   7   5   64.35   14.84
   7  14  -5   89.84   14.57
  14   7  -5   92.80   12.68
  -7 -14   5   93.24   21.79
  -7 -14  -5   88.37   19.86
 -14  -7   5   76.40   12.19
 -14  -7  -5   83.24   20.21
  14   7  -6    7.69    3.20
  14  -7  -6   17.37    5.31
  14  -7   6   12.08    4.93
  14   7   6    8.20    4.28
   7  14  -6    5.46    4.43
  14   7  -6   13.13    5.35
  -7 -14   6   17.63    5.69
  -7 -14  -6   10.08    3.96
 -14  -7   6    6.87    3.52
 -14  -7  -6   17.49    5.01
  14   7  -7   22.94    9.42
  14  -7  -7   36.23    8.10
  14  -7   7   27.36    6.76
  14   7   7   30.84   10.50
   7  14  -7   32.70   10.64
  14   7  -7   33.10    7.98
  -7 -14   7   41.39   12.66
  -7 -14  -7   41.83    9.80
 -14  -7   7   36.31    7.82
 -14  -7  -7   30.44    5.83
  14   7  -8   35.90    8.94
  14  -7  -8   46.72    9.27
  14  -7   8   59.49   16.56
  14   7   8   34.82    8.37
  -7  14  -8   31.11   10.99
   7  14  -8   50.94   10.85
  14   7  -8   43.96    8.09
  -7 -14   8   43.90   11.10
  -7 -14  -8   36.37    8.14
 -14  -7   8   34.14   10.38
 -14  -7  -8   42.75   12.15
  14   7  -9   19.66    5.00
  14  -7  -9   31.91    8.69
  14  -7   9   29.06   11.83
  14   7   9   27.43    8.22
  -7  14  -9   17.92    5.48
   7  14  -9   26.28   10.00
  14   7  -9   17.25    6.42
  -7 -14   9   26.74    6.87
  -7 -14  -9   23.97    6.71
 -14  -7   9   17.46    6.62
 -14  -7  -9   23.24    5.46
  14   7 -10   11.47    3.88
  14  -7 -10    2.96    2.84
  14  -7  10   10.40    4.69
  14   7  10    4.11    4.20
 -14   7 -10    6.90    2.34
  -7  14 -10   -0.08    2.63
   7  14 -10    1.25    3.66
  14   7 -10   12.31    4.52
  -7 -14  10    8.71    3.63
  -7 -14 -10    4.98    2.77
 -14  -7  10    4.87    1.94
 -14  -7 -10    6.07    3.41
  14   7 -11   12.38    4.22
  14  -7 -11   15.39    5.11
  14  -7  11   23.49    6.28
  14   7  11    1.41    3.99
 -14   7 -11   11.85    4.57
  -7  14 -11   12.35    3.38
   7  14 -11    2.16    5.71
  14   7 -11   10.54    4.71
  -7 -14  11    9.39    4.08
  -7 -14 -11    7.92    4.61
 -14  -7 -11    6.40    3.44
  14   7 -12    9.49    4.89
  14  -7 -12   26.11    7.48
  14  -7  12   18.16    5.93
  14   7  12    4.41    3.18
 -14  -7 -12   10.65    3.50
 -14   7 -12   26.01    5.57
  -7  14 -12    8.54    6.32
   7  14 -12   15.83    7.66
  14   7 -12   13.22    4.57
 -14  -7 -12    3.54    3.52
  14   7 -13    5.56    2.33
  14  -7 -13    6.28    3.77
  14  -7  13    9.27    5.90
  14   7  13    8.62    3.75
 -14  -7 -13    7.67    4.09
 -14   7 -13   10.52    4.22
  -7  14 -13    8.96    5.35
   7  14 -13    4.62    3.99
  14   7 -14   11.02    3.86
  14  -7 -14    8.06    3.82
  14  -7  14    2.74    2.65
  14   7  14    1.22    3.35
 -14   7 -14    3.23    1.38
  -7  14 -14   -0.23    3.77
   7  14 -14   -1.79    4.64
  14   7 -15    5.19    3.74
  14   7  15    5.21    5.57
 -14   7 -15    3.17    2.16
  -7  14 -15    6.32    4.43
  14   8   0   52.32   12.85
  14  -8   0   66.22   13.84
  -8 -14   0   74.59   11.74
 -14  -8   0   65.38   10.75
  14   8  -1    6.68    3.53
  14  -8  -1   13.39    4.87
  14   8   1   15.87    4.81
  14  -8   1   11.96    5.93
   8  14  -1    9.51    5.08
  -8 -14   1   15.55    6.68
  -8 -14  -1   15.43    4.08
 -14  -8   1    7.61    6.88
 -14  -8  -1    3.34    4.78
  14   8  -2   81.79   14.56
  14  -8  -2  102.70   14.25
  14   8   2   93.54   22.38
  14  -8   2   84.54   20.71
   8  14  -2   87.95   24.51
  -8 -14   2  101.86   16.70
  -8 -14  -2  147.09   26.73
 -14  -8   2   99.90   17.91
 -14  -8  -2   93.63   14.22
  14   8  -3   33.62   10.26
  14  -8  -3   49.41   11.52
  14   8   3   39.85   10.82
  14  -8   3   31.62    7.93
   8  14  -3   29.28   11.93
  -8 -14   3   56.01   11.08
  -8 -14  -3   52.84   10.65
 -14  -8   3   67.92    9.83
 -14  -8  -3   40.21    9.80
  14   8  -4    3.87    4.13
  14  -8  -4    3.63    3.94
  14  -8   4   10.49    6.27
  14   8   4   10.32    4.98
   8  14  -4    4.84    5.34
  14   8  -4    1.18    4.09
  -8 -14   4    4.52    3.16
  -8 -14  -4    8.63    3.21
 -14  -8   4   17.72    6.46
 -14  -8  -4    9.79    5.96
  14   8  -5   16.50    5.58
  14  -8  -5   18.11    4.77
  14  -8   5   23.35    5.67
  14   8   5   16.56    6.13
   8  14  -5   14.99    6.73
  14   8  -5   17.48    5.57
  -8 -14   5   27.91    7.70
  -8 -14  -5   30.41    6.79
 -14  -8   5   19.40    5.27
 -14  -8  -5   20.66    9.12
  14   8  -6   10.18    3.98
  14  -8  -6   24.48    6.72
  14  -8   6    5.58    4.22
  14   8   6    8.11    3.84
   8  14  -6   14.45    6.96
  14   8  -6   10.62    5.39
  -8 -14   6    3.05    2.73
  -8 -14  -6   10.32    3.58
 -14  -8   6   10.70    6.67
 -14  -8  -6   11.75    5.60
  14   8  -7   23.94    9.11
  14  -8  -7   38.90    9.79
  14  -8   7   39.71    8.80
  14   8   7   49.11    8.33
   8  14  -7   49.88   13.77
  14   8  -7   38.47    7.99
  -8 -14   7   46.33   11.33
  -8 -14  -7   41.28    8.85
 -14  -8   7   29.52   12.40
 -14  -8  -7   48.92    8.16
  14   8  -8    3.73    2.78
  14  -8  -8    6.96    4.26
  14  -8   8   -6.61    4.52
  14   8   8    7.64    6.29
   8  14  -8   -1.59    5.51
  14   8  -8    6.84    6.53
  -8 -14   8    5.04    2.60
  -8 -14  -8    6.53    4.15
 -14  -8   8    1.29    3.34
 -14  -8  -8   15.04    4.46
  14   8  -9   26.92    8.37
  14  -8  -9   21.58    5.20
  14  -8   9   32.21   12.68
  14   8   9   15.10    6.02
   8  14  -9   15.46    7.42
  14   8  -9   25.66    7.23
  -8 -14   9   13.18    5.11
  -8 -14  -9   26.62    8.46
 -14  -8   9   24.14    6.41
 -14  -8  -9   20.71    6.53
  14   8 -10    6.80    1.79
  14  -8 -10    0.81    4.08
  14  -8  10    8.91    4.98
  14   8  10   12.63    5.29
   8  14 -10   11.58    4.91
  14   8 -10   19.69    7.27
  -8 -14  10    7.31    3.69
  -8 -14 -10    4.87    2.88
 -14  -8  10   16.18    4.03
 -14  -8 -10    5.80    3.60
  14  -8 -11    7.12    3.18
  14  -8  11    9.99    2.84
  14   8  11    6.63    4.36
   8  14 -11    9.58    5.45
  14   8 -11    9.00    5.59
  -8 -14  11    5.13    4.01
  -8 -14 -11    8.97    4.65
 -14  -8 -11    1.15    2.06
  14  -8 -12    6.78    5.01
  14  -8  12   15.58    7.50
  14   8  12   15.32    4.03
  -8  14 -12    5.26    3.38
   8  14 -12   10.05    5.12
  14   8 -12    8.29    3.63
 -14  -8 -12    5.40    2.92
  14  -8 -13    2.65    3.55
  14  -8  13    9.03    5.16
  14   8  13    5.75    3.18
  -8  14 -13    6.33    3.84
   8  14 -13    3.04    2.41
  14   8 -13    5.28    4.88
  14  -8  14   45.31   15.24
  14   8  14   59.33    8.04
 -14   8 -14   53.79   10.79
  14  -9   0   16.33   10.63
  -9 -14   0    7.81    3.52
 -14  -9   0   10.59    2.05
  14  -9  -1   45.91   10.12
  14  -9   1   42.49    8.47
   9  14  -1   40.02   11.97
  -9 -14   1   62.65   12.45
  -9 -14  -1   52.99   13.19
 -14  -9   1   49.95   11.41
 -14  -9  -1   37.29   11.78
  14  -9  -2   18.24    4.63
  14  -9   2   22.37    6.44
   9  14  -2    9.83    6.27
  -9 -14   2   17.42    7.67
  -9 -14  -2   10.36    4.01
 -14  -9   2   21.72    4.94
 -14  -9  -2   21.66    7.40
  14  -9  -3   61.83   13.34
  14  -9   3   47.23    6.95
   9  14  -3   59.33   15.83
  -9 -14   3   57.63    9.01
  -9 -14  -3   68.20   14.14
 -14  -9   3   52.72   11.31
 -14  -9  -3   55.67   13.51
  14  -9  -4    5.21    2.07
  14  -9   4    5.09    4.07
  14   9   4   11.55    4.69
   9  14  -4    7.40    5.86
  14   9  -4    6.80    4.19
  -9 -14   4    7.76    3.91
  -9 -14  -4   -3.69    5.97
 -14  -9   4    5.43    5.79
 -14  -9  -4    5.21    5.01
  14  -9  -5   30.85   12.59
  14  -9   5   31.00    5.74
  14   9   5   27.10    8.47
   9  14  -5   38.45    9.78
  14   9  -5   34.30    9.13
  -9 -14   5   33.02    8.52
  -9 -14  -5   41.14    9.10
 -14  -9  -5   18.17    9.28
  14  -9  -6   77.13   15.87
  14  -9   6   90.62   19.03
   9  14  -6  129.11   12.21
  14   9  -6   80.09   18.54
  -9 -14   6   87.68   15.83
  -9 -14  -6   99.47   22.70
 -14  -9   6   86.34   16.13
 -14  -9  -6   74.78   21.40
  14  -9  -7   11.90    6.33
  14  -9   7    6.07    2.50
   9  14  -7   13.76    6.30
  14   9  -7   21.01    6.96
  -9 -14   7    6.39    1.87
  -9 -14  -7    4.46    2.99
 -14  -9   7    9.04    4.14
 -14  -9  -7   15.94    6.42
  14  -9  -8   -5.68    4.32
  14  -9   8    4.89    5.20
   9  14  -8  -12.96    7.75
  14   9  -8   -4.08    4.92
  -9 -14   8    1.08    2.46
  -9 -14  -8    5.84    3.52
 -14  -9   8    4.51    2.55
 -14  -9  -8    6.70    3.79
  14  -9  -9    1.42    4.26
  14  -9   9   -0.45    3.93
   9  14  -9   10.42    6.86
  14   9  -9    4.37    5.15
  -9 -14   9    4.04    2.87
  -9 -14  -9    4.77    2.53
 -14  -9   9    4.84    3.21
 -14  -9  -9    2.36    2.18
  14  -9 -10   11.01    7.42
  14  -9  10   13.20    5.90
   9  14 -10    6.91    7.33
  14   9 -10    9.57    5.08
  -9 -14  10    4.39    4.05
  -9 -14 -10    8.63    5.32
 -14  -9  10    6.58    4.13
 -14  -9 -10    3.72    1.93
  14  -9 -11    7.59    6.22
  14  -9  11    2.47    3.30
   9  14 -11   11.01    3.04
  14   9 -11    4.24    3.06
  -9 -14 -11    1.39    2.87
 -14  -9 -11   10.68    4.02
  14  -9 -12    2.61    2.58
  14  -9  12    3.30    3.40
   9  14 -12    5.81    2.42
  14   9 -12    5.22    3.28
  14  -9 -13    9.96    5.81
  14  -9  13   12.47    4.99
  14   9 -13   12.18    5.35
  14 -10   0   13.63    5.13
 -10 -14   0   20.74    5.29
 -14 -10   0   37.57    6.09
  14 -10  -1   24.38    5.07
  14 -10   1   26.88    6.19
  10  14  -1   11.35    5.55
 -10 -14   1   23.05    6.25
 -10 -14  -1   14.49    5.36
 -14 -10   1   24.95    7.37
 -14 -10  -1   15.01    7.06
  14 -10  -2    7.86    3.71
  14 -10   2    6.65    2.73
  10  14  -2   21.00    7.93
 -10 -14   2   15.81    4.99
 -10 -14  -2   11.37    4.63
 -14 -10   2   16.91    7.11
 -14 -10  -2   10.41    5.92
  14 -10  -3   28.92    5.79
  14 -10   3   26.79    6.26
  10  14  -3   26.86    8.83
 -10 -14   3   27.96    6.00
 -10 -14  -3   27.99    6.47
 -14 -10   3   22.44    9.21
 -14 -10  -3   20.14    8.62
  14 -10  -4   38.00    6.55
  14 -10   4   36.23   10.99
  10  14  -4   44.96   16.04
  14  10  -4   58.63   10.32
 -10 -14   4   51.82   10.35
 -10 -14  -4   44.28   10.26
 -14 -10   4   33.92    6.83
 -14 -10  -4   29.73    9.43
  14 -10  -5    9.42    3.03
  14 -10   5   12.93    4.63
  10  14  -5   10.71    6.65
  14  10  -5    7.16    4.04
 -10 -14   5   12.34    6.10
 -10 -14  -5   13.95    5.80
 -14 -10   5   20.37    7.32
 -14 -10  -5    3.90    3.78
  14 -10  -6   13.01    4.06
  14 -10   6   21.63    6.64
  10  14  -6   11.44    4.93
  14  10  -6   43.25   10.37
 -10 -14   6   23.42    4.76
 -10 -14  -6   16.61    6.36
 -14 -10   6   12.52    3.08
 -14 -10  -6   22.98    7.56
  14 -10  -7   24.80    8.51
  14 -10   7   29.71    8.02
  10  14  -7   38.06    8.89
  14  10  -7   38.01    8.72
 -10 -14   7   27.70    7.95
 -10 -14  -7   37.00    9.41
 -14 -10   7   28.10    4.79
 -14 -10  -7   21.18    7.92
  14 -10  -8   31.33    7.57
  14 -10   8   19.96    6.01
  10  14  -8   29.51   11.68
  14  10  -8   22.02   10.72
 -10 -14   8   20.87    9.00
 -14 -10   8   28.43    7.51
 -14 -10  -8   21.17    8.47
  14 -10  -9    8.43    7.17
  14 -10   9    8.37    4.83
  10  14  -9   19.95    6.87
  14  10  -9   19.28    5.87
 -10 -14   9   11.42    4.46
 -10 -14  -9    7.84    3.70
 -14 -10   9   11.15    4.34
 -14 -10  -9    9.19    5.22
  14 -10 -10   10.42    6.34
  14 -10  10    4.50    3.05
  10  14 -10    6.54    3.56
  14  10 -10   12.56    8.71
 -10 -14  10    0.90    1.96
 -10 -14 -10    4.95    2.65
 -14 -10  10    5.78    3.29
 -14 -10 -10   11.30    5.48
  14 -10 -11    2.91    3.19
  14 -10  11   -1.42    4.47
  10  14 -11    5.76    3.62
  14  10 -11    1.04    4.70
 -10 -14 -11    2.70    2.56
 -14 -10 -11    3.47    2.94
  14 -10 -12   16.88    4.71
  14 -10  12   10.00    5.19
  14  10 -12    9.21    4.26
  14 -10  13    6.36    3.45
  14 -11   0   55.81   11.05
 -11 -14   0   68.76   12.59
 -14 -11   0   75.88   12.94
  14 -11  -1    7.39    3.47
  14 -11   1    3.71    2.13
  11  14  -1   10.21    4.15
 -11 -14   1    7.90    3.09
 -11 -14  -1    6.85    6.61
 -14 -11   1    6.40    4.09
 -14 -11  -1    8.15    2.87
  14 -11  -2    3.79    3.59
  14 -11   2    9.49    5.41
  11  14  -2    5.71    3.42
 -11 -14   2    2.21    2.23
 -11 -14  -2    6.14    4.29
 -14 -11   2    3.57    3.09
 -14 -11  -2    7.84    5.01
  14 -11  -3   12.67    5.40
  14 -11   3    3.12    3.94
  11  14  -3   25.12    8.02
  14  11  -3    5.68    2.57
 -11 -14   3    4.13    3.22
 -11 -14  -3    3.06    4.21
 -14 -11   3   26.22    5.20
 -14 -11  -3   10.89    6.41
  14 -11  -4   19.68    5.34
  14 -11   4   28.46    6.21
  11  14  -4   35.31    9.72
  14  11  -4   19.03    7.33
 -11 -14   4   33.57    5.82
 -11 -14  -4   38.59    8.45
 -14 -11   4   30.98    6.89
 -14 -11  -4   32.26    7.70
  14 -11  -5   14.04    5.74
  14 -11   5    9.21    3.25
  11  14  -5   11.60    7.56
  14  11  -5   14.09    4.87
 -11 -14   5   10.02    4.40
 -11 -14  -5   23.22    5.95
 -14 -11   5   16.39    4.25
 -14 -11  -5    3.86    4.07
  14 -11  -6    6.26    3.78
  14 -11   6    4.69    2.25
  11  14  -6    1.18    8.12
  14  11  -6   -0.29    5.02
 -11 -14   6    3.72    2.96
 -11 -14  -6    7.15    3.55
 -14 -11   6    8.70    2.58
 -14 -11  -6    6.76    3.31
  14 -11  -7    5.40    6.18
  14 -11   7    9.21    4.09
  11  14  -7   15.73    6.60
  14  11  -7   21.23    7.58
 -11 -14   7    4.40    2.21
 -11 -14  -7   12.42    3.54
 -14 -11   7   16.26    3.38
 -14 -11  -7    7.81    5.78
  14 -11  -8   -0.43    3.52
  14 -11   8   -2.08    3.54
  11  14  -8   12.80    5.04
  14  11  -8    9.52    6.71
 -11 -14   8    1.96    3.73
 -11 -14  -8    3.12    2.02
 -14 -11   8    2.33    2.38
 -14 -11  -8    2.74    2.26
  14 -11  -9   27.16   10.46
  14 -11   9    7.03    3.48
  11  14  -9   10.00    5.32
  14  11  -9    9.00    8.12
 -11 -14   9    2.80    2.74
 -11 -14  -9   15.02    5.41
 -14 -11   9   11.72    5.43
 -14 -11  -9    4.38    6.70
  14 -11 -10   -2.24    3.40
  14 -11  10   -0.50    3.54
  11  14 -10    8.03    5.53
  14  11 -10    9.15    7.32
 -11 -14  10    2.45    1.34
 -11 -14 -10   -2.14    2.86
 -14 -11 -10   -0.40    2.80
  14 -11 -11   16.29    5.43
  14 -11  11    8.63    4.68
  14  11 -11   14.23    7.81
 -11 -14 -11    9.53    4.86
 -14 -11 -11    5.65    3.70
  14 -11 -12   20.78    5.63
  14 -12   0   -1.27    4.01
 -12 -14   0   16.14    6.62
 -14 -12   0    7.88    4.42
  14 -12  -1   18.77    5.43
  14 -12   1   16.92    5.18
  12  14  -1   34.06    8.53
 -12 -14   1   18.03    5.39
 -12 -14  -1   34.44    8.08
 -14 -12   1   36.60    6.71
 -14 -12  -1   28.84    7.84
  14 -12  -2    7.46    4.78
  14 -12   2   19.84    4.16
  12  14  -2   25.03   12.51
 -12 -14   2   31.33    9.89
 -12 -14  -2   14.69    4.64
 -14 -12   2   16.15    6.80
 -14 -12  -2   14.32    3.58
  14 -12  -3   24.33    8.80
  12  14  -3   34.56   12.21
  14  12  -3   30.08   15.15
 -12 -14   3   50.66    9.00
 -12 -14  -3   33.40    9.69
 -14 -12   3   43.03    8.92
 -14 -12  -3   49.12    8.37
  14 -12  -4   12.91    6.53
  12  14  -4   23.91    9.81
  14  12  -4    6.88    6.06
 -12 -14   4   31.31    6.13
 -12 -14  -4   15.99    7.68
 -14 -12   4   31.91    5.31
 -14 -12  -4   14.01    4.68
  14 -12  -5    5.97    2.53
  12  14  -5    4.34    3.24
  14  12  -5    3.29    3.62
 -12 -14   5    8.32    5.06
 -12 -14  -5    6.07    2.24
 -14 -12   5   -0.05    3.84
 -14 -12  -5    2.09    2.54
  14 -12  -6    2.12    1.94
  12  14  -6    1.74    5.02
  14  12  -6    7.12    4.74
 -12 -14   6    4.78    2.35
 -12 -14  -6    9.25    4.59
 -14 -12   6    8.68    2.96
 -14 -12  -6    2.69    3.06
  14 -12  -7   -0.23    2.44
  12  14  -7    0.97    5.03
  14  12  -7    5.66    3.15
 -12 -14   7    5.06    3.67
 -12 -14  -7    2.83    1.79
 -14 -12   7    2.88    2.80
 -14 -12  -7   -0.52    3.49
  14 -12  -8   12.03    4.90
  12  14  -8    1.66    3.73
  14  12  -8    2.32    3.32
 -12 -14   8    2.77    2.59
 -12 -14  -8    5.85    3.58
 -14 -12   8    7.70    4.38
 -14 -12  -8    6.85    4.16
  12  14  -9    4.68    5.59
  14  12  -9    9.05    5.16
 -12 -14   9    4.95    2.79
 -12 -14  -9    9.13    3.81
 -14 -12   9   10.97    4.01
 -14 -12  -9    6.11    2.65
  14  12 -10    3.40    3.90
 -12 -14  10    5.86    3.20
 -12 -14 -10   12.54    4.51
 -14 -12 -10    6.52    3.88
 -13 -14   0   12.01    3.95
 -14 -13   0    6.53    5.47
  13  14  -1    6.16    6.98
 -13 -14   1    5.83    3.30
 -13 -14  -1    1.70    2.14
 -14 -13   1    1.00    1.94
 -14 -13  -1    5.89    4.41
  13  14  -2    6.69    3.48
  14  13  -2    8.04    3.19
 -13 -14   2   12.75    7.52
 -13 -14  -2   30.09    7.21
 -14 -13   2   25.72    8.20
 -14 -13  -2    7.22    2.62
  13  14  -3   10.71    4.64
  14  13  -3    7.15    4.68
 -13 -14   3   30.98    7.12
 -13 -14  -3   23.01    7.69
 -14 -13   3   28.82    5.80
 -14 -13  -3   23.56    5.72
  13  14  -4    2.04    4.10
  14  13  -4    5.16    5.71
 -13 -14   4    7.63    2.82
 -13 -14  -4    9.19    3.71
 -14 -13   4   -1.97    3.72
 -14 -13  -4    1.94    3.03
  13  14  -5    7.46    5.01
  14  13  -5    8.94    6.25
 -13 -14   5    5.39    2.75
 -13 -14  -5    8.22    2.99
 -14 -13   5    8.38    2.77
 -14 -13  -5    9.86    4.41
  13  14  -6   49.73   10.50
  14  13  -6   25.12    6.37
 -13 -14   6   46.53   12.64
 -14 -13   6   42.96   11.06
 -13 -14  -6   30.56   10.86
 -14 -13  -6   30.78    7.60
  13  14  -7   11.88    5.62
  14  13  -7   11.65    6.80
 -13 -14   7   11.71    5.09
 -14 -13   7    9.64    4.03
 -13 -14  -7    9.31    5.97
 -14 -13  -7    9.22    3.56
 -13 -14   8    6.24    4.75
 -14 -13   8    3.08    1.77
 -13 -14  -8    4.04    2.50
 -14 -13  -8   11.02    4.09
 -13 -14   9    6.01    3.76
 -14 -13   9    5.31    4.71
 -13 -14  -9    6.85    2.89
 -14 -13  -9    8.71    3.88
 -14 -14   0   33.40    8.37
  14  14  -1    4.95    3.34
 -14 -14   1    4.99    2.22
 -14 -14  -1    2.88    3.87
  14  14  -2    7.73    5.67
 -14 -14   2   12.51    6.20
 -14 -14  -2   10.30    5.53
  14  14  -3   11.70    5.49
 -14 -14   3    5.48    4.20
 -14 -14  -3    6.80    3.79
  14  14  -4    4.25    3.30
 -14 -14   4    4.77    3.54
 -14 -14  -4   -0.70    3.85
 -14 -14   5   31.49    7.76
  15   0   0    1.64    4.41
   0  15   0    3.59    2.30
  15   0  -1   67.55   11.74
  15   0   1   66.76   13.71
   0  15  -1   58.20   15.03
   0  15   1   84.15   11.05
  15   0  -2  364.69   34.82
  15   0   2  395.01   30.74
   0  15  -2  412.47   30.37
   0  15   2  451.70   19.63
  15   0  -3  145.65   21.28
  15   0   3  142.97   17.17
   0  15  -3  130.83   15.22
   0  15   3  138.61   18.46
  15   0  -4   16.52    6.47
  15   0   4   13.28    5.86
   0  15  -4    3.93    5.70
   0  15   4    5.12    4.25
  15   0  -5   -3.51    4.88
  15   0   5   -2.03    5.09
 -15   0  -5    0.86    2.36
   0  15  -5    2.37    4.19
  15   0  -6    7.81    4.24
  15   0   6    3.75    4.70
 -15   0  -6    1.69    2.20
   0  15  -6    3.85    3.81
  15   0  -7    5.02    5.57
  15   0   7   -0.44    6.81
 -15   0  -7   11.46    3.32
   0  15  -7    4.27    4.16
  15   0  -8    7.33    8.32
  15   0   8   17.28    7.61
 -15   0  -8   14.33    4.58
   0  15  -8   20.00    6.11
 -15   0   8   23.19    9.65
  15   0  -9    9.29    8.55
  15   0   9    6.03    5.90
 -15   0  -9   11.98    5.98
   0  15  -9    8.09    4.37
 -15   0   9    8.26    4.11
  15   0 -10   76.84   18.48
  15   0  10   75.07   22.19
 -15   0 -10  100.53   18.92
   0  15 -10   90.99   19.87
  15   0 -11   10.43    4.88
  15   0  11   20.76    9.86
 -15   0 -11   19.20    5.85
   0  15 -11    9.19    6.62
  15   0 -12    7.70    6.14
  15   0  12    3.96    4.16
 -15   0 -12    8.39    3.20
   0  15 -12    7.35    4.79
 -15   0 -12    7.77    3.56
  15   0 -13    4.43    4.02
  15   0  13   -1.60    4.53
 -15   0 -13    3.94    1.75
   0  15 -13    2.95    1.92
  15   0 -14   45.78   10.81
  15   0  14   46.25   10.51
 -15   0 -14   37.26   11.78
   0  15 -14   39.95   11.57
 -15   0 -15   -0.60    3.68
   0  15 -15    7.11    4.98
  15   1   0  112.37   11.27
  15  -1   0   93.94   12.64
  -1  15   0   93.86   27.64
   1  15   0  106.09    8.65
  -1 -15   0   94.26   21.39
  15   1  -1   49.49   11.23
  15  -1  -1   45.76    8.76
  15   1   1   38.46    6.32
  15  -1   1   51.01   11.34
  -1  15  -1   40.97    8.70
  -1  15   1   35.94    9.04
   1  15  -1   50.13    7.44
   1  15   1   45.63   12.04
  -1 -15   1   53.60    9.56
  -1 -15  -1   45.47   11.28
  15   1  -2   14.08    6.81
  15  -1  -2   15.31    5.22
  15  -1   2    7.03    3.37
  15   1   2   23.60    6.60
  -1  15  -2   12.01    4.43
  -1  15   2   24.24    4.63
   1  15   2   32.99    5.02
  -1 -15   2   16.81    5.46
  -1 -15  -2   13.70    6.76
  15   1  -3   10.61    3.72
  15  -1  -3    3.55    1.97
  15  -1   3    6.98    2.77
  15   1   3    7.34    4.25
  -1  15  -3    7.58    1.89
   1  15  -3    2.93    1.89
   1  15   3    4.65    4.13
  -1 -15  -3    3.28    3.12
  15   1  -4   64.33    8.84
  15  -1  -4   61.73    9.76
  15  -1   4   62.77   15.73
  15   1   4   47.35   11.13
 -15   1  -4   39.03   11.61
  -1  15  -4   51.43   13.39
   1  15  -4   55.15    7.99
   1  15   4   42.34   13.15
  -1 -15  -4   51.85   14.84
  15   1  -5   43.92   11.28
  15  -1  -5   46.75   10.57
  15   1   5   25.70    8.35
  15  -1   5   45.32   10.79
 -15   1  -5   26.16    8.08
  -1  15  -5   47.63    7.55
   1  15  -5   42.33   11.26
  -1 -15  -5   35.88    9.73
  15   1  -6   63.75   12.43
  15  -1  -6   57.77   16.73
  15  -1   6   63.88   16.03
  15   1   6   55.13   12.54
 -15  -1  -6   65.43   14.24
 -15   1  -6   51.96   10.82
  -1  15  -6   54.77   13.00
   1  15  -6   58.95   15.20
 -15  -1   6   57.15   14.38
  15   1  -7    0.75    4.76
  15  -1  -7    3.65    3.66
  15  -1   7   30.99   13.95
  15   1   7   15.21    8.64
 -15  -1  -7    7.42    3.30
 -15   1  -7   19.68    4.23
  -1  15  -7    7.75    3.15
   1  15  -7    9.70    5.29
 -15  -1   7   12.34    4.73
  15   1  -8   56.00   12.25
  15  -1  -8   56.85   12.72
  15   1   8   56.22   15.43
  15  -1   8   40.38   11.77
 -15  -1  -8   48.78   11.72
 -15   1  -8   49.69   11.94
  -1  15  -8   44.78   14.34
   1  15  -8   56.61    8.72
 -15  -1   8   49.08   11.03
  15   1  -9    9.12    3.14
  15  -1  -9   16.87    8.30
  15   1   9   -0.73    5.76
  15  -1   9    2.27    3.62
 -15  -1  -9   -2.00    3.41
 -15   1  -9    3.94    2.46
  -1  15  -9    4.29    3.89
   1  15  -9    2.84    6.30
 -15  -1   9    1.34    2.91
  15   1 -10   36.08    8.17
  15  -1 -10   41.19    9.32
  15  -1  10   39.55   10.83
  15   1  10   43.31   11.52
 -15  -1 -10  185.67   55.96
 -15   1 -10   46.40    9.65
  -1  15 -10   33.12   12.08
   1  15 -10   40.63   12.07
 -15  -1  10   29.44    7.45
 -15  -1 -10   35.99   11.11
  15   1 -11   35.62    9.41
  15  -1 -11   40.01    7.33
  15   1  11   41.04   11.99
  15  -1  11   39.80   12.47
 -15  -1 -11   44.11    9.49
 -15   1 -11   42.25    9.19
  -1  15 -11   53.71    7.73
   1  15 -11   54.69   10.88
 -15  -1 -11   31.39   10.57
  15   1 -12   20.57    6.50
  15  -1 -12   40.12    9.31
  15   1  12   23.80    7.90
  15  -1  12   16.64    5.63
 -15  -1 -12   13.79    4.66
 -15   1 -12   22.23    7.50
  -1  15 -12   26.30    8.50
   1  15 -12   19.27    5.85
 -15  -1 -12   19.30    7.52
  15   1 -13    0.14    4.85
  15  -1 -13    1.36    2.03
  15  -1  13    7.63    5.20
  15   1  13   13.87    5.03
 -15  -1 -13   11.46    4.39
 -15   1 -13    4.58    2.89
  -1  15 -13    2.85    3.38
   1  15 -13    0.77    4.54
  15   1 -14    9.76    5.87
  15  -1 -14   14.90    5.70
  15  -1  14    5.98    3.42
  15   1  14   15.78    7.04
 -15  -1 -14   10.09    4.31
 -15   1 -14   12.40    5.13
  -1  15 -14   14.89    5.71
   1  15 -14    6.30    4.67
 -15   1 -15    4.60    3.06
  -1  15 -15    8.32    4.53
  15  -2   0    3.94    1.69
  15   2   0    6.04    4.74
  -2  15   0    5.98    3.88
  -2 -15   0    3.42    2.79
  15   2  -1    3.27    2.50
  15  -2  -1   12.16    6.68
  15   2   1    3.83    2.07
  15  -2   1    4.17    3.11
  -2  15  -1    5.16    2.60
   2  15  -1    6.92    3.90
   2  15   1    2.57    4.00
  -2 -15   1   -1.02    2.06
  -2 -15  -1    5.69    3.28
  15   2  -2   15.51    5.90
  15  -2  -2   18.14    6.85
  15  -2   2   16.23    6.29
  15   2   2    8.06    4.07
  -2  15  -2   13.32    3.85
   2  15  -2   16.16    4.36
   2  15   2    6.13    1.90
  -2 -15   2    8.57    5.12
  -2 -15  -2   14.60    5.67
 -15  -2   2   24.11    5.97
  15   2  -3    9.59    3.77
  15  -2  -3    5.83    3.32
  15   2   3    7.71    4.00
  15  -2   3    1.97    2.87
  -2  15  -3    0.88    2.65
   2  15  -3    7.15    5.54
   2  15   3    7.12    3.30
  -2 -15   3    9.46    3.09
  -2 -15  -3    6.50    6.63
 -15  -2   3    3.34    3.47
  15   2  -4   76.21   10.83
  15  -2  -4   83.72   10.86
  15  -2   4   83.23   21.05
  15   2   4   60.76   14.63
 -15   2  -4   82.63   10.20
  -2  15  -4   61.02    8.58
   2  15  -4   62.53   19.53
  -2 -15   4   68.02   14.57
  -2 -15  -4   75.29   15.84
 -15  -2   4   71.00   13.95
  15   2  -5   53.25   12.36
  15  -2  -5   62.09    9.16
  15  -2   5   58.23   15.42
  15   2   5   47.19   10.64
 -15   2  -5   54.21   10.53
  -2  15  -5   49.21   12.44
   2  15  -5   58.21    8.70
  -2 -15   5   68.87   15.23
  -2 -15  -5   61.53   12.27
 -15  -2   5   53.85    7.92
  15   2  -6    9.29    5.48
  15  -2  -6    9.40    3.72
  15  -2   6   11.88    7.24
  15   2   6    6.44    5.90
 -15  -2  -6   12.48    3.42
 -15   2  -6    8.54    3.94
  -2  15  -6    4.93    2.51
   2  15  -6   12.05    6.43
  -2 -15  -6    7.48    3.44
 -15  -2   6    5.48    3.05
 -15  -2  -6   11.52    6.16
  15   2  -7   98.28   21.59
  15  -2  -7  127.26   14.53
  15  -2   7  111.14   29.52
  15   2   7  248.56   33.78
 -15  -2  -7   87.02   20.42
 -15   2  -7  118.94   12.99
  -2  15  -7   72.63   17.73
   2  15  -7   98.06   19.47
  -2 -15  -7   78.83   22.44
 -15  -2   7   96.79   12.64
 -15  -2  -7  102.80   22.59
  15   2  -8  119.41   29.51
  15  -2  -8  126.41   26.85
  15  -2   8  122.55   33.63
  15   2   8  131.72   27.71
 -15  -2  -8  197.60   20.97
 -15   2  -8  153.90   18.64
  -2  15  -8  122.09   27.44
   2  15  -8  114.83   30.00
  -2 -15  -8  128.40   20.19
 -15  -2   8  139.66   16.84
 -15  -2  -8  124.76   24.93
  15   2  -9   29.45    7.25
  15  -2  -9   19.23    8.06
  15  -2   9   13.55    6.18
  15   2   9   13.73    6.94
 -15  -2  -9   13.71    3.19
 -15   2  -9   23.95    6.12
  -2  15  -9   23.35    6.70
   2  15  -9    8.60    5.86
 -15  -2   9   15.60    5.70
 -15  -2  -9   20.05    6.34
  15   2 -10    4.15    2.71
  15  -2 -10   10.72    6.30
  15  -2  10    5.80    3.27
  15   2  10   10.10    4.55
 -15  -2 -10    5.74    2.20
 -15   2 -10    9.71    3.95
  -2  15 -10   12.17    6.05
   2  15 -10    6.85    5.85
 -15  -2 -10    4.74    2.56
  15   2 -11    9.06    4.34
  15  -2 -11    9.67    6.91
  15  -2  11    7.60    4.47
  15   2  11    8.74    6.44
 -15  -2 -11   20.12    4.92
 -15   2 -11   10.86    4.15
  -2  15 -11    8.15    4.02
   2  15 -11   15.69    7.03
 -15  -2 -11   11.05    4.27
  15   2 -12   43.88    7.03
  15  -2 -12    9.43    5.15
  15  -2  12   21.41    8.73
  15   2  12   18.81    7.58
 -15  -2 -12   64.60   20.27
 -15   2 -12   12.99    6.49
  -2  15 -12    6.84    5.65
   2  15 -12   16.38    3.58
 -15  -2 -12   18.39    8.22
  15   2 -13    4.28    2.04
  15  -2 -13    9.71    5.29
  15  -2  13    5.55    6.47
  15   2  13   16.26    7.38
 -15  -2 -13   11.85    4.34
 -15   2 -13    4.70    3.76
  -2  15 -13    3.21    2.45
   2  15 -13    8.87    5.27
  15   2 -14    3.61    4.60
  15  -2 -14   -0.65    4.26
  15  -2  14   10.77    6.84
  15   2  14    8.56    5.46
 -15  -2 -14    5.83    2.95
 -15   2 -14    3.77    2.40
  -2  15 -14    6.24    4.73
   2  15 -14    8.77    7.35
  15   2 -15    5.44    3.00
 -15   2 -15    1.03    2.51
  -2  15 -15    4.70    3.15
  15   3   0  162.21   15.06
  15  -3   0  172.24   16.92
   3  15   0  123.92   25.89
  -3 -15   0  158.99   22.83
 -15  -3   0  173.90   17.75
  15   3  -1   10.78    4.11
  15  -3  -1   10.86    6.47
  15  -3   1    4.68    3.66
  15   3   1   15.53    3.96
   3  15  -1    2.14    4.82
   3  15   1   12.83    5.65
  -3 -15   1    6.25    3.86
  -3 -15  -1   19.31    6.02
 -15  -3  -1    7.19    3.70
  15   3  -2   35.36    5.99
  15  -3  -2   35.22    8.37
  15  -3   2   31.19    8.23
  15   3   2   21.14    5.86
  -3  15  -2   33.38    4.80
   3  15  -2   21.57    7.22
   3  15   2   28.70    6.19
  -3 -15   2   33.68    6.91
  -3 -15  -2   23.73    9.14
 -15  -3   2   22.23    7.32
 -15  -3  -2   35.06    6.95
  15   3  -3   60.22    9.23
  15  -3  -3   70.39   15.52
  15  -3   3   75.43   12.24
  15   3   3   52.44   10.97
  -3  15  -3   54.08   11.71
   3  15  -3   62.21    9.87
  -3 -15   3   67.84   15.72
  -3 -15  -3   79.12   15.30
 -15  -3   3   59.96   13.01
 -15  -3  -3   62.63   13.40
  15   3  -4   67.30   13.34
  15  -3  -4   84.57   10.95
  15  -3   4   83.41   11.73
  15   3   4   77.74   16.91
  -3  15  -4   63.11   14.22
   3  15  -4   69.92   18.58
  -3 -15   4  124.25   28.84
  -3 -15  -4   71.19   18.19
 -15  -3   4  105.49   10.55
 -15  -3  -4   67.63   15.73
  15   3  -5   26.23    5.32
  15  -3  -5   35.52    8.97
  15  -3   5   28.24    9.97
  15   3   5   30.23    7.71
 -15   3  -5   30.18    4.50
  -3  15  -5   25.23    6.25
   3  15  -5   29.62    5.58
  15   3  -5   24.48    4.79
  -3 -15   5   40.05    9.93
  -3 -15  -5   33.79   11.75
 -15  -3   5   26.43    9.65
 -15  -3  -5   32.71    7.61
  15   3  -6    1.76    3.16
  15  -3  -6   -0.23    5.53
  15  -3   6    1.75    2.59
  15   3   6    5.49    4.86
 -15   3  -6   13.12    5.84
  -3  15  -6    4.29    2.34
   3  15  -6   12.11    6.90
  -3 -15   6    4.76    2.34
  -3 -15  -6    7.87    3.03
 -15  -3   6    2.52    4.55
 -15  -3  -6    4.55    4.58
  15   3  -7   30.78    6.27
  15  -3  -7   53.60    9.19
  15  -3   7   30.24   10.54
  15   3   7   35.90   17.19
 -15  -3  -7   31.05    9.72
 -15   3  -7   37.07    8.45
  -3  15  -7   36.06    8.99
   3  15  -7   34.39   12.86
  -3 -15   7   28.47    7.07
  -3 -15  -7   54.21   12.46
 -15  -3   7   39.47   11.37
 -15  -3  -7   35.30    7.09
  15   3  -8   44.69    8.99
  15  -3  -8   49.53   11.50
  15  -3   8   52.38   13.27
  15   3   8   40.81   14.93
 -15  -3  -8   33.57   10.00
 -15   3  -8   35.83    8.42
  -3  15  -8   39.87    7.63
   3  15  -8   42.56    7.90
  -3 -15  -8   48.68   11.86
 -15  -3   8   44.57    6.44
 -15  -3  -8   42.81   10.16
  15   3  -9   32.98    9.19
  15  -3  -9   14.60    6.57
  15  -3   9   47.44    8.41
  15   3   9   52.06   15.21
 -15  -3  -9   42.63    9.34
 -15   3  -9   35.69    6.15
  -3  15  -9   45.68   11.42
   3  15  -9   37.58    7.69
  -3 -15  -9   41.97    8.37
 -15  -3   9   36.64   13.40
 -15  -3  -9   32.71    8.23
  15   3 -10   15.44    4.72
  15  -3 -10   17.63    5.23
  15  -3  10   20.87    6.89
  15   3  10   10.30    4.82
 -15  -3 -10   22.49    6.30
 -15   3 -10    6.05    1.84
  -3  15 -10   22.67    5.66
   3  15 -10    8.02    5.86
  -3 -15 -10   13.35    6.49
 -15  -3  10    7.43    4.17
 -15  -3 -10   19.67    4.86
  15   3 -11    5.44    5.00
  15  -3 -11    5.27    4.57
  15  -3  11    6.01    4.28
  15   3  11    3.68    2.18
 -15  -3 -11   -0.18    3.58
 -15   3 -11    6.13    4.36
  -3  15 -11    6.92    2.65
   3  15 -11    9.23    7.48
 -15  -3 -11    8.36    4.50
  15   3 -12   23.78   10.61
  15  -3  12   29.48   13.22
  15   3  12   16.11    7.25
 -15  -3 -12   29.47    7.50
 -15   3 -12   23.23    4.87
  -3  15 -12   31.09    6.91
   3  15 -12   21.27    6.94
 -15  -3 -12   32.86    9.22
  15   3 -13    9.34    4.48
  15  -3 -13    5.66    3.70
  15  -3  13    6.50    3.62
  15   3  13    7.66    4.24
 -15  -3 -13   14.08    4.40
 -15   3 -13   42.65    4.07
  -3  15 -13   11.38    4.51
   3  15 -13   20.44    7.35
  15   3 -14    4.39    2.47
  15  -3 -14    3.85    5.05
  15  -3  14    9.37    4.51
  15   3  14    7.06    5.92
 -15  -3 -14    3.02    3.96
 -15   3 -14    4.43    2.55
  -3  15 -14    5.90    4.85
   3  15 -14    4.86    3.45
 -15   3 -15    4.14    2.57
  -3  15 -15    2.55    4.31
  15   4   0   28.82    6.69
  15  -4   0   19.32    5.32
   4  15   0   29.38    8.68
  -4 -15   0   32.51    8.83
 -15  -4   0   40.94   10.90
  15   4  -1   47.86   11.11
  15  -4  -1   78.29   11.94
  15  -4   1   62.93    8.57
  15   4   1   64.33    9.47
   4  15  -1   64.78   13.29
   4  15   1   63.99    9.67
  -4 -15   1   63.69   14.03
  -4 -15  -1   71.62   18.30
 -15  -4   1   62.43   13.17
 -15  -4  -1   67.52   11.58
  15   4  -2   37.02    8.45
  15  -4  -2   26.94    6.79
  15  -4   2   28.49    7.18
  15   4   2   24.72    4.32
   4  15  -2   16.29    8.16
   4  15   2   31.56    7.45
  -4 -15   2   27.52    7.48
  -4 -15  -2   32.56    6.28
 -15  -4   2   44.65   10.02
 -15  -4  -2   39.87    9.66
  15   4  -3   45.49    6.45
  15  -4  -3   43.92    9.35
  15   4   3   39.20   10.01
  15  -4   3   30.20    6.02
   4  15  -3   61.58    8.28
  -4 -15   3   34.37   10.69
  -4 -15  -3   46.32   11.77
 -15  -4   3   46.88    9.82
 -15  -4  -3   41.01   10.61
  15   4  -4   34.62    8.84
  15  -4  -4   27.42    9.30
  15  -4   4   33.33    6.96
  15   4   4   33.43    7.76
  -4  15  -4   28.78    8.81
   4  15  -4   23.09    7.68
  -4 -15   4   39.75    9.01
  -4 -15  -4   46.26   12.42
 -15  -4   4   42.25    9.90
 -15  -4  -4   38.50    9.89
  15   4  -5    2.60    2.29
  15  -4  -5    3.81    2.84
  15  -4   5   -2.75    5.20
  15   4   5    2.42    2.89
  -4  15  -5    4.91    1.85
   4  15  -5   -1.21    6.06
  15   4  -5   -1.14    3.04
  -4 -15   5   10.42    5.56
  -4 -15  -5    3.16    2.65
 -15  -4   5    3.72    4.25
 -15  -4  -5    4.73    2.25
  15   4  -6   24.62    6.43
  15  -4  -6   13.59    7.51
  15  -4   6   18.90    5.45
  15   4   6   19.52    4.29
 -15   4  -6   11.15    4.37
  -4  15  -6   15.67    5.21
   4  15  -6   32.23   10.27
  15   4  -6    7.21    3.64
  -4 -15   6   17.14    9.64
  -4 -15  -6   12.35    6.25
 -15  -4   6   16.66    5.92
 -15  -4  -6   19.80    8.35
  15   4  -7    8.17    3.39
  15  -4  -7    4.36    5.12
  15  -4   7    3.86    3.10
  15   4   7   17.56    7.56
 -15   4  -7    3.91    1.69
  -4  15  -7    1.81    3.58
   4  15  -7   13.03    8.09
  15   4  -7    7.25    4.95
  -4 -15   7    7.15    5.78
  -4 -15  -7   10.94    3.98
 -15  -4   7   -0.34    3.74
 -15  -4  -7    6.08    3.61
  15   4  -8    4.08    4.61
  15  -4  -8    7.29    4.47
  15  -4   8    2.93    4.76
  15   4   8    4.75    4.45
 -15  -4  -8    5.46    2.82
 -15   4  -8    7.90    3.51
  -4  15  -8    1.98    1.92
   4  15  -8    8.08    5.49
  -4 -15   8    9.97    4.28
  -4 -15  -8    8.73    4.10
 -15  -4   8    7.48    3.57
 -15  -4  -8   -3.66    3.32
  15   4  -9    3.40    2.91
  15  -4  -9    2.42    3.04
  15  -4   9   -0.29    4.07
  15   4   9   10.32    3.67
 -15  -4  -9    9.33    6.71
 -15   4  -9    4.88    2.85
  -4  15  -9    2.90    2.97
   4  15  -9    8.40    4.32
  -4 -15   9    2.67    2.63
  -4 -15  -9    6.42    3.74
 -15  -4   9    5.39    2.98
  15   4 -10    0.04    2.03
  15  -4 -10   13.45    6.93
  15  -4  10   -1.20    5.57
  15   4  10    4.60    3.58
 -15  -4 -10   14.98    6.88
 -15   4 -10    6.56    2.63
  -4  15 -10    9.25    4.64
   4  15 -10    2.02    4.14
  -4 -15 -10   10.24    4.26
 -15  -4  10   -1.19    2.31
 -15  -4 -10    4.87    3.71
  15   4 -11    5.04    4.24
  15  -4 -11   18.73    6.43
  15  -4  11   15.63    8.00
  15   4  11    7.82    2.88
 -15  -4 -11   21.09    5.17
 -15   4 -11    7.76    4.15
  -4  15 -11   12.27    4.84
   4  15 -11   17.33    5.55
 -15  -4 -11    6.73    3.14
  15   4 -12    0.63    3.71
  15  -4 -12    3.80    4.43
  15  -4  12    3.78    3.78
  15   4  12    6.18    4.97
 -15  -4 -12   13.55    4.65
 -15   4 -12   12.21    4.27
  -4  15 -12    6.03    3.06
   4  15 -12   -0.40    5.23
 -15  -4 -12    0.47    2.67
  15   4 -13   21.88    6.87
  15  -4 -13   43.41    9.35
  15  -4  13   32.36    9.08
  15   4  13   14.99    5.55
 -15  -4 -13   38.94   10.09
 -15   4 -13   25.41    6.88
  -4  15 -13   26.23    9.33
   4  15 -13   33.99   11.22
  15   4 -14   15.89    5.41
  15  -4 -14   19.71    5.58
  15  -4  14   18.71    9.23
  15   4  14   29.93    6.71
 -15  -4 -14   15.64    4.92
 -15   4 -14   19.82    5.37
  -4  15 -14   10.07    6.24
   4  15 -14   25.07    6.64
 -15   4 -15    5.70    5.42
  15   5   0   10.71    5.55
  15  -5   0   25.71    8.63
   5  15   0   31.22    8.48
  -5 -15   0   16.57    6.64
 -15  -5   0   24.44    7.99
  15   5  -1   14.29    6.89
  15  -5  -1   11.87    3.78
  15  -5   1    8.59    2.61
  15   5   1   14.47    5.54
   5  15  -1   20.71    5.66
   5  15   1    5.04    4.65
  -5 -15   1   22.59    4.61
  -5 -15  -1    8.94    4.69
 -15  -5   1   10.17    5.51
 -15  -5  -1   18.21    4.98
  15   5  -2   44.78    9.57
  15  -5  -2   39.07    7.85
  15   5   2   36.10    7.49
  15  -5   2   47.35   10.69
   5  15  -2   47.43    9.63
  -5 -15   2   51.38   12.13
  -5 -15  -2   54.53   10.58
 -15  -5   2   43.61   11.43
 -15  -5  -2   75.90   11.79
  15   5  -3   48.81   17.97
  15  -5  -3   82.75   20.54
  15   5   3   68.25   14.37
  15  -5   3   65.18   13.17
   5  15  -3   67.08   12.97
  -5 -15   3   75.48   14.18
  -5 -15  -3   76.05   14.88
 -15  -5   3   78.92   22.08
 -15  -5  -3   91.58   10.15
  15   5  -4    8.82    5.95
  15  -5  -4    5.46    3.19
  15  -5   4   11.09    7.15
  15   5   4    9.95    4.81
   5  15  -4    7.39    3.36
  -5 -15   4   13.66    7.26
  -5 -15  -4    2.80    4.70
 -15  -5   4   16.88    5.34
 -15  -5  -4   12.60    4.71
  15   5  -5   27.19    7.97
  15  -5  -5   29.22    8.93
  15  -5   5   47.38   12.09
  15   5   5   34.27   11.94
   5  15  -5   50.84   12.03
  15   5  -5   43.69    6.59
  -5 -15   5   38.10   11.62
  -5 -15  -5   55.19   10.37
 -15  -5   5   40.30    8.40
 -15  -5  -5   45.21   11.59
  15   5  -6   54.62    9.98
  15  -5  -6   69.22   15.65
  15  -5   6   52.64   20.75
  15   5   6   58.83   15.35
  -5  15  -6   46.11   14.74
   5  15  -6   47.54   14.52
  15   5  -6   42.09   11.45
  -5 -15   6   46.86   14.28
  -5 -15  -6   55.38   13.50
 -15  -5   6   65.96   14.28
 -15  -5  -6   53.49   14.58
  15   5  -7   28.31    7.47
  15  -5  -7   49.72    8.51
  15  -5   7   27.24    9.45
  15   5   7   30.95    7.85
  -5  15  -7   37.95    7.06
   5  15  -7   15.86    5.85
  15   5  -7   30.90    7.05
  -5 -15   7   36.50    8.56
  -5 -15  -7   34.94    6.19
 -15  -5   7   27.28    5.41
 -15  -5  -7   45.72    8.37
  15   5  -8    5.80    3.32
  15  -5  -8   12.79    4.76
  15  -5   8    5.28    5.12
  15   5   8    7.53    4.26
 -15   5  -8    5.99    2.83
  -5  15  -8    3.28    2.62
   5  15  -8   -3.92    5.93
  15   5  -8    1.24    2.03
  -5 -15   8    1.59    4.10
  -5 -15  -8    2.48    2.37
 -15  -5   8    6.97    4.32
 -15  -5  -8    4.15    2.85
  15   5  -9   13.47    6.07
  15  -5  -9    6.88    5.91
  15  -5   9   24.02   10.78
  15   5   9   17.34    6.17
 -15   5  -9    6.61    3.16
  -5  15  -9   20.90    6.43
   5  15  -9   15.24    8.45
  -5 -15   9   14.31    4.75
  -5 -15  -9   12.72    4.03
 -15  -5   9   15.27    4.38
 -15  -5  -9   18.24    7.45
  15   5 -10   11.04    4.78
  15  -5 -10   13.07    4.28
  15  -5  10    7.54    5.41
  15   5  10   37.19    6.16
 -15  -5 -10   27.22    6.44
 -15   5 -10   17.95    4.95
  -5  15 -10    7.92    2.95
   5  15 -10   19.97    7.72
  -5 -15  10    9.54    4.64
  -5 -15 -10   27.19    8.48
 -15  -5  10   25.00    5.71
 -15  -5 -10   15.21    4.88
  15   5 -11    7.83    4.98
  15  -5 -11   -0.55    4.61
  15  -5  11    2.75    5.15
  15   5  11   -5.85    3.66
 -15  -5 -11    3.45    1.95
 -15   5 -11    3.90    2.69
  -5  15 -11    3.27    2.26
   5  15 -11    2.92    3.11
  -5 -15 -11    1.32    2.05
 -15  -5 -11    2.63    1.73
  15   5 -12    4.64    2.44
  15  -5 -12    8.26    4.75
  15  -5  12    4.46    2.52
  15   5  12    5.76    2.84
 -15  -5 -12    3.40    2.54
 -15   5 -12   -1.05    3.39
  -5  15 -12    4.42    3.97
   5  15 -12    5.82    4.49
 -15  -5 -12   -0.60    3.61
  15   5 -13   10.07    4.35
  15  -5 -13   14.33    5.09
  15  -5  13    5.87    4.95
  15   5  13   12.23    6.08
 -15  -5 -13    7.11    3.75
 -15   5 -13    5.92    2.87
  -5  15 -13    7.61    4.91
   5  15 -13   15.96    6.75
  15   5 -14    5.40    3.85
  15   5  14    0.79    4.51
 -15   5 -14    0.00    1.64
  -5  15 -14   -0.63    3.92
 -15   5 -15   29.68    4.10
  15   6   0    3.31    1.82
  15  -6   0    2.13    4.38
   6  15   0    4.95    2.28
  -6 -15   0    0.54    2.23
 -15  -6   0    1.33    5.59
  15   6  -1   13.63    4.46
  15  -6  -1   13.46    6.55
  15   6   1    8.95    4.30
  15  -6   1   20.46    8.33
   6  15  -1    8.23    4.36
   6  15   1    2.89    4.46
  -6 -15   1    8.10    4.29
  -6 -15  -1    4.23    2.48
 -15  -6   1    1.88    2.66
 -15  -6  -1    8.45    5.22
  15   6  -2   54.94   14.02
  15  -6  -2   51.25   10.56
  15  -6   2   48.59   11.75
  15   6   2   53.19   11.59
   6  15  -2   61.45   14.20
  -6 -15   2   63.34   16.27
  -6 -15  -2   60.50   10.56
 -15  -6   2   63.33   12.05
 -15  -6  -2   55.53   13.93
  15   6  -3   40.65   11.77
  15  -6  -3   63.32   10.93
  15  -6   3   42.24    8.43
  15   6   3   40.40   12.38
   6  15  -3   48.64   10.04
  -6 -15   3   61.83   14.69
  -6 -15  -3   55.51   13.06
 -15  -6   3   64.86   13.58
 -15  -6  -3   54.77   12.42
  15   6  -4    2.39    3.72
  15  -6  -4    3.50    5.86
  15  -6   4   -0.44    5.19
  15   6   4    5.53    3.41
   6  15  -4    1.18    3.55
  -6 -15   4   -4.61    4.44
  -6 -15  -4    2.87    1.95
 -15  -6   4    3.83    4.22
 -15  -6  -4   -4.88    4.65
  15   6  -5   61.16   14.75
  15  -6   5   67.58   11.49
  15   6   5   58.47   15.44
   6  15  -5   70.54   10.88
  15   6  -5   56.50   12.45
  -6 -15   5   66.06   16.88
  -6 -15  -5   63.71   14.23
 -15  -6   5   55.39   13.21
 -15  -6  -5   62.56   17.99
  15   6  -6   41.89    9.27
  15  -6  -6   44.92    9.07
  15  -6   6   59.99   19.70
  15   6   6   30.64   12.35
   6  15  -6   34.64   10.41
  15   6  -6   34.59    9.77
  -6 -15   6   35.47    7.71
  -6 -15  -6   41.78    9.66
 -15  -6   6   39.24    8.93
 -15  -6  -6   32.17   11.09
  15   6  -7   54.54   11.62
  15  -6  -7   44.38   11.64
  15  -6   7   47.93   12.77
  15   6   7   45.15   10.34
   6  15  -7   21.76    6.42
  15   6  -7   35.76   10.05
  -6 -15   7   55.03   14.76
 -15  -6   7   43.77   12.59
 -15  -6  -7   50.36   10.38
  15   6  -8    6.84    5.09
  15  -6  -8   15.53    6.66
  15  -6   8   10.70    5.06
  15   6   8    9.68    4.71
  -6  15  -8    7.93    4.28
   6  15  -8   12.62    7.67
  15   6  -8    8.79    5.64
  -6 -15   8    8.42    3.76
  -6 -15  -8    7.97    5.02
 -15  -6   8   15.88    5.99
 -15  -6  -8    9.21    4.39
  15   6  -9   66.22   21.58
  15  -6  -9   73.28   17.65
  15  -6   9  252.41   30.47
  15   6   9   74.77   14.14
  -6  15  -9   61.01   16.96
   6  15  -9   71.80   21.21
  15   6  -9   71.03   16.44
  -6 -15   9   74.26   18.02
  -6 -15  -9   70.78   18.88
 -15  -6   9   86.14   17.39
 -15  -6  -9   58.02   19.28
  15   6 -10   52.60   12.59
  15  -6 -10   16.58    7.12
  15  -6  10   18.98    6.00
  15   6  10    7.46    4.67
  -6  15 -10   15.78    4.83
   6  15 -10   18.66    7.07
  -6 -15  10   17.96    5.85
  -6 -15 -10   11.47    5.16
 -15  -6  10    4.07    3.95
 -15  -6 -10    2.80    2.35
  15   6 -11    0.95    1.87
  15  -6 -11    5.51    4.87
  15  -6  11    6.39    3.41
  15   6  11    3.98    1.89
 -15  -6 -11    5.33    4.86
 -15   6 -11    4.21    1.94
  -6  15 -11    4.50    4.39
   6  15 -11    9.61    5.16
  -6 -15  11    3.03    3.73
  -6 -15 -11    5.57    3.21
 -15  -6 -11    1.67    3.79
  15   6 -12    0.88    3.65
  15  -6 -12    6.63    4.89
  15  -6  12   11.41    4.55
  15   6  12    3.04    3.72
 -15  -6 -12    5.87    4.32
 -15   6 -12    5.44    3.40
  -6  15 -12    0.47    3.53
   6  15 -12    4.96    4.43
 -15  -6 -12    1.62    1.86
  15   6 -13    5.81    3.24
  15  -6 -13   -0.48    4.54
  15  -6  13   13.11    7.85
  15   6  13    1.49    1.97
 -15  -6 -13    5.64    3.67
 -15   6 -13    4.57    4.06
  -6  15 -13    5.60    4.87
   6  15 -13    6.30    8.95
  15   6 -14    2.59    3.44
  15   6  14   15.23    6.33
 -15   6 -14   10.19    4.96
  -6  15 -14    9.46    4.43
  15   7   0   80.05   16.07
  15  -7   0   92.88   14.12
   7  15   0   75.65   21.39
  -7 -15   0  118.15   23.11
 -15  -7   0   98.04   18.67
  15   7  -1   34.58    7.12
  15  -7  -1   47.65   10.23
  15   7   1   34.37   11.97
  15  -7   1   39.59    8.49
   7  15  -1   41.05   13.89
  -7 -15   1   46.84   10.10
  -7 -15  -1   60.30   11.54
 -15  -7   1   41.06   11.31
 -15  -7  -1   42.96    9.66
  15   7  -2    8.10    4.01
  15  -7  -2   11.58    4.70
  15   7   2   16.34    8.14
  15  -7   2   13.63    4.23
   7  15  -2   14.86    6.78
  -7 -15   2    8.33    5.70
  -7 -15  -2    5.87    3.60
 -15  -7   2   18.73    5.40
 -15  -7  -2    8.71    3.31
  15   7  -3   71.21    8.63
  15  -7  -3   88.67   10.85
  15   7   3   51.02   15.97
  15  -7   3   53.28   14.91
   7  15  -3   68.08   16.33
  -7 -15   3   83.28   15.56
  -7 -15  -3   71.21   11.80
 -15  -7   3   67.65   18.04
 -15  -7  -3   48.61   15.30
  15   7  -4   16.88    6.53
  15  -7  -4   22.67    6.35
  15   7   4   25.77    7.10
  15  -7   4   28.31    6.22
   7  15  -4   35.78    9.94
  15   7  -4   22.69    5.77
  -7 -15   4   21.45    6.19
  -7 -15  -4   32.95    9.43
 -15  -7   4   16.99    8.68
 -15  -7  -4   21.87    8.29
  15   7  -5   -2.26    3.58
  15  -7  -5   -4.81    4.55
  15  -7   5    9.03    5.85
  15   7   5    4.50    3.32
   7  15  -5    5.41    6.62
  15   7  -5    1.21    2.85
  -7 -15   5    3.73    4.37
  -7 -15  -5    5.49    3.00
 -15  -7   5   11.53    4.17
 -15  -7  -5    4.11    3.10
  15   7  -6    0.76    3.08
  15  -7  -6    4.73    2.63
  15  -7   6   -1.54    4.77
  15   7   6    4.27    3.44
   7  15  -6    2.62    4.62
  15   7  -6    4.89    3.51
  -7 -15   6    4.99    4.24
  -7 -15  -6    1.40    2.49
 -15  -7   6    1.21    3.61
 -15  -7  -6    1.98    2.41
  15   7  -7    7.53    3.31
  15  -7  -7   15.68    4.57
  15  -7   7   10.63    6.66
  15   7   7   10.67    6.11
   7  15  -7    7.35    7.15
  15   7  -7    7.93    4.22
  -7 -15   7    8.42    4.56
  -7 -15  -7   17.08    5.37
 -15  -7   7   12.58    5.14
 -15  -7  -7   11.11    6.50
  15   7  -8    1.55    3.08
  15  -7  -8   -0.07    3.00
  15  -7   8    5.49    4.15
  15   7   8    1.11    1.68
   7  15  -8    9.05    4.92
  15   7  -8    4.33    2.35
  -7 -15   8    1.65    2.93
  -7 -15  -8    4.66    2.91
 -15  -7   8    3.06    2.91
 -15  -7  -8   -1.08    3.93
  15   7  -9   10.70    4.07
  15  -7  -9    5.32    3.60
  15  -7   9   11.38    5.02
  15   7   9    6.97    4.26
   7  15  -9    7.97    4.79
  15   7  -9    6.88    7.65
  -7 -15   9    5.94    3.96
  -7 -15  -9    4.90    2.26
 -15  -7   9    5.19    4.32
 -15  -7  -9   11.99    6.31
  15   7 -10    1.02    3.77
  15  -7 -10    2.59    3.80
  15  -7  10   17.91    7.14
  15   7  10    6.27    4.15
   7  15 -10    3.19    3.92
  15   7 -10    6.63    3.36
  -7 -15  10    7.89    4.13
  -7 -15 -10    4.40    4.40
 -15  -7  10    3.93    3.46
 -15  -7 -10    3.63    3.32
  15   7 -11   10.00    5.02
  15  -7 -11   20.36    9.43
  15  -7  11   11.42    4.06
  15   7  11    8.69    3.83
   7  15 -11    5.46    3.41
  -7 -15  11    8.71    5.34
  -7 -15 -11    4.65    3.03
 -15  -7 -11   10.66    6.32
  15   7 -12   21.27    6.16
  15  -7 -12   13.83    9.99
  15  -7  12   10.41    3.95
  15   7  12   11.80    6.05
  -7  15 -12    8.68    5.19
   7  15 -12   11.87    8.90
 -15  -7 -12   26.88    6.63
  15   7 -13   25.64    7.66
  15  -7 -13   21.23    7.88
  15   7  13   36.53   10.20
  -7  15 -13   19.37    7.36
  15   7  14    4.72    3.37
  -7  15 -14    6.11    3.63
  15   8   0   13.18    7.30
  15  -8   0   25.43    8.44
   8  15   0   35.54   10.44
  -8 -15   0   44.68    7.82
 -15  -8   0   29.49    7.14
  15   8  -1   33.68   12.09
  15  -8  -1   28.55    9.97
  15   8   1   23.88    5.56
  15  -8   1   48.97    8.30
   8  15  -1   31.58    8.70
  -8 -15   1   37.57    7.17
  -8 -15  -1   54.95   11.58
 -15  -8   1   46.25   13.50
 -15  -8  -1   42.67    9.39
  15   8  -2    9.00    3.48
  15  -8  -2   17.23    5.60
  15   8   2    8.57    4.85
  15  -8   2   16.74    6.37
   8  15  -2   17.46    6.24
  -8 -15   2    8.39    3.95
  -8 -15  -2   12.87    5.67
 -15  -8   2    6.82    4.57
 -15  -8  -2   11.36    5.21
  15   8  -3   29.80    6.84
  15  -8  -3   37.32    9.48
  15   8   3   21.97    7.41
  15  -8   3   24.58    7.66
   8  15  -3   36.15   12.27
  -8 -15   3   31.30    7.94
  -8 -15  -3   19.96    6.28
 -15  -8   3   31.67    7.31
  15   8  -4   45.02   13.00
  15  -8  -4   83.33   11.85
  15  -8   4   55.71    9.40
  15   8   4   43.86   12.36
   8  15  -4   65.11   19.34
  15   8  -4   66.36   12.71
  -8 -15   4   54.98   10.36
  -8 -15  -4   73.99   13.99
 -15  -8   4   62.29    9.26
 -15  -8  -4   59.63   14.36
  15   8  -5   40.25   13.66
  15  -8  -5   37.50   10.54
  15  -8   5   42.80    8.74
  15   8   5   27.31    8.03
   8  15  -5   31.68    8.40
  15   8  -5   35.44   10.37
  -8 -15   5   31.40    7.68
  -8 -15  -5   21.63    6.65
 -15  -8   5   19.72    5.47
 -15  -8  -5   35.68    9.22
  15   8  -6    0.78    1.91
  15  -8  -6    7.71    4.52
  15  -8   6    3.55    3.49
  15   8   6   -1.49    3.19
   8  15  -6    5.98    3.67
  15   8  -6    4.60    3.24
  -8 -15   6    2.20    2.43
  -8 -15  -6    2.07    3.51
 -15  -8   6    5.50    3.70
 -15  -8  -6    6.15    3.18
  15   8  -7    7.28    4.00
  15  -8  -7    6.66    3.47
  15  -8   7    0.20    3.37
  15   8   7    4.94    3.15
   8  15  -7    7.11    2.11
  15   8  -7    0.42    4.39
  -8 -15   7    5.44    3.33
  -8 -15  -7    2.65    2.38
 -15  -8   7    1.99    4.15
 -15  -8  -7    3.90    2.81
  15   8  -8    9.04    3.86
  15  -8  -8   18.97    6.39
  15  -8   8   11.18    6.79
  15   8   8   12.22    5.32
   8  15  -8   12.40    7.74
  15   8  -8   11.39    5.09
  -8 -15   8   10.65    5.03
  -8 -15  -8   15.66    5.99
 -15  -8   8   11.56    7.40
 -15  -8  -8   17.97    6.42
  15  -8  -9   11.95    7.39
  15  -8   9   -0.05    4.72
  15   8   9    4.69    4.28
   8  15  -9    1.92    3.32
  15   8  -9    5.68    3.67
  -8 -15   9    2.56    1.92
  -8 -15  -9    2.81    3.04
 -15  -8   9    2.82    1.66
 -15  -8  -9   14.09    5.19
  15  -8 -10    4.38    5.62
  15  -8  10    9.32    5.24
  15   8  10    3.71    2.23
   8  15 -10    9.72    8.40
  15   8 -10   -3.47    4.37
  -8 -15  10   -0.43    3.86
  -8 -15 -10    2.73    1.79
 -15  -8 -10    7.10    3.66
  15  -8 -11   16.51    7.31
  15  -8  11    8.09    4.13
  15   8  11    4.68    2.00
   8  15 -11   14.47    7.19
  15   8 -11    2.86    4.56
  -8 -15 -11    9.73    5.65
 -15  -8 -11    3.83    4.65
  15  -8 -12    4.77    5.43
  15  -8  12   10.14    3.48
  15   8  12    6.24    3.06
  15   8  13    2.08    1.84
  15  -9   0   13.36    6.93
   9  15   0   11.05    6.13
  -9 -15   0   16.19    4.45
 -15  -9   0   18.61    5.05
  15  -9  -1    2.94    2.63
  15  -9   1    6.04    3.18
   9  15  -1    7.59    6.16
  -9 -15   1    1.75    2.05
  -9 -15  -1    3.52    3.80
 -15  -9   1   -0.51    4.23
 -15  -9  -1    0.59    2.54
  15  -9  -2    3.32    4.90
  15  -9   2    8.97    4.23
   9  15  -2    6.41    3.58
  -9 -15   2   14.50    6.03
  -9 -15  -2   10.25    4.55
 -15  -9   2    5.29    3.07
 -15  -9  -2    9.84    4.77
  15  -9  -3   49.21    7.17
  15  -9   3   44.44    9.24
   9  15  -3   19.52    6.44
  -9 -15   3   57.27   11.36
  -9 -15  -3   46.97   11.60
 -15  -9   3   33.37   12.64
 -15  -9  -3   33.93    7.76
  15  -9  -4   30.52    7.32
  15  -9   4   30.30   10.18
   9  15  -4   48.15   11.56
  15   9  -4   16.39    5.23
  -9 -15   4   52.62   10.41
  -9 -15  -4   54.96   12.56
 -15  -9   4   38.13   12.86
 -15  -9  -4   38.68    9.42
  15  -9  -5   27.13    5.46
  15  -9   5   31.68    9.10
   9  15  -5   34.97    8.79
  15   9  -5   24.14    9.65
  -9 -15   5   31.84    7.51
  -9 -15  -5   40.82   12.01
 -15  -9   5   33.74    6.56
 -15  -9  -5   30.70    9.70
  15  -9   6    6.30    3.35
   9  15  -6    5.35    5.77
  15   9  -6   15.30    9.27
  -9 -15   6    8.40    3.46
  -9 -15  -6    7.20    4.19
 -15  -9   6   12.16    5.19
 -15  -9  -6   12.29    5.28
  15  -9  -7   27.83   10.97
   9  15  -7   40.43   10.12
  15   9  -7   32.25    9.70
  -9 -15   7   31.56   10.11
  -9 -15  -7   30.83   12.18
 -15  -9   7   32.09   11.95
 -15  -9  -7   48.44   12.57
  15  -9  -8   19.18    9.83
  15  -9   8    5.74    4.10
   9  15  -8   23.56    7.92
  15   9  -8   16.13    6.01
  -9 -15   8   12.86    5.31
  -9 -15  -8   19.54    7.76
 -15  -9   8    7.82    4.01
 -15  -9  -8   11.00    5.15
  15  -9  -9   18.11    6.90
  15  -9   9   12.16    5.26
   9  15  -9   26.05    8.97
  15   9  -9   15.17    8.84
  -9 -15   9   20.89    9.42
  -9 -15  -9   15.17    7.96
 -15  -9   9   27.57    7.76
 -15  -9  -9   14.66    6.40
  15  -9 -10    3.48    5.17
  15  -9  10    8.89    6.35
   9  15 -10    2.82    3.55
  15   9 -10    2.55    3.44
  -9 -15  10    3.46    2.99
  -9 -15 -10    6.31    4.23
 -15  -9 -10    8.63    3.68
  15  -9 -11    6.54    4.68
  15  -9  11    3.08    5.67
  15   9 -11   -3.35    4.40
 -15  -9 -11    5.40    3.25
  15  -9  12    3.31    4.46
  15   9 -12    3.09    2.70
  15 -10   0    7.05    3.04
 -10 -15   0   -0.42    2.30
 -15 -10   0    7.79    4.62
  15 -10  -1    4.85    3.54
  15 -10   1    9.37    3.55
  10  15  -1   16.08    7.61
 -10 -15   1   17.45    6.47
 -10 -15  -1   20.70    8.13
 -15 -10   1   19.03    6.34
 -15 -10  -1    7.44    3.20
  15 -10  -2   15.88    4.74
  15 -10   2   16.67    5.18
  10  15  -2   23.77    7.83
 -10 -15   2   16.17    6.85
 -10 -15  -2   12.94    4.89
 -15 -10   2   15.33    6.30
 -15 -10  -2    6.54    3.03
  15 -10  -3   -1.73    3.54
  15 -10   3    0.00    1.79
  10  15  -3    5.34    3.74
  15  10  -3    3.71    7.16
 -10 -15   3    5.14    5.22
 -10 -15  -3    8.68    4.15
 -15 -10   3    1.26    2.47
 -15 -10  -3   -1.10    3.13
  15 -10  -4    2.23    2.77
  15 -10   4    6.18    3.05
  10  15  -4    5.43    3.28
  15  10  -4    9.00    7.19
 -10 -15   4    4.79    3.21
 -10 -15  -4    1.79    2.69
 -15 -10   4    4.40    2.32
 -15 -10  -4    6.78    4.59
  15 -10  -5   42.84   11.65
  15 -10   5   34.37   11.03
  10  15  -5   64.40   10.79
  15  10  -5   39.81   12.93
 -10 -15   5   45.39   15.13
 -10 -15  -5   49.78   13.29
 -15 -10   5   45.24    9.49
 -15 -10  -5   42.45   16.27
  15 -10  -6    7.25    3.42
  15 -10   6    7.19    2.99
  10  15  -6   60.07    9.36
  15  10  -6   13.96    7.97
 -10 -15   6    7.45    5.02
 -10 -15  -6   14.71    5.27
 -15 -10   6    9.74    5.37
 -15 -10  -6    2.95    3.47
  15 -10  -7    1.21    3.52
  15 -10   7    9.62    4.65
  10  15  -7   -0.68    5.70
  15  10  -7    4.84    5.87
 -10 -15   7    7.59    4.75
 -10 -15  -7    3.73    4.94
 -15 -10   7   13.67    4.17
 -15 -10  -7    8.99    3.38
  15 -10  -8   16.46    6.28
  15 -10   8    2.94    3.70
  10  15  -8   13.34    8.37
  15  10  -8    9.94    7.21
 -10 -15   8    6.59    2.72
 -10 -15  -8    6.67    3.98
 -15 -10   8   13.44    3.40
 -15 -10  -8   10.21    6.33
  15 -10  -9    2.93    3.74
  15 -10   9    3.91    2.26
  10  15  -9   -0.08    4.07
  15  10  -9    4.88    4.80
 -10 -15   9    1.12    3.65
 -10 -15  -9    0.63    1.87
 -15 -10   9    3.09    2.81
 -15 -10  -9    4.00    3.85
  15 -10 -10    1.15    4.30
  15 -10  10    7.70    3.13
  15  10 -10   12.05    5.43
 -10 -15  10   14.12    3.84
 -10 -15 -10    5.11    1.96
 -15 -10 -10    8.85    3.23
  15 -10 -11    6.75    6.50
  15 -10  11   20.55    7.42
  15  10 -11   12.04    8.29
  15 -11   0    6.82    4.32
 -11 -15   0   11.04    4.60
 -15 -11   0    1.15    2.19
  15 -11  -1   32.16   10.54
  15 -11   1   45.84   12.75
  11  15  -1   40.56   10.68
 -11 -15   1   45.19   13.08
 -11 -15  -1   52.58   12.57
 -15 -11   1   45.22   14.13
 -15 -11  -1   30.93   13.22
  15 -11  -2   10.66    5.36
  15 -11   2   19.85    4.42
  11  15  -2   22.55    9.25
 -11 -15   2   41.76    8.50
 -11 -15  -2   20.46    8.73
 -15 -11   2   26.14    8.90
 -15 -11  -2   15.08    6.70
  15 -11  -3    6.11    4.29
  15 -11   3   12.12    5.20
  11  15  -3    9.95    7.99
  15  11  -3    6.57    4.24
 -11 -15   3   23.79    6.38
 -11 -15  -3   13.59    4.67
 -15 -11   3   17.70    5.77
 -15 -11  -3   13.51    4.96
  15 -11  -4   13.76    5.38
  15 -11   4   12.82    6.09
  11  15  -4    9.48    3.94
  15  11  -4   13.22    5.64
 -11 -15   4    9.49    4.05
 -11 -15  -4   12.49    4.35
 -15 -11   4    9.16    3.22
 -15 -11  -4    6.58    3.08
  15 -11  -5    4.63    3.89
  15 -11   5    6.12    2.05
  11  15  -5   10.29    8.08
  15  11  -5   -0.48    5.66
 -11 -15   5    5.40    2.60
 -11 -15  -5    3.66    3.70
 -15 -11   5   13.75    5.03
 -15 -11  -5    4.40    4.83
  15 -11  -6    5.43    3.37
  15 -11   6    1.43    2.38
  11  15  -6    5.46    5.37
  15  11  -6    5.42    6.37
 -11 -15   6    6.12    3.47
 -11 -15  -6    9.47    3.81
 -15 -11   6   -1.12    3.51
 -15 -11  -6    4.98    2.48
  15 -11  -7    1.39    2.59
  15 -11   7    3.00    2.23
  11  15  -7    8.73    4.41
  15  11  -7    3.45    5.68
 -11 -15   7    1.63    2.31
 -11 -15  -7    6.91    4.44
 -15 -11   7    7.30    4.14
 -15 -11  -7    3.93    2.17
  15 -11  -8    2.97    3.36
  15 -11   8    1.16    2.95
  11  15  -8    5.12    5.83
  15  11  -8    3.57    6.15
 -11 -15   8    7.05    3.45
 -11 -15  -8    1.98    3.70
 -15 -11   8   12.05    3.57
 -15 -11  -8    4.26    2.67
  15 -11  -9    0.48    3.91
  15 -11   9    5.48    2.91
  15  11  -9    3.65    5.69
 -11 -15   9    2.22    3.00
 -11 -15  -9    1.85    1.84
 -15 -11   9    2.24    1.94
 -15 -11  -9    7.06    4.00
  15 -11 -10    6.81    3.39
 -11 -15  10    3.46    2.68
 -11 -15 -10    3.52    1.74
 -15 -11 -10   -1.89    3.07
  15 -12   0    2.38    3.93
 -12 -15   0    6.41    3.89
 -15 -12   0    8.79    3.49
  15 -12  -1    7.36    5.67
  12  15  -1   19.01    4.00
 -12 -15   1   19.33    4.90
 -12 -15  -1   12.26    5.48
 -15 -12   1    6.60    1.76
 -15 -12  -1   13.91    5.09
  15 -12  -2   36.13    6.99
  12  15  -2   29.19   12.25
  15  12  -2   22.02    8.08
 -12 -15   2   33.67   10.54
 -12 -15  -2   23.80    7.52
 -15 -12   2   32.35   11.55
  15 -12  -3   -0.79    3.40
  12  15  -3    7.14    4.60
  15  12  -3   -1.82    5.48
 -12 -15   3    6.34    3.14
 -12 -15  -3   15.05    7.21
 -15 -12   3   10.20    3.13
 -15 -12  -3    6.25    3.76
  15 -12  -4   10.26    4.98
  12  15  -4    9.21    5.00
  15  12  -4    5.86    3.81
 -12 -15   4   -0.54    3.65
 -12 -15  -4    6.49    3.18
 -15 -12   4    1.88    2.90
 -15 -12  -4   10.19    3.11
  15 -12  -5   25.76    7.49
  12  15  -5   43.64    9.43
  15  12  -5   17.13    7.81
 -12 -15   5   26.22    7.84
 -12 -15  -5   28.67    9.02
 -15 -12   5   33.10    6.80
 -15 -12  -5   32.98    7.06
  15 -12  -6    6.67    4.86
  12  15  -6    1.44    4.90
  15  12  -6    4.75    6.28
 -12 -15   6    5.31    4.07
 -12 -15  -6   -0.47    4.20
 -15 -12   6    4.38    4.54
 -15 -12  -6    9.53    4.74
  15  12  -7   15.15    6.02
 -12 -15   7    9.31    6.33
 -12 -15  -7    6.71    6.24
 -15 -12   7   22.52    8.30
 -15 -12  -7   20.57    5.78
 -12 -15   8   -0.28    2.58
 -12 -15  -8    1.44    1.90
 -15 -12   8   -0.37    3.65
 -15 -12  -8    4.12    2.77
 -12 -15   9    3.93    3.14
 -15 -12   9   12.09    4.39
 -13 -15   0    7.82    3.60
 -15 -13   0    3.49    1.95
  13  15  -1    6.87    3.59
 -13 -15   1   -2.63    3.61
 -13 -15  -1    7.67    4.83
 -15 -13   1    7.74    1.91
 -15 -13  -1    2.09    2.29
  13  15  -2   10.50    5.12
  15  13  -2    6.88    4.69
 -13 -15   2    5.09    2.99
 -13 -15  -2    6.90    3.59
 -15 -13   2    6.98    4.95
 -15 -13  -2   10.30    5.07
  13  15  -3   14.25    5.88
  15  13  -3    9.85    5.24
 -13 -15   3   10.76    5.12
 -13 -15  -3    9.49    4.04
 -15 -13   3   11.90    3.28
 -15 -13  -3    6.21    5.08
 -13 -15   4    4.96    4.49
 -13 -15  -4    4.48    3.27
 -15 -13   4    4.05    2.01
 -15 -13  -4    8.71    3.93
 -13 -15   5   13.15    5.19
 -15 -13   5    9.38    4.03
  16   0   0   42.65    8.94
   0  16   0   32.11    8.19
  16   0  -1   10.73    6.29
  16   0   1   14.23    7.95
   0  16  -1    6.39    3.62
   0  16   1    4.54    3.17
  16   0  -2    2.13    4.95
  16   0   2    4.89    4.01
   0  16  -2   25.68   11.83
   0  16   2    3.58    2.89
  16   0  -3    3.79    4.44
  16   0   3    1.21    5.61
   0  16  -3    3.16    2.55
  16   0  -4   12.33    5.71
  16   0   4    7.53    5.89
   0  16  -4    2.20    3.28
  16   0  -5    1.28    6.56
  16   0   5    4.70    6.48
   0  16  -5    9.21    4.35
  16   0  -6   48.56   10.33
  16   0   6   38.64   11.49
 -16   0  -6   31.07    8.93
   0  16  -6   38.85    9.61
  16   0  -7   77.95   11.11
  16   0   7   73.45    9.04
 -16   0  -7   56.58   17.09
   0  16  -7   72.26   10.60
 -16   0   7   46.98   14.53
  16   0  -8   10.62    6.32
  16   0   8   11.27    7.08
 -16   0  -8   12.29    4.55
   0  16  -8    2.94    4.66
 -16   0   8    6.57    3.12
  16   0  -9    8.95    5.64
  16   0   9   20.63    6.74
 -16   0  -9   16.74    5.63
   0  16  -9   16.90    5.62
 -16   0   9    8.63    4.32
  16   0 -10    8.86    4.29
  16   0  10    4.11    5.38
 -16   0 -10    7.94    3.16
   0  16 -10    3.22    2.83
  16   0 -11   46.40    7.07
  16   0  11   39.05    8.20
 -16   0 -11   40.50    9.21
   0  16 -11   29.17    8.85
  16   0 -12   20.33    7.83
  16   0  12   12.07    6.55
 -16   0 -12   16.55    6.50
   0  16 -12   18.22    7.36
 -16   0 -12   20.80    6.64
  16   0 -13    5.66    5.01
  16   0  13   -1.54    4.26
 -16   0 -13    6.44    3.60
   0  16 -13    3.17    3.13
 -16   0 -14    0.36    4.39
  16  -1   0    0.46    6.70
  16   1   0    3.98    2.71
  -1  16   0    1.79    2.25
   1  16   0   -1.37    3.63
  16   1  -1   68.23   18.68
  16  -1  -1   79.23   18.63
  16   1   1   81.45   13.11
  16  -1   1   92.34   11.51
  -1  16  -1   79.81   11.30
   1  16  -1   78.27   11.26
   1  16   1  116.41    9.91
  16   1  -2   10.07    5.41
  16  -1  -2    6.50    3.11
  16   1   2    9.44    6.42
  16  -1   2    0.71    3.59
  -1  16  -2   -1.45    3.52
   1  16  -2   -2.82    4.84
   1  16   2    0.68    3.20
  16  -1  -3  109.21   22.64
  16   1  -3  102.99   18.35
  16   1   3  107.98   24.96
  16  -1   3   84.52   18.71
  -1  16  -3   90.23   19.29
   1  16  -3   98.77   20.23
   1  16   3   93.68   12.60
  16  -1  -4   12.72   15.23
  16   1  -4    4.52    4.47
  16  -1   4    7.99    5.60
  16   1   4    5.85    5.28
  -1  16  -4    1.97    1.88
   1  16  -4    6.65    3.50
   1  16   4   11.94    5.73
  16   1  -5    7.53    3.33
  16  -1  -5   -0.37    5.51
  16   1   5    5.22    2.93
  16  -1   5   11.90    5.65
 -16   1  -5    0.69    2.06
  -1  16  -5    6.88    4.05
   1  16  -5    0.08    5.23
 -16  -1   5    2.82    2.39
  16  -1  -6   10.48    7.64
  16  -1   6   20.58    7.52
  16   1   6   11.38    6.79
 -16   1  -6    7.59    5.02
  -1  16  -6   11.49    4.78
   1  16  -6   12.84    7.16
 -16  -1   6   12.75    5.56
  16   1  -7   40.73    7.98
  16  -1  -7   40.20    7.40
  16  -1   7   20.52    5.35
  16   1   7   45.65    8.39
 -16  -1  -7   27.96    8.39
 -16   1  -7   35.35   10.28
  -1  16  -7   34.44    9.31
   1  16  -7   31.62    8.63
 -16  -1   7   40.99    7.68
  16   1  -8   -4.57    4.39
  16  -1  -8    5.15    3.39
  16   1   8   -2.93    6.89
  16  -1   8   10.64    6.34
 -16  -1  -8    7.78    5.16
 -16   1  -8   10.07    2.39
  -1  16  -8    2.63    3.19
   1  16  -8    1.30    1.51
 -16  -1   8   -0.45    3.43
  16   1  -9   56.10   14.98
  16  -1  -9   71.54   14.02
  16  -1   9   76.44   16.73
  16   1   9   87.30    9.97
 -16  -1  -9   71.11   16.92
 -16   1  -9  104.61   13.96
  -1  16  -9   64.27   18.39
   1  16  -9  119.90   25.14
 -16  -1   9   63.12   16.86
 -16   1   9   65.31   19.82
 -16  -1  -9   56.80   17.39
  16   1 -10   18.30    4.77
  16  -1 -10   11.18    4.82
  16  -1  10   11.09    6.03
  16   1  10    0.16    5.01
 -16  -1 -10    7.30    2.85
 -16   1 -10   13.27    5.08
  -1  16 -10    5.80    3.72
   1  16 -10    4.38    3.93
 -16  -1 -10    2.79    3.28
  16   1 -11   -0.79    4.14
  16  -1 -11    2.13    2.45
  16  -1  11    4.10    6.18
  16   1  11   11.03    7.76
 -16  -1 -11    2.50    3.80
 -16   1 -11    2.86    2.57
  -1  16 -11    4.90    3.27
   1  16 -11   13.31    6.80
 -16  -1 -11    4.19    2.84
  16   1 -12    7.58    4.73
  16  -1 -12    8.79    9.05
  16  -1  12    4.12    2.95
  16   1  12   -1.18    5.29
 -16  -1 -12    4.20    2.29
 -16   1 -12    3.31    1.74
  -1  16 -12   17.83    6.59
   1  16 -12    6.08    4.26
 -16  -1 -12    3.29    3.38
  16   1 -13   22.27    9.49
  16  -1 -13   23.84    7.25
  16   1  13   39.19    7.60
  16  -1  13   10.58    4.51
 -16  -1 -13   60.94   25.47
 -16   1 -13   26.14    6.84
  -1  16 -13   29.75    8.30
   1  16 -13   38.07    7.50
 -16   1 -14    3.52    2.48
  16   2   0   46.86   16.73
  16  -2   0   42.24    8.83
   2  16   0   56.92    7.36
  -2 -16   0   53.02   11.97
 -16  -2   0   41.29    9.82
  16  -2  -1   53.44   13.87
  16   2  -1   61.93   16.07
  16   2   1   68.94   14.99
  16  -2   1   73.51   11.30
   2  16  -1   64.10    8.35
   2  16   1   55.51   14.65
  -2 -16   1   72.17   12.98
  -2 -16  -1   71.55   18.14
 -16  -2   1   98.19   15.65
 -16  -2  -1   70.58    7.60
  16   2  -2   13.93    9.49
  16  -2  -2   11.36    4.29
  16  -2   2   18.97    6.09
  16   2   2   11.63    6.78
  -2  16  -2    9.63    4.84
   2  16  -2   10.98    4.70
   2  16   2   13.70    4.87
  -2 -16   2    7.51    8.55
  -2 -16  -2    8.98    4.40
 -16  -2   2   11.16    6.77
 -16  -2  -2   12.13    6.47
  16   2  -3   45.15   13.55
  16  -2  -3   33.42   11.49
  16   2   3   26.76    7.41
  16  -2   3   36.40    9.11
  -2  16  -3   27.86    7.93
   2  16  -3   40.39   14.29
   2  16   3   28.68   10.05
  -2 -16   3   45.13   12.49
  -2 -16  -3   43.41   11.34
 -16  -2   3   30.46   12.66
 -16  -2  -3   28.73   12.41
  16   2  -4   12.92    5.80
  16  -2  -4    6.35    5.60
  16   2   4   -0.49    4.28
  16  -2   4    7.08    5.95
  -2  16  -4    3.82    2.27
   2  16  -4    5.73    2.76
   2  16   4   15.66    6.56
  -2 -16   4    6.61    4.09
  -2 -16  -4    4.68    3.69
 -16  -2   4   21.25    6.03
 -16  -2  -4    6.07    6.41
  16   2  -5   49.23   11.21
  16  -2  -5   59.46   16.09
  16  -2   5   52.80   10.79
  16   2   5   64.82   17.39
 -16   2  -5   41.59   10.31
  -2  16  -5   69.54   20.63
   2  16  -5   40.06   12.92
  -2 -16  -5   50.47   15.76
 -16  -2   5   47.94   11.80
 -16  -2  -5   44.02   10.39
  16   2  -6   52.53   14.10
  16  -2  -6   50.06   10.65
  16  -2   6   39.56   12.17
  16   2   6   51.85   11.53
 -16   2  -6   53.76   13.96
  -2  16  -6   33.26   11.84
   2  16  -6   59.37   13.59
  -2 -16  -6   50.11   16.13
 -16  -2   6   58.26   11.78
 -16  -2  -6   50.46   13.80
  16   2  -7   23.09    7.49
  16  -2  -7   10.84    5.54
  16  -2   7   30.34    9.64
  16   2   7   24.62    7.90
 -16   2  -7   14.23    3.75
  -2  16  -7   12.09    4.14
   2  16  -7   16.71    6.26
  -2 -16  -7   14.84    6.64
 -16  -2   7   15.37    5.74
 -16  -2  -7   12.06    7.05
  16   2  -8    2.84    3.88
  16  -2  -8    6.50    5.70
  16  -2   8   21.65    8.91
  16   2   8    9.00    6.31
 -16  -2  -8    5.82    4.16
 -16   2  -8   10.42    2.98
  -2  16  -8    6.57    3.27
   2  16  -8   16.07    8.74
 -16  -2   8    5.26    2.92
 -16  -2  -8    5.42    3.16
  16   2  -9    1.28    2.72
  16  -2  -9    6.96    2.33
  16  -2   9   12.86    6.32
  16   2   9    2.41    4.57
 -16  -2  -9    5.92    2.18
 -16   2  -9    5.93    2.51
  -2  16  -9    9.92    4.99
   2  16  -9    4.31    2.88
 -16  -2   9    8.26    4.60
 -16  -2  -9    2.21    2.67
  16   2 -10    4.68    3.63
  16  -2 -10    3.89    3.35
  16  -2  10    7.78    3.57
  16   2  10   11.55    4.75
 -16  -2 -10    5.32    3.04
 -16   2 -10   12.79    5.31
  -2  16 -10    3.53    2.93
   2  16 -10    5.23    4.78
 -16  -2 -10    8.04    5.54
  16   2 -11   44.48    6.48
  16  -2 -11   30.71   10.46
  16  -2  11   33.47    9.87
  16   2  11   42.62    8.41
 -16  -2 -11   28.45    7.56
 -16   2 -11   35.12    8.14
  -2  16 -11   22.09    4.25
   2  16 -11   44.64    8.70
 -16  -2 -11   29.09    8.00
  16   2 -12    9.00    4.33
  16  -2 -12   26.40   14.17
  16  -2  12    3.93    3.51
  16   2  12    8.45    4.42
 -16  -2 -12    5.00    2.58
 -16   2 -12    8.92    4.15
  -2  16 -12    6.24    3.24
   2  16 -12    5.94    4.18
 -16  -2 -12    1.54    2.78
  16   2 -13   14.05    3.76
  16  -2 -13    6.15    4.24
  16  -2  13    7.60    6.07
  16   2  13   10.65    6.93
 -16  -2 -13   10.01    2.94
 -16   2 -13    8.74    4.98
  -2  16 -13   11.89    4.63
   2  16 -13   21.87   12.48
 -16   2 -14    8.23    3.84
  16   3   0   22.66    7.46
  16  -3   0   30.55    9.63
   3  16   0   31.56    7.10
  -3 -16   0   60.72   14.74
 -16  -3   0   42.37   10.61
  16   3  -1    3.80    4.80
  16  -3  -1    2.12    3.62
  16   3   1    8.78    4.66
  16  -3   1    6.88    3.71
   3  16  -1   -0.58    2.50
   3  16   1    3.26    2.96
  -3 -16   1    9.87    6.71
  -3 -16  -1   10.25    4.47
 -16  -3   1   -0.22    4.47
 -16  -3  -1   -1.06    4.30
  16   3  -2   23.46    8.26
  16  -3  -2   32.63    8.24
  16  -3   2   41.52   11.88
  16   3   2   16.57    6.96
   3  16  -2   25.34    9.53
   3  16   2   39.39    6.43
  -3 -16   2   32.47   10.44
  -3 -16  -2   38.81   12.23
 -16  -3   2   24.41    4.70
  16   3  -3   51.40    8.18
  16  -3  -3   53.13   10.56
  16  -3   3   42.94   10.91
  16   3   3   44.99   12.57
   3  16  -3   51.72   13.22
   3  16   3   51.53    8.48
  -3 -16   3   58.68   17.18
  -3 -16  -3   55.46   10.43
 -16  -3   3   74.18   12.07
 -16  -3  -3   32.65    8.89
  16   3  -4   35.74    9.08
  16  -3  -4   21.85    9.85
  16  -3   4   39.95    9.93
  16   3   4   36.80    8.41
  -3  16  -4   24.40    5.74
   3  16  -4   57.30   11.36
  -3 -16   4   30.05    8.32
  -3 -16  -4   58.89   16.77
 -16  -3   4   47.90   10.01
 -16  -3  -4   37.66   11.24
  16   3  -5    7.64    5.80
  16  -3  -5    8.69    4.69
  16  -3   5    2.89    6.03
  16   3   5    9.19    6.37
  -3  16  -5   14.19    4.40
   3  16  -5    7.58    4.20
  -3 -16   5   11.91    7.42
  -3 -16  -5    7.86    3.50
 -16  -3   5    1.60    3.09
 -16  -3  -5   13.00    6.82
  16   3  -6    5.47    4.54
  16  -3  -6    9.45    4.54
  16  -3   6   12.05    7.23
  16   3   6   13.97    6.27
  -3  16  -6   10.31    3.73
   3  16  -6    6.95    4.56
  -3 -16   6   15.72    6.34
  -3 -16  -6   15.45    4.41
 -16  -3   6    8.22   10.27
 -16  -3  -6    7.63    5.02
  16   3  -7   11.58    4.91
  16  -3  -7   17.16    5.79
  16  -3   7   11.81    5.14
  16   3   7   11.06    4.85
 -16   3  -7   13.73    4.74
  -3  16  -7   28.49    5.33
   3  16  -7   19.50    6.69
  -3 -16  -7   20.53    5.57
 -16  -3   7   29.14    8.74
 -16  -3  -7   21.85    6.65
  16   3  -8    7.78    2.64
  16  -3  -8    4.16    3.30
  16  -3   8    1.89    5.24
  16   3   8   27.10   10.39
 -16  -3  -8    7.64    4.49
 -16   3  -8    6.05    2.65
  -3  16  -8    3.63    4.89
   3  16  -8    6.83    5.04
  -3 -16  -8   11.31    4.29
 -16  -3   8    5.11    4.07
 -16  -3  -8    9.78    5.45
  16   3  -9   28.12    7.38
  16  -3  -9   43.67   10.16
  16  -3   9   51.21    9.34
  16   3   9   44.58   12.55
 -16  -3  -9   30.74    6.32
 -16   3  -9   41.13    9.78
  -3  16  -9   28.90    9.65
   3  16  -9   36.69    7.21
  -3 -16  -9   31.34   10.74
 -16  -3   9   28.62    9.55
 -16  -3  -9   29.43    9.16
  16   3 -10    0.25    4.47
  16  -3 -10    6.99    3.09
  16  -3  10    3.33    3.43
  16   3  10    3.34    3.21
 -16  -3 -10    5.48    3.07
 -16   3 -10    6.09    2.76
  -3  16 -10    3.58    3.06
   3  16 -10   12.74    6.34
 -16  -3 -10    3.42    3.39
  16   3 -11    3.55    5.90
  16  -3 -11    8.28    4.04
  16  -3  11   -1.00    2.18
  16   3  11    6.76    4.17
 -16  -3 -11    3.19    4.08
 -16   3 -11   -0.41    3.62
  -3  16 -11    0.80    2.95
   3  16 -11    6.51    3.26
 -16  -3 -11    2.85    3.32
  16   3 -12   14.76    6.60
  16  -3 -12    9.78    7.28
  16  -3  12   14.38    6.23
  16   3  12    2.48    3.29
 -16  -3 -12   15.99    5.52
 -16   3 -12    6.32    3.03
  -3  16 -12    4.64    4.16
   3  16 -12    6.80    2.71
 -16  -3 -12    5.61    4.07
  16   3 -13    2.93    3.74
  16  -3 -13    0.90    2.89
  16  -3  13    5.22    3.37
  16   3  13   14.09    7.77
 -16  -3 -13    6.76    3.75
 -16   3 -13   12.12    3.46
  -3  16 -13    8.88    3.02
   3  16 -13    4.76    4.99
 -16   3 -14    1.39    3.67
  16   4   0   27.81    8.56
  16  -4   0   29.08    8.47
   4  16   0   23.49    8.40
  -4 -16   0   21.35    6.70
 -16  -4   0   29.36    9.17
  16   4  -1   23.16    6.88
  16  -4  -1   29.76   10.03
  16   4   1   29.87    7.19
  16  -4   1   47.51    8.85
   4  16  -1   41.94   10.60
   4  16   1   30.04   10.88
  -4 -16   1   32.31   16.01
  -4 -16  -1   25.22    7.99
 -16  -4   1   33.63   11.09
 -16  -4  -1   30.53    9.05
  16   4  -2    8.90    3.41
  16  -4  -2    7.74    5.51
  16  -4   2    5.34    3.27
  16   4   2    4.40    3.57
   4  16  -2   46.47    8.29
   4  16   2    7.21    3.41
  -4 -16   2    8.23    5.16
  -4 -16  -2    5.74    4.59
 -16  -4   2    0.04    2.65
 -16  -4  -2   11.25    5.88
  16   4  -3   10.83    8.28
  16  -4  -3    2.47    2.88
  16  -4   3    8.43    4.38
  16   4   3    7.58    3.63
   4  16  -3    0.09    3.41
   4  16   3    3.33    4.67
  -4 -16   3    4.21    2.96
  -4 -16  -3    6.44    3.57
 -16  -4   3    6.60    4.73
 -16  -4  -3    8.44    4.18
  16   4  -4   44.57   14.69
  16  -4  -4   57.04   13.66
  16  -4   4   62.33   10.37
  16   4   4   56.25   12.25
   4  16  -4   51.76   13.97
  -4 -16   4   59.89   17.79
  -4 -16  -4   77.97   16.37
 -16  -4   4   89.57   11.95
 -16  -4  -4   64.67   19.71
  16   4  -5   78.44   16.20
  16  -4  -5  113.62   14.04
  16  -4   5   78.79   19.35
  16   4   5   96.37   13.28
   4  16  -5   94.65   19.44
  16   4  -5   54.49   18.09
  -4 -16   5   84.02   20.19
  -4 -16  -5   78.83   19.22
 -16  -4   5   87.83   17.86
 -16  -4  -5   85.98   22.10
  16   4  -6    8.81    4.35
  16  -4  -6    9.30    5.23
  16  -4   6    6.73    3.73
  16   4   6    4.20    4.21
  -4  16  -6    3.44    3.17
   4  16  -6    5.53    5.21
  -4 -16   6    5.64    4.80
  -4 -16  -6    3.99    3.87
 -16  -4   6    3.15    2.61
 -16  -4  -6   -0.10    4.79
  16   4  -7   33.07    9.82
  16  -4  -7   27.14    8.34
  16  -4   7   41.95   11.78
  16   4   7   34.43   11.30
  -4  16  -7   65.86    7.12
   4  16  -7   31.77   11.50
  -4 -16   7   33.86    8.11
 -16  -4   7   38.60   10.65
 -16  -4  -7   40.85    9.55
  16   4  -8   60.44   15.13
  16  -4  -8   71.01   10.81
  16  -4   8   74.70   14.90
  16   4   8   77.14   13.21
  -4  16  -8   48.60   14.44
   4  16  -8   70.87   19.70
  -4 -16   8   69.22   22.01
  -4 -16  -8   92.89   23.14
 -16  -4   8   51.32   16.19
 -16  -4  -8   59.89   19.49
  16  -4   9   18.71    6.69
  16   4   9    4.59    6.62
 -16   4  -9   21.00    4.24
  -4  16  -9   15.70    7.60
   4  16  -9   27.18    7.65
  -4 -16  -9   23.34    6.17
 -16  -4   9   16.50    7.57
 -16  -4  -9   14.82    7.09
  16   4 -10    3.58    3.65
  16  -4 -10    9.05    5.96
  16  -4  10    1.00    3.18
  16   4  10    3.32    3.53
 -16  -4 -10    5.40    2.93
 -16   4 -10    4.99    2.80
  -4  16 -10    1.80    2.37
   4  16 -10    0.55    2.02
  -4 -16 -10    2.46    2.32
 -16  -4 -10    7.58    5.21
  16   4 -11   33.34   12.19
  16  -4 -11   13.28    4.42
  16  -4  11   10.05    3.92
  16   4  11    7.71    4.06
 -16  -4 -11    7.10    6.80
 -16   4 -11   14.63    5.12
  -4  16 -11   12.58    5.59
   4  16 -11   14.27    6.53
 -16  -4 -11   16.01    5.99
  16   4 -12   12.08    5.05
  16  -4 -12    5.28    4.42
  16  -4  12    6.42    4.47
  16   4  12    6.39    4.41
 -16  -4 -12    6.84    3.15
 -16   4 -12    9.16    3.48
  -4  16 -12    6.50    2.57
   4  16 -12    7.35    3.45
 -16  -4 -12    0.74    2.35
  16   4 -13    6.60    2.64
  16   4  13    6.12    3.99
 -16   4 -13    4.15    2.35
  -4  16 -13    5.57    4.59
 -16   4 -14    5.42    3.36
  16   5   0    9.65    5.38
  16  -5   0    9.69    8.32
   5  16   0   21.63    7.00
  -5 -16   0   30.97    8.71
 -16  -5   0   10.91    4.84
  16   5  -1   30.62    8.09
  16  -5  -1   17.30    5.69
  16   5   1   29.39    8.36
  16  -5   1   26.16    7.09
   5  16  -1   16.26    8.54
   5  16   1   27.93    8.24
  -5 -16   1   27.39   10.13
  -5 -16  -1   17.52    5.39
 -16  -5   1   37.57    9.47
 -16  -5  -1   34.63    8.86
  16   5  -2   59.48   16.27
  16  -5  -2   49.75   14.30
  16  -5   2   65.77   16.41
  16   5   2   57.87   10.51
   5  16  -2   46.20   14.08
   5  16   2   57.25   16.05
  -5 -16   2   65.58   15.05
  -5 -16  -2   62.05   12.36
 -16  -5   2   68.93   11.57
 -16  -5  -2   77.93   16.28
  16   5  -3   24.98    8.33
  16  -5  -3   15.29    6.01
  16  -5   3   15.62    5.43
  16   5   3    3.11    6.10
   5  16  -3   17.66    7.50
  -5 -16   3   23.21    7.12
  -5 -16  -3   35.84    9.86
 -16  -5   3   15.51    6.43
 -16  -5  -3   18.89    7.10
  16   5  -4   31.70   13.06
  16  -5  -4   69.18   14.32
  16  -5   4   56.03   11.83
  16   5   4   55.76   10.50
   5  16  -4   63.40   19.16
  16   5  -4   46.07    6.56
  -5 -16   4   50.43   12.73
  -5 -16  -4   61.09   14.82
 -16  -5   4   60.40   13.06
 -16  -5  -4   54.63   12.88
  16   5  -5    5.97    3.55
  16  -5  -5    4.05    3.50
  16  -5   5   -2.17    6.14
  16   5   5    4.27    2.66
   5  16  -5    5.03    6.56
  16   5  -5   -3.18    3.86
  -5 -16   5    5.05    2.71
  -5 -16  -5   -0.77    4.23
 -16  -5   5    5.25    3.16
 -16  -5  -5    3.33    2.73
  16   5  -6   20.18    5.59
  16  -5  -6   15.25    6.35
  16  -5   6   33.33   12.30
  16   5   6   20.04    6.85
   5  16  -6   21.27    5.33
  16   5  -6   24.78    7.73
  -5 -16   6   25.76    6.49
  -5 -16  -6   41.81    8.25
 -16  -5   6   25.09    5.56
 -16  -5  -6   25.51    6.37
  16   5  -7    7.22    3.54
  16  -5  -7    7.92    5.36
  16  -5   7    4.94    5.77
  16   5   7    3.71    2.91
   5  16  -7    6.07    5.41
  -5 -16   7   11.41    4.73
  -5 -16  -7   15.03    6.48
 -16  -5   7    9.36    6.32
 -16  -5  -7   19.36    5.51
  16   5  -8   29.98    9.07
  16  -5  -8   28.09    6.54
  16  -5   8   37.87    9.61
  -5  16  -8   24.68    6.07
   5  16  -8   34.40    9.69
  -5 -16   8   27.66    9.37
  -5 -16  -8   41.25    7.88
 -16  -5   8   30.35    8.99
 -16  -5  -8   31.62    7.69
  16   5  -9    9.76    6.03
  16  -5  -9    7.76    6.06
  16  -5   9    0.27    3.68
  16   5   9    7.57    6.34
  -5  16  -9    4.67    3.17
   5  16  -9    8.23    4.74
  -5 -16   9    6.55    5.06
  -5 -16  -9    4.66    3.49
 -16  -5   9    8.38    2.57
 -16  -5  -9    4.45    3.17
  16   5 -10    8.23    4.82
  16  -5 -10   15.00    6.62
  16  -5  10   22.24    9.34
  16   5  10   11.87    5.18
  -5  16 -10    1.89    5.11
   5  16 -10   13.05    6.06
  -5 -16  10    7.41    4.82
  -5 -16 -10   11.85    5.98
 -16  -5 -10    9.50    5.56
  16   5 -11    6.02    2.57
  16  -5 -11   -2.99    4.53
  16  -5  11    4.75    2.36
  16   5  11    2.73    3.74
 -16  -5 -11    1.44    2.60
  -5  16 -11    4.14    3.89
   5  16 -11   10.47    5.48
 -16  -5 -11   -0.35    3.82
  16   5 -12   10.12    4.11
  16  -5 -12   13.32    6.98
  16  -5  12   10.83    5.20
  16   5  12   18.83    6.01
 -16  -5 -12    5.94    5.40
 -16   5 -12    9.26    3.20
  -5  16 -12    8.75    4.08
   5  16 -12    6.87    5.54
 -16  -5 -12    8.68    5.18
  16   5 -13    8.74    3.87
  16   5  13    8.56    3.87
 -16   5 -13    9.45    3.34
  -5  16 -13    8.11    5.50
  16   6   0    9.27    4.10
  16  -6   0   17.21    8.33
   6  16   0   31.13   12.88
 -16  -6   0   27.69    6.15
  16   6  -1   55.81   11.27
  16  -6  -1   56.03   12.97
  16   6   1   46.12   12.16
  16  -6   1   54.28   12.07
   6  16  -1   55.20   12.76
   6  16   1   58.40   11.43
  -6 -16   1   66.54   13.25
  -6 -16  -1   60.66   14.96
 -16  -6   1   55.62   18.17
 -16  -6  -1   61.20   14.56
  16   6  -2   37.19    9.59
  16  -6  -2   41.46   13.53
  16   6   2   35.14   13.67
  16  -6   2   33.37   12.05
   6  16  -2   41.58   14.31
   6  16   2   37.05    7.71
  -6 -16   2   44.30   16.26
  -6 -16  -2   43.40   10.34
 -16  -6   2   43.58   10.79
 -16  -6  -2   41.23    8.76
  16   6  -3    5.19    4.55
  16  -6  -3    2.51    6.00
  16   6   3    4.41    2.62
  16  -6   3    3.54    5.13
   6  16  -3    1.86    6.02
  -6 -16   3   10.11    4.50
  -6 -16  -3    7.38    5.95
 -16  -6   3   13.58    4.78
 -16  -6  -3    4.97    3.60
  16   6  -4    4.11    3.76
  16  -6  -4    7.77    5.81
  16  -6   4    4.07    4.05
  16   6   4   -0.34    4.41
   6  16  -4   -0.41    5.77
  16   6  -4    3.64    3.76
  -6 -16   4    8.95    3.92
  -6 -16  -4    5.21    4.78
 -16  -6   4    7.99    3.83
 -16  -6  -4    3.61    4.09
  16   6  -5   18.75    6.17
  16  -6  -5   22.99    9.50
  16  -6   5   14.97    5.11
  16   6   5    7.23    4.63
   6  16  -5   16.63    3.82
  -6 -16   5   19.55    5.76
  -6 -16  -5   18.22    5.81
 -16  -6   5   20.37    6.12
 -16  -6  -5   24.24    8.10
  16   6  -6    3.87    3.88
  16  -6  -6    8.97    6.87
  16  -6   6   14.78    6.40
  16   6   6    4.86    3.70
   6  16  -6   16.69    7.28
  16   6  -6    8.69    5.00
  -6 -16   6    2.71    2.98
  -6 -16  -6    4.00    3.56
 -16  -6   6    5.09    3.70
 -16  -6  -6    1.27    2.90
  16   6  -7   13.95    3.89
  16  -6  -7    4.59    5.38
  16  -6   7    5.10    5.48
  16   6   7    3.30    3.00
   6  16  -7    5.16    5.37
  16   6  -7    7.55    4.51
  -6 -16   7   10.88    3.48
  -6 -16  -7    8.75    3.34
 -16  -6   7   11.36    5.96
 -16  -6  -7    6.87    4.87
  16   6  -8   -1.34    4.04
  16  -6  -8    7.52    4.01
  16  -6   8   15.21    4.65
  16   6   8    4.40    3.34
   6  16  -8    5.99    4.11
  -6 -16   8    7.11    3.27
  -6 -16  -8    0.85    2.74
 -16  -6   8   -1.68    3.34
 -16  -6  -8    1.92    4.29
  16   6  -9    9.16    5.03
  16  -6  -9    7.80    4.85
  16  -6   9    6.21    4.06
  16   6   9   10.28    4.72
   6  16  -9    7.65    4.23
  -6 -16   9    3.55    3.33
  -6 -16  -9    2.93    3.68
 -16  -6   9    3.14    4.91
 -16  -6  -9    7.50    4.52
  16   6 -10    4.56    4.25
  16  -6 -10   -1.48    4.75
  16  -6  10   14.33    7.89
  16   6  10   -0.02    3.61
   6  16 -10    1.07    4.61
  -6 -16  10    4.58    3.02
  -6 -16 -10   -1.03    3.11
 -16  -6 -10    3.62    2.18
  16   6 -11   18.69    5.32
  16  -6 -11   10.59    5.67
  16  -6  11   13.09    5.93
  16   6  11   10.33    5.65
   6  16 -11   22.95    6.22
  -6 -16  11    9.21    4.33
 -16  -6 -11   14.61    5.86
  16   6 -12   24.20    4.45
  16  -6  12    7.32    4.83
  16   6  12    7.22    3.85
 -16  -6 -12    5.08    3.46
  16   6 -13    8.65    5.54
  -6  16 -13    7.30    4.57
  16   7   0   38.51    7.05
  16  -7   0   42.74   10.43
   7  16   0   49.03   10.40
  -7 -16   0   53.34   13.27
 -16  -7   0   49.43   11.21
  16   7  -1    6.10    3.80
  16  -7  -1   14.92    7.93
  16   7   1    9.04    4.94
  16  -7   1    8.08    5.88
   7  16  -1   14.85    5.93
   7  16   1    7.97    4.96
  -7 -16   1   21.28    6.36
  -7 -16  -1   11.58    4.70
 -16  -7   1    4.01    3.11
 -16  -7  -1   -0.32    4.21
  16   7  -2   45.42    7.10
  16  -7  -2   45.78    9.39
  16   7   2   25.52    9.31
  16  -7   2   42.77    9.59
   7  16  -2   32.15   10.21
  -7 -16   2   37.98    9.00
  -7 -16  -2   38.06   10.12
 -16  -7   2   47.09   10.33
 -16  -7  -2   38.02   12.29
  16   7  -3    6.51    3.09
  16  -7  -3   13.30    6.19
  16   7   3    7.16    3.51
  16  -7   3   20.31    6.84
   7  16  -3    9.47    3.70
  -7 -16   3    4.03    3.58
  -7 -16  -3    7.30    3.73
 -16  -7   3    7.02    3.36
  16   7  -4    7.68    4.06
  16  -7  -4   12.12    5.12
  16  -7   4   16.97    6.86
  16   7   4    3.28    2.81
   7  16  -4   19.44    6.14
  16   7  -4    8.28    3.20
  -7 -16   4    9.09    4.45
  -7 -16  -4    4.81    5.95
 -16  -7   4    9.75    5.81
 -16  -7  -4    7.71    5.53
  16   7  -5   -1.07    3.09
  16  -7  -5    4.89    5.71
  16  -7   5    2.02    3.55
  16   7   5    4.32    3.90
   7  16  -5    8.49    5.17
  16   7  -5    3.87    4.04
  -7 -16   5    8.23    4.79
  -7 -16  -5    2.71    3.20
 -16  -7   5    7.66    4.58
 -16  -7  -5    4.99    2.47
  16   7  -6   26.28    6.88
  16  -7  -6   37.32    7.95
  16  -7   6   27.62    7.49
  16   7   6   25.07    7.78
   7  16  -6   18.82   11.12
  16   7  -6   13.69    6.62
  -7 -16   6   26.49    6.59
  -7 -16  -6   27.49    8.40
 -16  -7   6   29.87    4.33
 -16  -7  -6   26.32    9.70
  16   7  -7    1.19    4.21
  16  -7  -7    2.41    3.39
  16  -7   7    2.96    3.06
  16   7   7    4.19    3.36
   7  16  -7    9.69    6.41
  16   7  -7   10.28    8.18
  -7 -16   7    5.28    2.35
  -7 -16  -7    2.39    3.01
 -16  -7   7    7.36    3.25
 -16  -7  -7    2.16    3.74
  16   7  -8   12.17    4.73
  16  -7  -8   13.19    8.03
  16  -7   8    6.37    4.21
  16   7   8    7.51    4.47
   7  16  -8   23.50    8.24
  16   7  -8    9.99    6.53
  -7 -16   8   12.69    4.69
  -7 -16  -8   12.46    5.12
 -16  -7   8   11.39    6.83
 -16  -7  -8   11.88    4.51
  16   7  -9    1.76    3.38
  16  -7  -9   -3.25    3.95
  16  -7   9    2.01    3.64
  16   7   9   -1.48    2.39
   7  16  -9    6.26    4.84
  -7 -16   9    5.71    2.55
  -7 -16  -9    2.49    2.96
 -16  -7   9    6.70    4.22
 -16  -7  -9    5.63    3.47
  16   7 -10    5.34    4.01
  16  -7 -10   11.05    6.27
  16  -7  10    3.79    2.78
  16   7  10    3.27    4.89
   7  16 -10    2.79    2.15
  -7 -16  10    5.16    3.19
  -7 -16 -10    7.56    4.34
 -16  -7 -10    2.92    2.87
  16   7 -11    2.94    2.30
  16  -7 -11   10.57    7.48
  16  -7  11   -1.38    5.31
  16   7  11   -5.18    3.51
 -16  -7 -11    2.92    2.99
  16   7 -12   18.41    5.88
  16   7  12   16.58    6.56
  16   8   0    4.59    3.76
  16  -8   0   11.21    5.44
   8  16   0   14.41    5.17
  -8 -16   0    4.27    2.35
 -16  -8   0    2.35    3.24
  16   8  -1   12.70    4.55
  16  -8  -1   12.57    7.40
  16   8   1   17.78    4.92
  16  -8   1   10.19    5.69
   8  16  -1    8.25    3.86
   8  16   1   28.82    7.50
  -8 -16   1   12.00    4.26
  -8 -16  -1   17.28    7.31
 -16  -8   1   13.43    5.42
 -16  -8  -1   13.30    4.83
  16   8  -2   18.16    5.39
  16  -8  -2   20.02    6.24
  16   8   2    9.59    5.31
  16  -8   2    9.83    7.34
   8  16  -2   14.75    8.19
  -8 -16   2   21.15    6.93
  -8 -16  -2   15.88    7.35
 -16  -8   2   11.09    5.26
 -16  -8  -2   15.99    5.42
  16   8  -3    4.09    3.01
  16  -8  -3    4.81    5.13
  16   8   3    3.07    2.82
  16  -8   3    1.54    5.19
   8  16  -3    8.38    8.06
  -8 -16   3    3.74    2.43
  -8 -16  -3    5.01    4.61
 -16  -8   3    1.33    2.56
 -16  -8  -3    6.52    3.36
  16   8  -4   49.74   16.60
  16  -8  -4   74.81   17.25
  16  -8   4   41.66   10.96
  16   8   4   51.48   17.61
   8  16  -4  116.51   13.04
  16   8  -4   91.16   14.33
  -8 -16   4   71.44   12.32
  -8 -16  -4   70.18   14.22
 -16  -8   4   99.55    9.34
 -16  -8  -4   57.26   14.29
  16   8  -5   -1.17    3.04
  16  -8  -5    2.09    4.27
  16  -8   5    5.80    3.27
  16   8   5    4.28    3.65
   8  16  -5   -0.88    5.08
  16   8  -5    4.04    3.70
  -8 -16   5    3.98    2.75
  -8 -16  -5    8.23    3.93
 -16  -8  -5   14.38    8.99
  16  -8  -6   13.86    6.93
  16  -8   6    1.27    4.66
  16   8   6    9.03    4.11
   8  16  -6    8.56    3.59
  16   8  -6   15.90    8.73
  -8 -16   6    9.87    5.31
  -8 -16  -6   10.57    3.66
 -16  -8   6    6.03    3.38
 -16  -8  -6    9.78    6.70
  16  -8  -7    9.04    4.66
  16  -8   7   10.39    4.26
  16   8   7    6.85    3.93
   8  16  -7   14.33    6.76
  16   8  -7    6.98    4.85
  -8 -16   7   10.86    4.90
  -8 -16  -7   -2.06    4.07
 -16  -8   7    8.65    4.62
 -16  -8  -7    2.64    3.76
  16  -8  -8   41.82    7.57
  16  -8   8   20.52    7.47
  16   8   8   12.82    5.97
   8  16  -8   32.78   10.47
  16   8  -8   40.76    8.34
  -8 -16   8   20.05    8.93
  -8 -16  -8   13.79    6.59
 -16  -8   8   22.28    9.60
 -16  -8  -8   34.73   10.65
  16  -8  -9    2.77    4.44
  16  -8   9    3.17    2.01
  16   8   9    6.72    2.87
   8  16  -9   -0.54    5.54
  16   8  -9    4.69    5.14
  -8 -16   9    2.58    3.12
  -8 -16  -9    2.52    2.53
 -16  -8   9    4.42    2.88
 -16  -8  -9    4.63    4.36
  16  -8 -10   17.71    6.51
  16  -8  10    5.03    5.15
  16   8  10    2.30    2.82
   8  16 -10   15.18    8.08
  -8 -16  10    2.55    3.11
  -8 -16 -10   10.39    4.84
 -16  -8 -10    5.48    2.96
  16   8  11   18.02    9.67
 -16  -8 -11    5.55    3.56
  16  -9   0   24.90    7.33
   9  16   0   33.89   12.34
 -16  -9   0   20.35    7.34
  16  -9  -1   13.24    6.30
  16  -9   1   12.13    5.68
   9  16  -1    2.26    5.31
   9  16   1    6.67    6.40
  -9 -16   1    5.89    4.47
  -9 -16  -1   17.20    5.66
 -16  -9   1    9.10    2.78
 -16  -9  -1   14.39    6.38
  16  -9  -2   13.69    3.00
  16  -9   2    8.03    3.57
   9  16  -2   -1.12    5.43
  -9 -16   2    1.94    4.35
  -9 -16  -2   26.64   10.45
 -16  -9   2   11.33    4.89
 -16  -9  -2   12.64    4.03
  16  -9  -3    7.87    5.33
  16  -9   3   14.04    8.71
   9  16  -3   15.17    8.47
  -9 -16   3    3.04    4.26
  -9 -16  -3   13.55    4.93
 -16  -9   3    4.27    4.53
 -16  -9  -3   15.28    6.62
  16  -9  -4    8.94    4.33
  16  -9   4   14.03    5.97
   9  16  -4    3.62    6.15
  16   9  -4   19.52    7.14
  -9 -16   4   11.90    5.03
  -9 -16  -4    4.67    3.53
 -16  -9   4   22.32    7.07
 -16  -9  -4   14.44    5.84
  16  -9  -5    1.96    5.29
  16  -9   5    5.37    4.53
   9  16  -5    7.50    7.05
  16   9  -5   -2.43    5.06
  -9 -16   5    2.59    1.94
  -9 -16  -5    5.38    1.70
 -16  -9   5    4.86    3.01
 -16  -9  -5    1.66    2.53
  16  -9  -6    9.01    4.17
  16  -9   6    6.76    4.20
   9  16  -6   14.95    8.23
  16   9  -6   15.61    8.39
  -9 -16   6    8.64    3.85
  -9 -16  -6    7.20    3.13
 -16  -9   6    4.12    4.02
 -16  -9  -6    4.57    4.30
  16  -9  -7    7.15    6.11
  16  -9   7   13.60    4.69
   9  16  -7    9.07    8.17
  16   9  -7   25.34    7.65
  -9 -16   7    2.60    3.28
  -9 -16  -7   10.39    5.17
 -16  -9   7    8.84    2.47
 -16  -9  -7    6.12    3.84
  16  -9  -8    6.31    3.50
  16  -9   8    8.10    3.07
   9  16  -8    6.49    2.54
  16   9  -8   15.57    5.87
  -9 -16   8    3.20    3.23
  -9 -16  -8    0.66    3.51
 -16  -9   8    3.97    3.09
 -16  -9  -8    2.01    4.00
  16  -9  -9   20.67    6.66
  16  -9   9    4.11    2.49
   9  16  -9   11.22    5.49
  16   9  -9    7.13    4.36
  -9 -16   9    6.29    3.72
  -9 -16  -9    3.12    2.92
 -16  -9   9    3.50    1.89
 -16  -9  -9    2.78    4.29
  16  -9 -10    5.33    4.53
  16  -9  10    6.22    3.75
  16   9 -10    6.92    5.21
  -9 -16  10    2.14    3.48
  -9 -16 -10    3.58    3.00
 -16  -9 -10    6.55    4.78
 -16  -9 -11    0.41    2.17
  16 -10   0   16.07    7.18
  10  16   0    7.44    5.57
 -10 -16   0   13.57    3.34
 -16 -10   0   -3.18    3.87
  16 -10  -1   10.65    7.40
  16 -10   1   14.13    7.66
  10  16  -1   57.74    6.38
 -10 -16   1   10.95    2.99
 -10 -16  -1   10.21    3.13
 -16 -10   1   11.06    4.13
 -16 -10  -1   11.97    7.82
  16 -10  -2    4.45    4.06
  16 -10   2   25.57    7.39
  10  16  -2   16.79    5.96
 -10 -16  -2   12.18    4.46
 -16 -10   2   20.89    7.85
 -16 -10  -2   22.80    7.91
  16 -10  -3    8.11    5.31
  16 -10   3    9.03    5.34
  10  16  -3    8.21    5.67
  16  10  -3    8.09    5.59
 -10 -16   3    7.19    7.06
 -10 -16  -3   13.30    5.72
 -16 -10   3    6.57    2.90
 -16 -10  -3    6.77    4.65
  16 -10  -4   23.25    7.58
  16 -10   4   23.38    5.02
  10  16  -4   33.03    9.65
  16  10  -4   19.44    9.57
 -10 -16   4   19.54    6.62
 -10 -16  -4   26.13    6.15
 -16 -10   4   30.88    9.05
 -16 -10  -4   16.35    8.31
  16 -10  -5   -1.91    4.55
  16 -10   5    6.74    4.12
  10  16  -5    5.05    3.87
  16  10  -5   -1.84    4.83
 -10 -16   5    3.41    2.88
 -10 -16  -5   -4.15    3.74
 -16 -10   5   13.15    5.32
 -16 -10  -5    5.55    4.00
  16 -10  -6    5.56    3.80
  16 -10   6    4.49    2.39
  10  16  -6    8.00    5.39
  16  10  -6    0.89    4.78
 -10 -16   6    2.14    4.12
 -10 -16  -6    7.40    3.27
 -16 -10   6    5.26    3.32
 -16 -10  -6    4.31    3.78
  16 -10  -7   -3.10    3.88
  16 -10   7    3.15    3.33
  10  16  -7   13.08    8.64
  16  10  -7   13.27    7.56
 -10 -16   7    3.72    3.55
 -10 -16  -7    6.16    4.36
 -16 -10   7   12.08    5.10
 -16 -10  -7    1.90    4.82
  16 -10  -8    5.19    2.99
  16 -10   8   14.37    3.99
  16  10  -8   13.37    6.34
 -10 -16   8    6.30    5.95
 -10 -16  -8    9.46    6.23
 -16 -10   8    7.78    3.22
 -16 -10  -8   11.65    6.01
  16 -10  -9    3.86    2.94
  16 -10   9    6.30    3.59
  16  10  -9    1.82    3.47
 -10 -16   9    2.69    2.44
 -10 -16  -9    4.79    3.20
 -16 -10   9    4.53    1.77
 -16 -10  -9    1.72    2.73
  16  10 -10    3.69    4.09
 -10 -16 -10    7.51    2.98
  16 -11   0    1.34    2.37
  11  16   0    3.72    3.36
 -11 -16   0    7.35    4.13
 -16 -11   0    4.48    2.38
  16 -11  -1    9.42    3.50
  16 -11   1   10.93    4.89
  11  16  -1    9.63    3.80
 -11 -16   1   16.02    4.67
 -11 -16  -1    4.73    2.89
 -16 -11   1    9.51    5.82
 -16 -11  -1    8.23    5.01
  16 -11  -2    3.88    2.99
  16 -11   2    5.86    5.20
  11  16  -2   -0.18    5.14
 -11 -16   2    2.08    3.41
 -11 -16  -2    8.34    4.23
 -16 -11   2    7.12    6.43
 -16 -11  -2    2.13    2.34
  16 -11  -3   29.56    7.92
  16 -11   3   33.45   12.72
  11  16  -3   35.43    8.98
  16  11  -3   52.92   15.05
 -11 -16   3   53.52   11.78
 -11 -16  -3   52.72   12.26
 -16 -11   3   47.16   10.54
 -16 -11  -3   32.34   10.22
  16 -11  -4    2.57    3.54
  16 -11   4    3.61    3.95
  11  16  -4    9.56    6.45
  16  11  -4    6.47    6.88
 -11 -16   4    1.69    2.58
 -11 -16  -4    1.33    4.13
 -16 -11   4    6.34    5.00
 -16 -11  -4    1.00    2.41
  16 -11  -5   -2.77    3.34
  16 -11   5    3.80    4.77
  11  16  -5    5.30    4.98
  16  11  -5    3.31    6.23
 -11 -16   5   10.42    4.68
 -11 -16  -5    4.61    2.64
 -16 -11   5    7.47    5.94
 -16 -11  -5    3.12    2.49
  16 -11  -6   34.23   10.52
  16 -11   6   28.47   14.46
  16  11  -6   42.65   12.30
 -11 -16   6   41.23   12.55
 -11 -16  -6   35.56   13.39
 -16 -11   6   47.75   13.55
 -16 -11  -6   43.67   13.18
  16 -11  -7    5.64    3.39
  16 -11   7    3.33    1.92
  16  11  -7    9.65    6.49
 -11 -16   7    4.08    4.51
 -11 -16  -7    4.51    1.99
 -16 -11   7    4.21    3.65
  16 -11  -8    9.29    5.12
  16 -11   8    3.56    3.57
 -11 -16   8    2.99    3.22
 -11 -16  -8    4.70    1.92
 -16 -11   8    5.95    3.00
  12  16   0    4.78    4.08
 -12 -16   0   -3.22    4.13
 -16 -12   0   10.64    8.78
  12  16  -1    4.59    4.24
 -12 -16   1    1.63    1.99
 -16 -12   1    4.46    3.53
 -16 -12  -1    4.44    3.35
  12  16  -2    5.53    5.44
  16  12  -2   21.24    7.17
 -12 -16   2   14.92    4.77
 -12 -16  -2   10.35    3.43
 -16 -12   2   16.29    7.51
  16 -12  -3    4.26    3.56
  16  12  -3    3.61    7.73
 -16 -12   3    8.06    3.57
  16 -12  -4    3.59    3.23
  16  12  -4    1.73    3.20
  17   0   0    1.57    5.88
   0  17   0    5.32    5.16
  17   0  -1   11.32    6.46
  17   0   1    3.40    6.07
   0  17  -1    3.10    3.67
  17   0  -2    5.31    4.16
  17   0   2    5.94    2.96
   0  17  -2    1.49    4.15
  17   0  -3    4.66    3.09
  17   0   3    7.21    5.05
   0  17  -3    5.81    2.66
  17   0  -4   39.75   11.61
  17   0   4   37.15    9.54
   0  17  -4   33.53    9.38
  17   0  -5   11.02    8.72
  17   0   5    3.96    5.40
   0  17  -5    1.70    2.97
  17   0  -6    2.89    4.85
  17   0   6   -0.03    5.42
   0  17  -6   -1.35    4.41
 -17   0   6    2.83    2.46
  17   0  -7    3.93    1.81
  17   0   7    8.93    3.89
 -17   0  -7    6.37    2.96
   0  17  -7   18.08    5.45
 -17   0   7    4.70    4.73
  17   0  -8   96.28   26.66
  17   0   8   75.92   24.43
 -17   0  -8   67.47   18.47
   0  17  -8   86.11   20.63
 -17   0   8  145.65    9.47
  17   0  -9    9.61    6.83
  17   0   9   -5.44    4.63
 -17   0  -9    4.26    3.25
   0  17  -9    8.38    2.16
 -17   0   9   -5.42    3.31
  17   0 -10    1.10    3.38
  17   0  10    6.61    5.55
 -17   0 -10    5.63    2.88
   0  17 -10    6.36    4.27
  17   0 -11   -4.82    4.73
  17   0  11    4.37    2.68
 -17   0 -11    4.75    4.01
   0  17 -11    3.50    3.62
 -17   0 -11    3.70    3.02
  17   0 -12   17.55    8.66
 -17   0 -12    6.56    3.42
   0  17 -12    4.44    3.70
 -17   0 -12    4.53    4.48
 -17   0 -13    4.27    2.84
  17  -1   0   40.15    9.21
  17   1   0   50.87   15.13
   1  17   0   40.24   11.99
  17   1  -1   14.32    7.14
  17  -1  -1   25.04    5.56
  17  -1   1   22.08    7.04
  17   1   1   18.07    6.74
   1  17  -1   15.29    9.42
   1  17   1   14.94    4.13
  17   1  -2   11.07    4.17
  17  -1  -2    5.39    4.95
  17  -1   2   -1.36    5.14
  17   1   2    6.29    4.37
  -1  17  -2    5.40    4.13
   1  17  -2   -0.25    4.24
   1  17   2    1.39    3.19
  17  -1  -3   -0.48    5.09
  17   1  -3   -1.36    3.36
  17  -1   3    5.98    6.27
  17   1   3    4.53    3.50
  -1  17  -3    3.53    2.56
   1  17  -3    7.32    6.80
 -17  -1   3    2.99    3.22
  17   1  -4   17.46    6.71
  17   1   4   23.84    7.43
  17  -1   4   19.79    5.87
  -1  17  -4   13.24    5.81
   1  17  -4    8.25    3.67
 -17  -1   4   36.51    8.53
  17   1  -5   43.67    9.09
  17  -1  -5   43.11    7.69
  17  -1   5   35.30    7.00
  -1  17  -5   39.79    7.31
   1  17  -5   22.51    6.58
 -17  -1   5   24.28    6.01
  17   1  -6    8.56    7.19
  17  -1  -6    1.51    2.76
  17  -1   6    7.46    3.23
  17   1   6    6.86    4.24
 -17   1  -6    5.04    3.23
  -1  17  -6    7.17    5.47
   1  17  -6    6.22    4.48
 -17  -1   6    3.32    1.89
  17   1  -7   10.25    4.38
  17  -1  -7    7.04    6.34
  17   1   7   10.61    3.82
  17  -1   7    7.28    2.65
 -17   1  -7    7.12    2.39
  -1  17  -7   10.29    5.43
   1  17  -7   10.99    4.52
 -17  -1   7    7.79    4.09
 -17  -1  -7   14.90    4.34
  17   1  -8    4.42    3.93
  17  -1  -8   10.11    3.10
  17  -1   8    4.07    3.00
  17   1   8    7.38    3.34
 -17  -1  -8    2.92    2.20
 -17   1  -8    5.18    2.36
  -1  17  -8    1.14    3.40
   1  17  -8    9.15    5.01
 -17  -1   8    4.49    3.50
 -17  -1  -8    3.55    3.12
  17   1  -9    3.79    6.31
  17  -1  -9    4.24    3.54
  17  -1   9    6.08    3.05
  17   1   9    1.60    3.03
 -17  -1  -9    2.67    1.55
 -17   1  -9    4.85    2.30
  -1  17  -9    3.78    2.16
   1  17  -9    5.68    3.20
 -17  -1   9    0.81    2.86
 -17   1   9   -0.84    3.51
 -17  -1  -9    7.67    3.28
  17   1 -10    8.23    5.81
  17  -1 -10    4.66    3.13
  17  -1  10   20.10   10.95
  17   1  10   -1.06    5.91
 -17  -1 -10    3.95    2.54
 -17   1 -10    4.97    3.53
  -1  17 -10    1.04    2.45
   1  17 -10    3.28    3.33
 -17  -1 -10    5.42    5.94
  17   1 -11   17.98    6.11
  17  -1 -11   14.91    5.63
  17  -1  11   23.18    5.23
  17   1  11   18.78    7.93
 -17  -1 -11   15.85    6.31
 -17   1 -11   28.06    8.59
  -1  17 -11    7.33    4.91
   1  17 -11    6.61    5.09
 -17  -1 -11    9.62    5.37
  17   1 -12   12.14    4.86
 -17  -1 -12   26.45    4.58
 -17   1 -12   63.63   22.51
  -1  17 -12   19.17    6.95
   1  17 -12   13.71    6.46
 -17  -1 -12    5.00    4.32
 -17   1 -13   -0.40    3.89
  17   2   0    2.47    2.85
  17  -2   0    5.37    4.40
   2  17   0    2.95    2.87
  -2 -17   0    4.61    5.31
 -17  -2   0    4.28    3.05
  17  -2  -1    8.39    5.40
  17   2  -1   13.22    7.32
  17   2   1    7.91    3.91
  17  -2   1    9.04    7.70
   2  17  -1   16.92    5.88
   2  17   1   14.77    6.35
  -2 -17   1    7.29    7.74
  -2 -17  -1   11.19    5.41
 -17  -2   1    8.54    3.35
 -17  -2  -1   11.27    5.34
  17   2  -2   88.71   25.19
  17  -2  -2  102.58   23.78
  17   2   2  101.20   19.34
  17  -2   2  114.62   27.32
   2  17  -2  111.12   27.15
   2  17   2   91.15   22.29
  -2 -17  -2  104.17   29.50
 -17  -2   2  108.08   26.70
 -17  -2  -2  104.04   22.60
  17   2  -3   34.64    8.17
  17  -2  -3   18.47    7.91
  17  -2   3   19.46    6.71
  17   2   3   14.19    7.11
   2  17  -3   13.72    5.60
   2  17   3   13.39    6.30
  -2 -17  -3   12.53    5.79
 -17  -2   3   14.86    6.54
 -17  -2  -3   18.72    7.60
  17   2  -4    9.27    4.42
  17  -2  -4    6.32    4.68
  17  -2   4    6.64    4.31
  17   2   4    4.42    4.89
  -2  17  -4    3.39    2.58
   2  17  -4    1.32    5.82
   2  17   4    1.37    1.99
  -2 -17  -4    6.10    5.72
 -17  -2   4    5.25    3.76
 -17  -2  -4    3.45    4.67
  17   2  -5   -3.35    5.13
  17  -2  -5    5.15    2.54
  17  -2   5    0.20    5.74
  17   2   5   -5.74    4.81
  -2  17  -5   -0.43    1.45
   2  17  -5    3.11    4.27
 -17  -2   5   -1.29    3.49
 -17  -2  -5   11.14    4.10
  17   2  -6    4.33    3.14
  17  -2  -6   10.27    5.11
  17   2   6    3.82    3.85
  17  -2   6    8.52    6.72
  -2  17  -6    7.67    2.31
   2  17  -6   16.37    6.37
 -17  -2   6    4.50    4.13
 -17  -2  -6   12.47    7.59
  17   2  -7    2.59    4.58
  17  -2  -7    6.49    6.70
  17  -2   7   10.69    5.42
  17   2   7    4.59    3.46
  -2  17  -7    7.65    2.52
   2  17  -7    8.78    4.47
 -17  -2   7    6.57    2.66
 -17  -2  -7   10.15    6.40
  17   2  -8    5.72    2.33
  17  -2  -8   13.51    6.93
  17  -2   8    8.17    5.84
  17   2   8    8.62    3.39
 -17   2  -8    7.42    2.69
  -2  17  -8    6.16    4.43
   2  17  -8    4.12    2.63
 -17  -2   8    8.30    5.01
 -17  -2  -8    6.82    5.76
  17   2  -9    9.28    6.35
  17  -2  -9    5.33    2.47
  17  -2   9    5.72    4.32
  17   2   9    9.98    4.92
 -17  -2  -9    3.00    1.77
 -17   2  -9    1.96    2.11
  -2  17  -9    4.49    4.07
   2  17  -9    6.47    4.63
 -17  -2   9    1.26    3.57
 -17  -2  -9    2.44    2.95
  17   2 -10   13.12    6.09
  17  -2 -10   12.13    5.49
  17  -2  10   41.81   13.23
  17   2  10   34.96    7.80
 -17  -2 -10   15.12    6.50
 -17   2 -10   27.21    7.35
  -2  17 -10   23.56    9.80
   2  17 -10   29.77    8.09
 -17  -2 -10   13.79    8.13
  17   2 -11    3.21    3.28
  17  -2 -11    6.45    5.24
  17  -2  11    9.19    5.06
  17   2  11    4.51    3.65
 -17  -2 -11    2.21    3.93
 -17   2 -11    5.43    3.28
  -2  17 -11    2.55    4.81
   2  17 -11    5.74    4.92
 -17  -2 -11    6.80    3.72
 -17  -2 -12    4.09    2.67
 -17   2 -12    0.66    1.98
  -2  17 -12    5.82    3.50
 -17  -2 -12   -0.05    3.49
 -17   2 -13    1.99    2.57
  17   3   0   11.15    5.31
  17  -3   0    2.84    4.44
   3  17   0    4.42    4.01
  -3 -17   0   -0.63    5.23
 -17  -3   0   11.99    6.57
  17   3  -1   29.89    8.51
  17  -3  -1   19.25    7.02
  17   3   1   45.22    9.15
  17  -3   1   39.02   11.25
   3  17  -1   21.95    7.63
   3  17   1   33.43   10.95
  -3 -17   1   33.01    9.39
  -3 -17  -1   37.77    9.57
 -17  -3   1   47.16   10.77
 -17  -3  -1   41.42    9.17
  17   3  -2   37.45    7.94
  17  -3  -2   11.26    4.20
  17  -3   2   18.67    8.26
  17   3   2   22.15    7.70
   3  17  -2   15.20    9.46
  -3 -17   2   15.64    7.15
  -3 -17  -2   24.27    6.14
 -17  -3   2   15.53    5.86
 -17  -3  -2   11.39    5.31
  17   3  -3   16.20    6.79
  17  -3  -3    9.56    6.07
  17  -3   3   13.75    5.37
  17   3   3   20.58    7.52
   3  17  -3   32.70   10.29
   3  17   3   29.33    7.52
  -3 -17   3   32.92    8.24
  -3 -17  -3   29.07   10.59
 -17  -3   3   21.82    7.62
 -17  -3  -3   29.60    6.47
  17   3  -4   12.34    6.86
  17  -3  -4   15.43    8.02
  17  -3   4    9.03    7.78
  17   3   4   14.83    5.46
   3  17  -4   17.63    7.20
   3  17   4   21.57    7.68
  -3 -17   4   18.35    4.41
  -3 -17  -4   11.02    6.28
 -17  -3   4    9.90    5.68
 -17  -3  -4    7.11    4.92
  17   3  -5    8.62    6.06
  17  -3  -5   14.61    7.30
  17  -3   5   15.64    6.31
  17   3   5    9.88    7.47
   3  17  -5    4.67    5.19
   3  17   5   10.97    5.05
  -3 -17   5   10.77    4.84
  -3 -17  -5   16.92    7.47
 -17  -3   5   15.04    5.98
 -17  -3  -5    7.64    5.30
  17   3  -6  138.76   19.88
  17  -3  -6  134.20   25.33
  17  -3   6  126.58   26.11
  17   3   6  138.58   17.09
  -3  17  -6  136.81   19.01
   3  17  -6  106.66   26.92
  -3 -17  -6  143.11   21.69
 -17  -3   6  206.25   10.65
 -17  -3  -6  142.56   31.51
  17   3  -7    1.94    3.14
  17  -3  -7    5.68    5.82
  17  -3   7    6.77    4.73
  17   3   7    8.11    4.92
  -3  17  -7    2.11    2.63
   3  17  -7    8.17    4.69
  -3 -17  -7    5.45    4.74
 -17  -3   7    0.63    2.95
 -17  -3  -7    5.75    3.00
  17   3  -8    7.76    3.11
  17  -3  -8   12.02    6.79
  17  -3   8   11.65    4.30
  17   3   8   10.86    5.56
  -3  17  -8    1.68    2.78
   3  17  -8   11.54    7.73
  -3 -17  -8    9.23    6.31
 -17  -3   8   11.77    6.66
 -17  -3  -8   15.11    7.37
  17   3  -9   12.55    6.40
  17  -3  -9    5.82    3.07
  17  -3   9    1.44    4.55
  17   3   9   -0.25    4.86
  -3  17  -9    5.68    5.90
   3  17  -9   18.09    5.73
 -17  -3   9    1.20    3.21
 -17  -3  -9   -0.87    4.12
  17   3 -10   19.41    6.95
  17  -3 -10   46.45   19.84
  17  -3  10   16.56    7.32
 -17  -3 -10   18.23    7.04
 -17   3 -10   14.92    4.72
  -3  17 -10   18.39    4.27
   3  17 -10   18.74    6.07
 -17  -3 -10   12.91    8.00
  17   3 -11    8.01    4.80
  17  -3 -11    6.69    5.03
  17  -3  11   23.00    7.58
  17   3  11   12.67    8.30
 -17  -3 -11    5.66    2.96
 -17   3 -11    6.43    2.49
  -3  17 -11   14.19    5.88
   3  17 -11   12.13    7.17
 -17  -3 -11   11.23    5.00
  17   3 -12   -0.28    4.64
  17   3  12    5.35    3.61
 -17  -3 -12    2.78    3.28
 -17   3 -12   -0.34    2.83
  -3  17 -12   -0.13    3.45
 -17  -3 -12   -2.04    3.21
 -17   3 -13    8.42    4.22
  17   4   0    1.31    2.68
  17  -4   0    8.27    6.30
   4  17   0    2.01    4.34
  -4 -17   0   -1.74    5.13
 -17  -4   0    0.27    5.48
  17   4  -1   11.75    7.29
  17  -4  -1    8.17    7.20
  17   4   1    8.06    5.79
  17  -4   1    9.08    6.31
   4  17  -1    9.19    8.40
   4  17   1    8.11    5.10
  -4 -17   1    2.58    3.76
  -4 -17  -1    3.11    4.06
 -17  -4   1    8.24    5.03
 -17  -4  -1    4.76    3.68
  17   4  -2    0.00    2.86
  17  -4  -2   10.69    5.48
  17  -4   2    1.21    5.98
  17   4   2    6.97    3.55
   4  17  -2   16.29    6.35
   4  17   2    6.12    3.12
  -4 -17   2   10.56    4.55
  -4 -17  -2   -0.27    2.12
 -17  -4   2   -2.16    4.03
 -17  -4  -2    4.64    3.18
  17   4  -3   22.07    5.21
  17  -4  -3   29.09    8.30
  17  -4   3   21.93    8.11
   4  17  -3    9.57    4.02
   4  17   3   27.49    7.06
  -4 -17   3   22.00    7.29
  -4 -17  -3   14.74    5.57
 -17  -4   3   49.19    8.18
 -17  -4  -3   34.99    9.86
  17   4  -4   29.18    8.03
  17  -4  -4   40.07   11.68
  17  -4   4   24.13    6.70
  17   4   4   34.80   10.83
   4  17  -4   18.51    5.29
   4  17   4   27.43    6.94
  -4 -17   4   33.27   13.31
  -4 -17  -4   43.79    8.57
 -17  -4   4   38.66    8.58
 -17  -4  -4   34.23    6.98
  17   4  -5   12.43    5.30
  17  -4   5    7.32    3.47
  17   4   5   10.38    3.53
   4  17  -5    9.01    3.07
  -4 -17   5    9.48    4.24
  -4 -17  -5   26.40    7.35
 -17  -4   5    7.23    3.68
 -17  -4  -5   16.59    8.69
  17   4  -6    4.32    5.23
  17  -4  -6    3.13    3.21
  17  -4   6    4.87    3.33
  17   4   6    5.82    2.69
   4  17  -6   -5.61    5.80
  -4 -17   6    6.53    3.90
  -4 -17  -6   12.35    5.26
 -17  -4   6    5.54    4.03
 -17  -4  -6    3.77    3.24
  17   4  -7   20.87    8.40
  17  -4  -7   51.35    8.74
  17  -4   7   37.17    9.71
  17   4   7   25.17    7.40
   4  17  -7   36.50   10.24
  -4 -17   7   24.81    9.61
  -4 -17  -7   29.60   10.77
 -17  -4   7   22.45    7.60
 -17  -4  -7   24.74   11.45
  17   4  -8   33.32   10.91
  17  -4  -8   38.99   13.09
  17  -4   8   35.65   11.31
  17   4   8   36.07   15.30
   4  17  -8   37.09   11.98
  -4 -17  -8   47.61   12.69
 -17  -4   8   35.85   10.19
 -17  -4  -8   55.20   13.14
  17  -4  -9   32.67    6.28
  17  -4   9   10.43    6.53
  17   4   9   16.62    7.18
  -4  17  -9   18.14    5.72
   4  17  -9   17.52    7.23
  -4 -17  -9   18.02    7.93
 -17  -4   9   13.97    7.12
 -17  -4  -9    5.03    4.05
  17   4 -10    5.29    3.85
  17  -4 -10   10.87    5.98
  17  -4  10   11.74    4.76
  17   4  10    7.19    4.11
  -4  17 -10    4.46    2.81
   4  17 -10    8.16    5.70
  -4 -17 -10    3.61    2.97
 -17  -4 -10    6.38    5.80
  17   4 -11   11.24    9.63
  17  -4  11    3.70   11.57
  17   4  11    6.95    3.16
  -4  17 -11    3.66    3.09
   4  17 -11    6.54    2.75
 -17  -4 -11    1.27    1.81
  17   4 -12   24.08    5.83
  -4  17 -12    4.67    3.33
 -17  -4 -12   10.59    5.42
  17   5   0  120.29   22.46
  17  -5   0  150.99   22.26
   5  17   0  103.51   28.89
  -5 -17   0  118.98   25.34
 -17  -5   0  178.05   13.05
  17   5  -1    5.23    3.06
  17  -5  -1    2.93    4.34
  17   5   1    3.14    4.76
  17  -5   1    4.39    7.34
   5  17  -1   -5.52    4.80
   5  17   1    8.02    4.73
  -5 -17   1    2.22    1.59
  -5 -17  -1   -0.41    4.04
 -17  -5   1    2.47    4.53
 -17  -5  -1    3.40    2.44
  17   5  -2    2.32    3.27
  17  -5  -2   15.33    9.66
  17  -5   2   11.72    5.91
  17   5   2    2.53    4.48
   5  17  -2    7.92    4.82
   5  17   2    2.25    3.21
  -5 -17   2    3.92    3.44
  -5 -17  -2    3.03    4.06
 -17  -5   2    4.33    3.24
 -17  -5  -2    4.91    3.80
  17   5  -3    4.16    2.82
  17  -5  -3    7.29    5.55
  17  -5   3   15.20    7.05
   5  17   3   13.18    8.19
  -5 -17   3   13.78    5.34
  -5 -17  -3   25.68    7.54
 -17  -5   3   11.07    5.03
 -17  -5  -3   12.26    4.35
  17   5  -4    9.63    3.84
  17  -5  -4   27.60    7.59
  17  -5   4   31.31    8.09
  17   5   4   18.59    6.62
   5  17  -4   19.34    8.05
  17   5  -4    9.44    5.52
  -5 -17   4   26.94    5.75
  -5 -17  -4   31.01    8.18
 -17  -5   4   12.86    7.91
 -17  -5  -4    9.64    4.44
  17   5  -5    4.49    2.21
  17  -5  -5   -3.01    5.26
  17  -5   5    2.88    2.82
  17   5   5   -0.09    4.00
   5  17  -5    3.71    5.86
  -5 -17   5   -2.61    5.76
  -5 -17  -5    3.38    5.29
 -17  -5   5    8.30    3.42
 -17  -5  -5    1.10    4.56
  17   5  -6    2.35    1.78
  17  -5  -6    8.83    3.53
  17  -5   6    5.54    5.30
  17   5   6    9.87    2.96
   5  17  -6   18.19    8.78
  -5 -17   6    2.22    2.37
  -5 -17  -6   15.21    6.91
 -17  -5   6    7.74    4.01
 -17  -5  -6   23.82    7.57
  17   5  -7   15.25    5.87
  17  -5  -7   18.43    8.34
  17  -5   7   13.15    7.65
  17   5   7    9.15    3.43
  -5 -17   7   17.29    6.96
  -5 -17  -7   21.54    6.05
 -17  -5   7    8.76    3.30
 -17  -5  -7   17.71    6.78
  17   5  -8    3.67    2.63
  17  -5  -8    5.54    3.60
  17  -5   8   -3.54    5.07
  17   5   8    2.45    2.66
   5  17  -8    7.34    3.97
  -5 -17   8    5.88    2.54
  -5 -17  -8    8.07    4.26
 -17  -5   8    3.18    3.36
 -17  -5  -8    0.71    1.48
  17   5  -9    6.39    2.82
  17  -5  -9   16.91    6.21
  17  -5   9   -1.18    4.78
  17   5   9    7.80    3.44
   5  17  -9    1.97    3.58
  -5 -17   9    4.12    4.77
  -5 -17  -9    2.55    3.93
 -17  -5   9    5.98    4.21
 -17  -5  -9    5.29    3.75
  17   5 -10    8.32    4.26
  17  -5 -10   11.46    4.82
  17  -5  10   -2.41    4.74
  17   5  10   -1.01    3.11
   5  17 -10   -2.82    5.18
  -5 -17 -10    0.91    2.83
 -17  -5 -10    5.04    3.45
  17   5 -11   -0.47    4.08
  17   5  11   -1.94    5.61
 -17  -5 -11   -0.02    3.02
  17   6   0   -0.07    2.15
  17  -6   0    0.53    5.42
   6  17   0    2.26    2.31
  -6 -17   0    1.47    2.58
 -17  -6   0   -1.09    3.66
  17   6  -1   68.16   15.01
  17  -6  -1   60.75   19.74
  17   6   1   48.52   10.92
  17  -6   1   65.36   14.37
   6  17  -1   59.17   16.54
   6  17   1   68.36    9.24
  -6 -17   1   59.96   17.05
  -6 -17  -1   64.71   14.69
 -17  -6   1   51.98   11.68
 -17  -6  -1   59.21   12.57
  17   6  -2    6.72    5.26
  17  -6  -2    4.60    5.48
  17   6   2   17.72    6.47
  17  -6   2    5.82    4.26
   6  17  -2    7.17    5.56
   6  17   2    8.27    3.55
  -6 -17   2    6.05    3.52
  -6 -17  -2    7.71    4.41
 -17  -6   2    1.73    3.73
 -17  -6  -2    7.95    4.80
  17   6  -3    4.41    4.38
  17  -6  -3    3.93    3.67
  17   6   3   25.93    6.40
  17  -6   3    7.91    5.18
   6  17  -3    9.29    5.95
   6  17   3   14.16    6.12
  -6 -17   3    7.13    5.04
  -6 -17  -3    6.02    8.05
 -17  -6   3    9.15    3.00
 -17  -6  -3    7.17    3.46
  17   6  -4    8.84    5.30
  17  -6  -4   23.81    7.50
  17  -6   4   15.67    5.29
  17   6   4   10.93    5.92
   6  17  -4   15.81    7.07
  17   6  -4    8.90    5.48
  -6 -17   4   10.06    6.34
  -6 -17  -4    9.38    4.48
 -17  -6   4   13.47    7.11
 -17  -6  -4   15.95    6.42
  17   6  -5    9.63    3.42
  17  -6  -5    8.86    4.26
  17  -6   5    5.63    2.41
  17   6   5   10.79    6.05
   6  17  -5   13.49    7.95
  17   6  -5    9.50    5.66
  -6 -17   5   12.74    4.95
  -6 -17  -5   13.90    7.87
 -17  -6   5   17.29    5.18
 -17  -6  -5    5.50    6.12
  17   6  -6    0.14    3.11
  17  -6  -6    9.68    5.65
  17  -6   6    6.39    4.10
  17   6   6    3.82    3.23
   6  17  -6   12.87    7.45
  -6 -17   6    6.95    3.19
  -6 -17  -6    5.00    2.77
 -17  -6   6    4.57    2.16
 -17  -6  -6    4.68    4.14
  17   6  -7    4.38    2.36
  17  -6  -7    2.54    3.56
  17  -6   7    5.01    4.79
  17   6   7    6.86    2.46
   6  17  -7   -2.92    5.28
  -6 -17   7   -1.06    5.82
  -6 -17  -7    5.38    3.98
 -17  -6   7    3.51    3.00
 -17  -6  -7    1.02    3.62
  17   6  -8    1.92    2.99
  17  -6  -8    9.33    5.12
  17  -6   8    3.36    4.97
  17   6   8   -0.15    3.96
   6  17  -8    3.06    3.90
  -6 -17   8    5.09    3.98
  -6 -17  -8    1.72    2.51
 -17  -6   8    0.61    2.99
 -17  -6  -8    5.01    2.67
  17   6  -9   18.29   10.03
  17  -6  -9   -2.47    4.73
  17  -6   9    3.45    4.58
  17   6   9    7.28    3.71
   6  17  -9    5.11    3.60
  -6 -17   9    2.15    1.77
  -6 -17  -9    4.34    2.76
 -17  -6   9    1.86    1.81
 -17  -6  -9    1.83    3.31
  17   6 -10   17.49    6.99
  17  -6 -10   10.81    3.83
  17  -6  10    4.26    3.08
  17   6  10    0.44    2.54
   6  17 -10    2.71    5.43
  -6 -17  10    1.22    1.96
  -6 -17 -10    2.48    2.33
 -17  -6 -10   -0.84    3.14
  17   6 -11    2.41    3.55
  17   6  11    6.06    4.09
 -17  -6 -11   10.26    4.55
  17   7   0    9.63    4.17
  17  -7   0   -4.64    4.81
   7  17   0    5.68    2.27
  -7 -17   0    2.03    2.79
 -17  -7   0    8.39    4.73
  17   7  -1   -0.72    3.77
  17  -7  -1    1.88    1.88
  17   7   1    7.07    2.57
  17  -7   1    4.28    2.61
   7  17  -1   -0.37    6.04
   7  17   1    5.24    5.11
  -7 -17   1    4.34    3.15
  -7 -17  -1    8.02    3.58
 -17  -7   1    3.81    4.96
 -17  -7  -1    3.77    3.36
  17   7  -2   16.38    5.84
  17  -7  -2   30.69    8.13
  17   7   2   10.36    4.42
  17  -7   2   18.33    6.40
   7  17  -2   15.08    9.17
   7  17   2   19.40    5.21
  -7 -17   2   19.39    6.00
  -7 -17  -2   23.27    8.36
 -17  -7   2   15.43    4.67
 -17  -7  -2   17.41    7.25
  17   7  -3   21.33    5.89
  17  -7  -3   14.59    3.86
  17   7   3   29.48    6.08
  17  -7   3   28.23    8.94
   7  17  -3   30.24    8.02
  -7 -17   3   29.75    9.01
  -7 -17  -3   23.16   10.38
 -17  -7   3   30.51    7.70
 -17  -7  -3   35.25    8.42
  17   7  -4    3.03    5.10
  17  -7  -4   15.42    7.78
  17  -7   4    6.59    3.73
  17   7   4    4.13    3.66
   7  17  -4   11.71    8.90
  17   7  -4    3.43    5.46
  -7 -17   4    8.63    8.26
  -7 -17  -4    9.43    5.78
 -17  -7   4    6.49    3.24
 -17  -7  -4    7.35    3.67
  17   7  -5   22.60    6.46
  17  -7  -5   11.66    4.97
  17  -7   5   24.52    6.78
  17   7   5   20.88    8.17
   7  17  -5   12.99    7.46
  17   7  -5   10.84    6.57
  -7 -17   5   24.95    7.05
  -7 -17  -5   28.48    6.75
 -17  -7   5   12.13    6.59
 -17  -7  -5   18.06    8.14
  17   7  -6   23.13    8.14
  17  -7  -6   20.77    6.71
  17  -7   6   21.85    6.66
  17   7   6   10.06    4.53
   7  17  -6    3.43    3.76
  17   7  -6   22.23    8.54
  -7 -17   6   10.50    7.06
  -7 -17  -6   14.58    5.25
 -17  -7   6   14.60    5.98
 -17  -7  -6   19.68    7.15
  17  -7  -7   12.58    7.11
  17  -7   7    5.21    4.66
  17   7   7   14.60    5.51
   7  17  -7    9.54    5.14
  17   7  -7   17.58    6.51
  -7 -17   7   13.05    5.97
  -7 -17  -7   18.66    8.99
 -17  -7   7   10.44    4.86
 -17  -7  -7   21.64    9.10
  17   7  -8    4.42    4.09
  17  -7  -8    3.53    3.38
  17  -7   8    1.50    3.88
  17   7   8    2.03    2.37
   7  17  -8    3.93    2.69
  -7 -17   8    5.37    5.33
  -7 -17  -8    9.97    6.27
 -17  -7   8    1.91    3.03
 -17  -7  -8    9.26    4.25
  17   7  -9    5.32    4.14
  17  -7  -9    4.02    4.33
  17  -7   9    9.66    3.77
  17   7   9    2.73    2.43
   7  17  -9    6.06    4.55
  -7 -17   9   17.65    5.77
  -7 -17  -9    3.25    2.93
 -17  -7   9    1.96    1.76
 -17  -7  -9    6.45    6.90
  17   7 -10    3.56    3.72
  17   7  10    5.42    4.56
  -7 -17  10    9.59    5.17
  -7 -17 -10    9.38    3.96
 -17  -7 -10    7.52    2.23
 -17  -7 -11   -0.06    3.01
  17   8   0    7.06    3.11
  17  -8   0    2.33    4.08
   8  17   0    2.39    4.15
  -8 -17   0   11.44    4.42
 -17  -8   0    5.99    3.88
  17  -8  -1    4.34    4.44
  17   8   1    6.08    3.84
  17  -8   1    0.73    2.63
   8  17  -1    8.32    4.74
   8  17   1   -1.37    4.95
  -8 -17   1    3.46    2.62
  -8 -17  -1    5.73    3.92
 -17  -8   1    1.92    4.10
 -17  -8  -1   10.74    5.98
  17  -8  -2   16.32    7.17
  17   8   2   11.55    6.17
  17  -8   2    8.36    6.14
   8  17  -2    3.27    2.90
   8  17   2    9.94    6.28
  -8 -17   2    6.42    2.60
  -8 -17  -2   14.26    5.05
 -17  -8   2    5.95    4.47
 -17  -8  -2   15.02    6.25
  17  -8  -3    6.35    3.73
  17   8   3   16.61    5.87
  17  -8   3    6.64    4.68
   8  17  -3    4.50    5.42
  -8 -17   3    4.63    5.13
  -8 -17  -3    6.77    5.47
 -17  -8   3   14.24    5.02
 -17  -8  -3    2.85    3.71
  17  -8  -4    4.62    3.30
  17   8   4    1.06    2.94
  17  -8   4    9.30    7.64
   8  17  -4    1.28    7.32
  17   8  -4   -1.35    4.26
  -8 -17   4    5.85    3.59
  -8 -17  -4    1.61    3.61
 -17  -8   4    0.04    3.84
 -17  -8  -4    2.60    1.65
  17  -8  -5   13.52    5.67
  17  -8   5   16.59    5.07
  17   8   5   12.73    4.24
   8  17  -5   25.32    9.29
  17   8  -5   21.69    8.30
  -8 -17   5   26.14    8.56
  -8 -17  -5   18.13    6.99
 -17  -8   5    5.19    5.86
 -17  -8  -5   22.66    8.62
  17  -8  -6    5.55    3.60
  17  -8   6    4.20    2.82
   8  17  -6    6.59    6.71
  17   8  -6    1.28    3.25
  -8 -17   6   -0.55    3.28
  -8 -17  -6    4.55    3.07
 -17  -8   6    9.92    3.79
 -17  -8  -6    8.16    3.98
  17  -8  -7    8.55    5.39
  17  -8   7    7.99    6.55
   8  17  -7   13.86    4.82
  17   8  -7   19.49    6.55
  -8 -17   7    8.96    5.24
  -8 -17  -7   11.17    6.79
 -17  -8   7    5.45    4.02
 -17  -8  -7   22.14    6.96
  17  -8  -8    9.37    4.74
  17  -8   8   11.62    4.85
  17   8  -8    4.16    4.39
  -8 -17   8    6.43    4.95
  -8 -17  -8    2.25    1.80
 -17  -8   8   -0.44    3.07
 -17  -8  -8    3.04    3.85
  17  -8   9    8.84    3.07
  -8 -17   9   10.30    6.76
  -8 -17  -9    5.21    3.70
 -17  -8   9    6.54    4.48
 -17  -8  -9   13.22    6.09
  -8 -17  10    1.04    3.39
  17  -9   0   -1.22    5.51
   9  17   0   16.47    6.99
  -9 -17   0   -0.74    4.13
 -17  -9   0    4.90    1.59
  17  -9  -1   22.02    5.59
  17  -9   1   18.21    8.26
   9  17  -1   10.56    5.39
   9  17   1    8.08    8.29
  -9 -17   1    7.75    4.78
  -9 -17  -1   33.57    8.18
 -17  -9   1    9.99    5.44
 -17  -9  -1   13.18    7.72
  17  -9  -2    8.65    5.21
  17  -9   2    7.33    1.82
   9  17  -2    4.81    4.29
   9  17   2   23.44    8.28
  -9 -17   2    7.31    4.43
  -9 -17  -2    5.90    3.47
 -17  -9   2    2.97    2.19
 -17  -9  -2    2.68    4.08
  17  -9  -3   59.90   10.95
  17  -9   3   16.00    6.79
   9  17  -3   60.70   11.71
  17   9  -3   38.79   13.31
  -9 -17   3   31.85   13.35
  -9 -17  -3   39.21   11.04
 -17  -9   3   39.33   10.82
 -17  -9  -3   44.99    8.96
  17  -9  -4    8.73    6.02
  17  -9   4   18.02    5.89
   9  17  -4    0.41    6.14
  17   9  -4    3.89    3.11
  -9 -17   4   12.21    5.31
  -9 -17  -4   11.42    6.21
 -17  -9   4    8.14    5.36
 -17  -9  -4    7.60    5.44
  17  -9  -5    3.92    3.41
  17  -9   5    3.33    4.68
   9  17  -5   19.56    9.38
  17   9  -5    1.46    3.46
  -9 -17   5   10.48    4.88
  -9 -17  -5    5.79    5.15
 -17  -9   5    1.57    2.52
 -17  -9  -5    1.66    3.98
  17  -9  -6   12.92    8.67
  17  -9   6    2.75    2.24
   9  17  -6   -4.55    5.57
  17   9  -6    5.58    2.25
  -9 -17   6    9.36    6.39
  -9 -17  -6    2.33    2.48
 -17  -9   6    4.21    4.33
 -17  -9  -6    2.56    3.60
  17  -9  -7    5.74    3.50
  17  -9   7    2.30    2.90
  17   9  -7    2.38    4.14
  -9 -17   7    2.33    3.45
  -9 -17  -7    7.27    5.08
 -17  -9   7    3.23    3.01
 -17  -9  -7    1.73    3.73
  17  -9   8    5.26    3.63
  17   9  -8    6.90    5.59
  -9 -17   8    8.53    3.68
  -9 -17  -8    3.65    3.19
 -17  -9   8    3.76    3.59
  17 -10   0    2.97    2.73
  10  17   0    3.74    3.14
 -10 -17   0   -2.45    4.63
 -17 -10   0   -3.37    3.90
  17 -10  -1   14.34    9.30
  17 -10   1    5.97    3.19
  10  17  -1    5.12    2.97
  10  17   1    7.09    3.99
 -10 -17   1   14.62    5.36
 -10 -17  -1    4.38    2.53
 -17 -10   1    5.99    2.05
 -17 -10  -1    5.46    5.16
  17 -10  -2   13.66    4.68
  17 -10   2   19.11    6.77
  10  17  -2   15.91    9.73
 -10 -17   2   18.72    5.53
 -10 -17  -2   19.02    4.75
 -17 -10   2   13.78    7.99
 -17 -10  -2   27.65    8.63
  17 -10  -3   12.71    6.12
  17 -10   3    8.00    6.62
  10  17  -3   12.96    8.48
  17  10  -3    6.72    5.60
 -10 -17   3    9.61    3.89
 -10 -17  -3    8.73    4.80
 -17 -10   3    6.16    5.50
 -17 -10  -3   19.55    8.63
  17 -10  -4    6.75    3.70
  17 -10   4    4.56    4.27
  17  10  -4    5.48    5.47
 -10 -17   4   13.16    4.73
 -10 -17  -4    7.36    3.30
 -17 -10   4   22.27    6.12
 -17 -10  -4    8.47    5.98
  17 -10  -5   11.65    5.79
  17 -10   5    8.97    4.29
  17  10  -5    9.83    4.81
 -10 -17   5   11.73    6.08
 -10 -17  -5    9.20    5.10
 -17 -10   5   15.17    7.82
  17 -10  -6   10.99    4.61
  17 -10   6    3.74    2.97
  17  10  -6    6.93    5.83
 -10 -17   6    1.41    5.01
 -17 -10   6    5.33    5.05
  17 -10  -7   30.69    4.14
  17 -10   7   -0.36    3.57
  17  10  -7    4.12    4.55
  17 -11   0   10.46    5.27
  17 -11  -1   12.78    6.17
  17 -11   1    4.01    2.78
  17 -11  -2    5.92    4.24
  17 -11   2    7.05    3.23
  17  11  -2    7.69    5.10
  17 -11  -3    4.15    3.79
  17 -11   3    5.15    3.91
  17  11  -3   -2.45    5.05
  17 -11  -4    6.11    3.94
  17 -11   4    2.03    3.33
  17  11  -4    5.79    3.17
  17 -11  -5   15.65    5.08
  17 -11   5   11.90    4.30
  18   0   0   16.82    7.04
  18   0  -1   17.13    8.07
  18   0   1    8.02    3.64
  18   0  -2    9.00    4.35
  18   0   2    3.04    5.50
  18   0  -3   11.27    5.38
  18   0   3    1.30    3.82
   0  18  -3    9.17    3.06
  18   0  -4   14.82    6.70
  18   0   4   21.56    5.42
   0  18  -4   23.25    6.36
  18   0  -5    9.67    6.19
  18   0   5    2.63    3.79
   0  18  -5    7.64    5.20
 -18   0   5   10.91    5.94
  18   0  -6    9.29    6.50
  18   0   6    8.09    4.86
   0  18  -6   12.00    6.29
 -18   0   6    3.59    2.58
  18   0  -7    8.80    7.04
  18   0   7   18.39    7.05
   0  18  -7   22.05    7.65
 -18   0   7    1.95    2.82
  18   0  -8    1.40    3.39
  18   0   8    5.28    4.57
   0  18  -8    6.97    3.85
 -18   0   8    5.66    4.40
  18   0  -9   -3.12    5.00
  18   0   9   -0.33    2.28
 -18   0  -9    8.76    3.21
   0  18  -9    4.13    2.89
 -18   0  -9    4.02    3.64
  18   0 -10    6.77    5.41
  18   0  10    2.66    4.64
 -18   0 -10    3.03    2.11
   0  18 -10   -0.72    4.24
 -18   0 -10    3.64    4.05
 -18   0 -11    8.90    3.84
   0  18 -11   10.85    6.76
 -18   0 -11   13.28    5.07
  18   1   0    5.77    3.84
  18  -1   0    1.66    3.33
   1  18   0    8.35    2.44
  18   1  -1   19.71    9.26
  18  -1  -1   18.98    9.12
  18  -1   1    5.60    3.75
  18   1   1   25.09    8.32
   1  18  -1    7.54    5.54
 -18  -1   1    5.63    2.11
  18   1  -2    7.28    2.49
  18  -1  -2   13.71    5.44
  18  -1   2   13.61   11.64
  18   1   2    6.18    6.41
   1  18  -2    4.94    5.56
 -18  -1   2    2.11    3.66
  18   1  -3   27.64    6.41
  18  -1  -3   24.27    9.01
  18  -1   3    7.14    2.34
  18   1   3   32.02    6.43
   1  18  -3   30.71   10.28
 -18  -1   3   19.66    8.25
  18   1  -4    9.73    4.85
  18  -1  -4   14.16    4.25
  18   1   4   15.52    7.43
  18  -1   4   20.60    7.72
  -1  18  -4   14.04    4.77
   1  18  -4   10.27    5.13
 -18  -1   4    9.19    4.39
  18  -1  -5    2.21    3.63
  18   1  -5    1.50    3.06
  18  -1   5    8.98    3.29
  18   1   5    9.49    7.02
  -1  18  -5    6.69    4.85
   1  18  -5    3.69    3.14
 -18  -1   5    3.14    3.47
 -18  -1  -5    2.47    3.28
  18   1  -6    3.09    6.93
  18  -1  -6    8.27    4.22
  18  -1   6   -0.49    4.84
  18   1   6   -1.71    4.94
  -1  18  -6    6.13    3.84
   1  18  -6    1.68    2.90
 -18  -1   6    3.51    3.69
 -18  -1  -6    9.46    6.06
  18   1  -7   16.51    7.00
  18  -1  -7   18.45    6.85
  18   1   7   11.97    3.58
  18  -1   7   16.73    5.68
  -1  18  -7   22.57    6.68
   1  18  -7   10.56    7.49
 -18  -1   7   15.57    5.62
 -18  -1  -7   12.31    5.24
  18   1  -8    2.77    4.39
  18  -1  -8   13.61    7.44
  18  -1   8    7.78    4.42
  18   1   8    2.05    4.41
  -1  18  -8    5.51    5.11
   1  18  -8    4.87    4.52
 -18  -1   8   10.36    6.02
 -18  -1  -8    2.37    5.27
 -18   1   8    3.74    2.81
  18   1  -9   14.35    8.21
  18  -1  -9   16.75    6.05
  18  -1   9   13.62    4.79
  18   1   9   12.27    6.70
 -18  -1  -9   11.07    4.92
 -18   1  -9   12.72    6.07
  -1  18  -9   33.34   10.64
   1  18  -9    7.12    6.67
 -18  -1  -9   17.84    8.63
  18   1 -10   -0.48    4.03
  18  -1 -10   -0.47    4.29
 -18  -1 -10    0.49    2.31
 -18   1 -10    1.41    1.78
  -1  18 -10    3.56    4.06
   1  18 -10    4.88    6.25
 -18  -1 -10    3.53    3.46
 -18  -1 -11    4.35    3.95
 -18   1 -11    5.71    3.46
  -1  18 -11    3.47    4.33
 -18  -1 -11    1.89    2.86
 -18   1 -12    2.53    3.74
  18   2   0    3.94    3.27
  18  -2   0   12.11    5.67
   2  18   0    0.38    3.20
 -18  -2   0    2.88    4.20
  18   2  -1    8.59    6.72
  18  -2  -1   24.13   10.46
  18   2   1   26.95    9.51
  18  -2   1   12.36    4.88
   2  18  -1   17.88    7.89
   2  18   1   19.74    5.13
 -18  -2   1   14.40    5.71
 -18  -2  -1   23.46    6.54
  18   2  -2    2.28    4.60
  18  -2  -2   -1.00    5.34
  18   2   2    1.34    4.72
  18  -2   2    4.38    5.45
   2  18  -2   -0.62    3.67
 -18  -2   2   -0.98    3.81
 -18  -2  -2    8.84    5.14
  18   2  -3    4.96    4.91
  18  -2  -3    5.72    3.74
  18   2   3   -0.38    2.72
  18  -2   3   -0.58    5.67
   2  18  -3    6.66    3.46
 -18  -2   3    4.91    4.34
 -18  -2  -3    7.14    3.15
  18   2  -4    4.44    4.38
  18  -2  -4   15.36    5.95
  18   2   4    3.14    2.99
  18  -2   4    5.13    4.19
   2  18  -4    7.60    4.74
 -18  -2   4    4.79    3.62
 -18  -2  -4    3.66    1.94
  18   2  -5   26.99   10.49
  18  -2  -5   40.47   14.72
  18  -2   5   14.30    5.66
  18   2   5   33.12   11.59
   2  18  -5   34.22    8.42
 -18  -2   5   41.82   11.55
 -18  -2  -5   57.72    9.64
  18   2  -6   46.36    7.26
  18  -2  -6   24.46   10.32
  18  -2   6   24.04    9.42
  18   2   6   40.04    7.68
   2  18  -6   42.74    9.54
 -18  -2   6   18.60    7.00
 -18  -2  -6   33.91   12.00
  18   2  -7   17.80    6.07
  18  -2  -7   18.91    7.68
  18  -2   7    6.56    4.89
  18   2   7   16.67    6.13
  -2  18  -7    6.66    3.60
   2  18  -7   13.79    5.69
 -18  -2   7   18.56    5.03
 -18  -2  -7   10.09    7.08
  18   2  -8    0.45    4.09
  18  -2  -8    3.87    2.71
  18  -2   8    8.34    5.43
  18   2   8    7.90    4.46
  -2  18  -8    2.93    4.03
   2  18  -8    3.97    2.91
 -18  -2   8    0.34    3.84
 -18  -2  -8    4.03    4.76
  18   2  -9    1.27    2.01
  18  -2  -9    4.73    3.82
  18   2   9   -1.67    2.28
  18  -2   9    3.28    3.80
  -2  18  -9    3.42    3.83
   2  18  -9    5.45    3.78
 -18  -2   9    1.60    1.61
 -18  -2  -9    2.25    3.20
  18   2 -10    9.80    5.66
  18   2  10   17.09    6.58
  -2  18 -10    9.35    3.79
   2  18 -10   12.27    6.23
 -18  -2 -10    7.30    4.66
  -2  18 -11    2.79    2.78
 -18  -2 -11    5.10    5.02
  18   3   0    8.03    5.29
  18  -3   0    3.14    4.67
   3  18   0   11.38    6.28
  -3 -18   0   -1.33    4.21
 -18  -3   0   18.97    6.05
  18   3  -1   15.64    7.03
  18  -3  -1   11.31    5.65
  18   3   1    9.76    3.25
  18  -3   1    9.87    6.80
   3  18  -1    7.37    3.26
   3  18   1    0.09    3.97
  -3 -18   1   11.84    4.57
  -3 -18  -1   10.48    5.77
 -18  -3   1    9.37    6.15
 -18  -3  -1   10.78    6.12
  18   3  -2   15.87    7.14
  18  -3  -2   24.42    9.14
  18  -3   2   17.53    5.37
   3  18  -2   15.13    6.09
   3  18   2    9.79    5.76
  -3 -18   2   17.51    7.75
  -3 -18  -2   22.82    8.21
 -18  -3   2   28.41    7.60
 -18  -3  -2   16.70    7.53
  18   3  -3   48.70   14.62
  18  -3  -3   36.21   17.12
  18   3   3   35.29    8.79
  18  -3   3   48.99   13.40
   3  18  -3   14.69    6.06
   3  18   3   38.44   13.04
  -3 -18  -3   38.54   15.72
 -18  -3   3   44.34   11.31
 -18  -3  -3   33.56    7.96
  18   3  -4   12.09    6.32
  18  -3  -4   15.74    8.68
  18  -3   4   13.94    5.19
  18   3   4   26.96   10.54
   3  18  -4   24.73    8.09
  -3 -18  -4   11.58    6.21
 -18  -3   4   14.62    8.52
 -18  -3  -4   13.17    5.65
  18   3  -5    8.03    5.53
  18  -3  -5    2.00    3.96
  18  -3   5   13.85    4.63
  18   3   5   -4.20    4.67
   3  18  -5    0.90    3.10
  -3 -18  -5    5.30    4.70
 -18  -3   5    6.36    2.65
 -18  -3  -5   11.02    6.42
  18   3  -6    3.44    1.98
  18  -3  -6    3.35    3.93
  18   3   6    6.13    2.56
  18  -3   6   -0.73    4.69
   3  18  -6   -1.71    4.43
 -18  -3   6   -0.25    3.18
 -18  -3  -6    2.61    3.74
  18   3  -7    1.07    3.04
  18  -3  -7    3.04    3.19
  18  -3   7    0.91    2.89
  18   3   7    5.65    5.25
   3  18  -7    2.50    3.23
 -18  -3   7    4.44    3.03
 -18  -3  -7    5.52    4.25
  18   3  -8    9.32    5.34
  18  -3  -8    5.37    2.83
  18  -3   8    2.79    3.72
  18   3   8    4.09    3.21
   3  18  -8    5.98    4.40
 -18  -3   8    4.82    3.81
 -18  -3  -8    3.93    5.23
  18   3  -9   11.70    4.60
  18  -3  -9   15.33    5.03
  18  -3   9   11.91    5.30
  18   3   9    3.48    4.62
   3  18  -9   14.52    4.25
 -18  -3   9    5.90    2.36
 -18  -3  -9   12.08    5.96
  18   3 -10   13.03    5.07
  18   3  10   18.76    7.17
  -3  18 -10    5.53    3.45
 -18  -3 -10    7.84    4.30
 -18  -3 -11   -0.09    3.29
  18   4   0   15.82    5.74
  18  -4   0   21.28    7.14
   4  18   0    7.83    4.19
  -4 -18   0   16.85    6.12
 -18  -4   0   28.03    8.15
  18   4  -1   42.50    9.00
  18   4   1   24.44    8.02
  18  -4   1   41.24    8.63
   4  18  -1   24.04    7.15
   4  18   1   36.74   11.13
  -4 -18   1   38.06   11.80
  -4 -18  -1   42.20   13.16
 -18  -4   1   29.77   12.72
 -18  -4  -1   52.27   10.50
  18   4  -2    0.55    2.47
  18  -4  -2    1.12    3.24
  18   4   2    4.65    4.36
  18  -4   2   12.75    5.61
   4  18  -2    6.28    4.03
   4  18   2    6.67    2.50
  -4 -18   2    2.69    3.00
  -4 -18  -2   11.92    5.12
 -18  -4   2   10.84    7.53
 -18  -4  -2   11.81    6.81
  18   4  -3    6.46    4.02
  18  -4  -3   17.42    7.40
  18  -4   3    7.60    4.98
  18   4   3   15.84    6.03
   4  18  -3    0.07    4.65
   4  18   3    7.02    2.77
  -4 -18   3    5.45    4.57
  -4 -18  -3   -2.08    3.92
 -18  -4   3    3.71    3.33
 -18  -4  -3   10.79    5.37
  18   4  -4   17.28    5.72
  18  -4  -4    9.11    3.21
  18  -4   4   37.98    6.29
  18   4   4   11.53    4.86
   4  18  -4    7.73    4.68
   4  18   4   12.38    5.92
  -4 -18   4   10.62    6.75
  -4 -18  -4   28.65    6.52
 -18  -4   4   18.12    4.46
 -18  -4  -4    9.66    4.29
  18   4  -5   23.28    8.75
  18  -4  -5   22.28    6.76
  18   4   5   18.33    5.47
  18  -4   5   16.13    6.17
   4  18  -5   24.90    7.57
   4  18   5   14.35    5.74
  -4 -18   5   26.44    9.41
  -4 -18  -5   27.25    9.46
 -18  -4  -5   28.38    9.08
  18   4  -6    3.70    2.41
  18  -4  -6   -1.51    4.51
  18  -4   6   -0.48    3.88
  18   4   6    5.78    2.94
   4  18  -6    4.29    4.06
  -4 -18  -6    1.96    3.01
 -18  -4   6    3.32    3.75
 -18  -4  -6    9.77    6.30
  18   4  -7    1.98    3.55
  18  -4  -7    5.65    3.05
  18   4   7    2.77    3.79
  18  -4   7    7.44    4.67
   4  18  -7    4.84    2.78
  -4 -18  -7    5.41    4.11
 -18  -4   7    8.02    4.38
 -18  -4  -7    5.90    4.60
  18   4  -8   23.40    8.36
  18  -4  -8    4.60    2.76
  18  -4   8   24.88    8.96
  18   4   8   10.29    5.29
   4  18  -8   17.43    8.85
  -4 -18  -8   19.51    7.42
 -18  -4   8   19.94    7.49
 -18  -4  -8   15.65    8.46
  18   4  -9   -0.29    2.04
  18  -4  -9   12.96    5.12
  18   4   9    3.39    4.33
   4  18  -9    4.96    5.08
 -18  -4  -9    5.13    4.21
  18   4 -10    3.47    4.70
 -18  -4 -10   -1.64    3.63
  18   5   0   12.61    5.80
  18  -5   0   15.77    6.05
   5  18   0   15.44    4.86
  -5 -18   0   23.73    6.15
 -18  -5   0   27.24    7.19
  18   5  -1    2.11    4.07
  18  -5  -1   -1.11    5.35
  18   5   1   16.18    6.03
  18  -5   1   12.86    6.43
   5  18  -1    9.38    4.24
   5  18   1    2.31    3.56
  -5 -18   1   12.05    5.34
  -5 -18  -1    7.53    3.47
 -18  -5   1   11.16    5.20
 -18  -5  -1   10.62    5.80
  18   5  -2    2.55    2.68
  18  -5  -2   14.28    4.77
  18   5   2    8.93    3.56
  18  -5   2    5.04    5.47
   5  18  -2    9.56    5.62
   5  18   2    9.78    3.78
  -5 -18   2   14.64    6.93
  -5 -18  -2    8.88    4.48
 -18  -5   2   10.76    4.06
 -18  -5  -2   12.29    7.55
  18   5  -3    7.21    2.26
  18  -5  -3    7.08    5.66
  18   5   3    5.50    4.77
  18  -5   3    5.71    3.13
   5  18  -3   16.45    6.12
   5  18   3    3.71    3.75
  -5 -18   3    6.53    5.51
  -5 -18  -3   10.16    6.03
 -18  -5   3    4.07    3.23
 -18  -5  -3   -3.49    3.90
  18   5  -4   10.64    2.57
  18  -5  -4    9.06    3.46
  18   5   4    6.12    6.17
  18  -5   4   13.20    4.72
   5  18  -4   31.99    9.60
   5  18   4   13.21    6.14
  -5 -18   4   18.05    8.42
  -5 -18  -4   12.14    7.54
 -18  -5   4   13.20    4.92
 -18  -5  -4    6.39    6.37
  18   5  -5   26.97    8.38
  18  -5  -5   10.92    8.26
  18  -5   5   20.13    9.89
  18   5   5   10.16    4.36
   5  18  -5   11.96    4.34
   5  18   5   17.86    6.19
  -5 -18  -5   21.66    7.31
 -18  -5   5   23.33    6.79
 -18  -5  -5   17.50    6.39
  18   5  -6    6.44    3.88
  18  -5  -6   21.89    8.14
  18  -5   6    8.96    5.26
  18   5   6    1.97    3.03
   5  18  -6   12.57    7.83
  -5 -18   6   13.85    5.75
  -5 -18  -6    7.49    6.79
 -18  -5   6    4.42    4.18
 -18  -5  -6    8.49    5.65
  18   5  -7   12.62    5.58
  18  -5  -7    7.02    5.65
  18  -5   7    5.38    2.96
  18   5   7    2.11    4.44
   5  18  -7    7.04    4.36
  -5 -18   7    6.34    4.82
  -5 -18  -7   11.75    5.58
 -18  -5   7    3.21    3.44
 -18  -5  -7   15.68    5.94
  18   5  -8    7.09    5.39
  18  -5  -8   12.41    4.36
  18  -5   8    4.26    3.20
  18   5   8    9.51    5.31
   5  18  -8   12.60    5.02
  -5 -18  -8   10.66    5.17
 -18  -5   8   10.24    3.71
 -18  -5  -8    9.62    5.09
  18   5  -9    3.02    3.96
  18   5   9   -0.86    4.51
  -5 -18  -9    7.64    4.02
 -18  -5  -9    5.66    3.07
  18   5 -10    7.80    4.53
  18   6   0    4.50    4.00
  18  -6   0    8.70    5.58
   6  18   0    4.72    3.22
  -6 -18   0   -0.68    2.88
 -18  -6   0    2.95    3.52
  18   6  -1    2.61    4.26
  18  -6  -1   12.54    7.13
  18   6   1    9.88    4.31
  18  -6   1   10.59    3.04
   6  18  -1    2.95    2.15
   6  18   1   -0.18    4.20
  -6 -18   1   10.45    4.76
  -6 -18  -1    2.70    4.38
 -18  -6   1   16.52    6.67
 -18  -6  -1    6.24    3.24
  18   6  -2   13.93    6.48
  18  -6  -2    2.85    3.62
  18   6   2    7.79    4.28
  18  -6   2    1.39    3.28
   6  18  -2   11.32    6.24
   6  18   2   10.58    5.61
  -6 -18   2    9.01    4.76
  -6 -18  -2   19.06    6.96
 -18  -6   2   17.41    6.74
 -18  -6  -2    9.05    7.20
  18   6  -3    6.75    3.66
  18  -6  -3   16.27    7.26
  18   6   3    6.87    3.42
  18  -6   3   20.56    5.36
   6  18  -3   -1.27    5.67
   6  18   3   12.77    5.42
  -6 -18   3   14.24    5.83
  -6 -18  -3    4.56    8.38
 -18  -6   3    4.68    4.79
 -18  -6  -3    9.70    6.06
  18   6  -4    5.94    2.92
  18  -6  -4    3.30    5.20
  18   6   4    4.44    2.62
  18  -6   4    6.66    2.94
   6  18  -4    2.26    4.27
   6  18   4    4.65    4.34
  -6 -18   4   -1.87    4.43
  -6 -18  -4    9.35    2.72
 -18  -6   4    1.50    3.41
 -18  -6  -4    0.92    3.10
  18   6  -5   19.73    6.58
  18  -6  -5   13.15    5.67
  18  -6   5   16.40    6.13
  18   6   5    9.89    4.14
   6  18  -5   13.06    6.37
  -6 -18   5   27.50    9.24
  -6 -18  -5   38.37    8.38
 -18  -6   5   34.79   10.99
 -18  -6  -5   10.55    6.97
  18   6  -6    6.61    4.26
  18  -6  -6   -0.05    4.71
  18  -6   6    3.69    3.86
  18   6   6   -1.44    4.06
   6  18  -6    4.64    4.38
  -6 -18   6    4.96    2.83
  -6 -18  -6    2.78    3.95
 -18  -6   6    7.59    5.08
 -18  -6  -6   14.01    5.78
  18  -6  -7   10.39    7.93
  18  -6   7   22.20    7.94
  18   6   7   17.41    4.98
   6  18  -7   13.11    7.09
  -6 -18   7   25.83   10.94
  -6 -18  -7   17.06    8.23
 -18  -6   7   16.73    5.08
 -18  -6  -7    8.21    6.33
  18   6  -8    7.62    3.53
  18   6   8    6.67    3.36
  -6 -18   8    6.96    6.35
  -6 -18  -8    8.83    2.80
 -18  -6   8   17.51    5.19
 -18  -6  -8    3.20    4.09
  18   6  -9    1.73    4.70
  18   6   9    6.53    4.65
  -6 -18   9    9.75    8.17
  -6 -18  -9    8.85    4.57
  18   7   0    4.37    4.57
  18  -7   0    0.85    3.32
   7  18   0   10.53    8.39
  -7 -18   0    2.18    4.57
 -18  -7   0    7.67    3.78
  18   7  -1    6.01    3.75
  18  -7  -1    8.13    3.34
  18   7   1    3.22    3.71
  18  -7   1    4.12    4.64
   7  18  -1   11.38    5.44
   7  18   1    3.88    2.36
  -7 -18   1    3.86    4.75
  -7 -18  -1    6.07    3.40
 -18  -7   1   -2.33    4.39
 -18  -7  -1    6.68    4.36
  18   7  -2   15.61    7.87
  18  -7  -2   13.36    6.15
  18   7   2    6.36    4.34
  18  -7   2   19.44    7.97
   7  18  -2   34.95    8.34
   7  18   2    8.97    3.68
  -7 -18   2   14.51    6.80
  -7 -18  -2    8.71    4.44
 -18  -7   2    8.53    4.61
 -18  -7  -2   10.39    5.06
  18   7  -3    7.74    6.03
  18  -7  -3    5.56    4.31
  18   7   3    2.78    3.06
  18  -7   3    4.72    4.54
   7  18  -3    3.72    6.15
   7  18   3    0.97    3.57
  18   7  -3   -2.77    3.59
  -7 -18   3    1.68    4.67
  -7 -18  -3    3.69    2.46
 -18  -7   3    2.06    2.71
 -18  -7  -3   -0.43    3.58
  18   7  -4    7.29    4.63
  18  -7  -4   14.73    6.19
  18   7   4    9.77    3.44
  18  -7   4    7.52    5.35
   7  18  -4    3.47    3.62
  18   7  -4   40.64    8.54
   7  18   4   20.85    6.33
  -7 -18   4   13.89    7.86
  -7 -18  -4    7.41    4.19
 -18  -7   4   16.50    7.64
 -18  -7  -4   20.05    8.20
  18   7  -5    3.99    3.28
  18  -7  -5   10.75    6.30
  18   7   5    5.92    5.53
  18  -7   5    4.10    2.65
   7  18  -5   13.19    7.31
  18   7  -5   10.03    4.69
  -7 -18   5    4.98    4.58
  -7 -18  -5   10.24    4.47
 -18  -7   5   12.24    5.12
 -18  -7  -5   11.22    6.54
  18   7  -6    2.89    2.19
  18  -7  -6    4.06    4.13
  18  -7   6    2.72    2.13
  18   7   6   -0.19    3.39
   7  18  -6   17.57    7.97
  -7 -18   6   12.09    7.15
  -7 -18  -6    3.62    2.33
 -18  -7   6    2.59    2.33
 -18  -7  -6    4.27    1.90
  18   7  -7    4.87    3.15
  18  -7   7    9.46    7.36
  18   7   7    9.36    3.43
  -7 -18   7    3.75    5.55
  -7 -18  -7    0.38    3.05
 -18  -7   7    3.02    3.46
  18   7   8    9.06    3.83
  -7 -18  -8   11.95    5.30
 -18  -7   8    5.19    4.27
  18   7   9   -2.40    3.78
  18  -8   0    4.45    5.11
   8  18   0   15.45    8.88
  -8 -18   0   24.80    9.49
 -18  -8   0   14.58    6.88
  18  -8  -1    7.79    3.85
  18  -8   1    7.94    7.29
   8  18  -1    6.20    4.11
   8  18   1    7.53    5.17
  -8 -18   1    3.09    2.29
  -8 -18  -1   18.46    5.96
 -18  -8   1    9.97    7.68
 -18  -8  -1    3.98    3.36
  18  -8  -2    6.67    7.54
  18  -8   2   14.84    6.50
   8  18  -2    9.05    7.85
   8  18   2   19.39    9.05
  -8 -18   2    6.95    4.24
  -8 -18  -2   15.51    7.64
 -18  -8   2   16.49    6.21
 -18  -8  -2    7.74    5.57
  18  -8  -3   12.38    5.13
  18  -8   3    4.13    3.52
   8  18  -3    6.96    3.55
   8  18   3    6.70    4.55
  18   8  -3    3.14    2.76
  -8 -18   3   10.06    6.10
  -8 -18  -3    6.46    3.47
 -18  -8   3    3.75    4.48
 -18  -8  -3    3.24    3.82
  18  -8  -4    4.83    4.00
  18  -8   4    8.14    5.46
   8  18  -4    2.52    5.35
  18   8  -4   12.03    5.04
  -8 -18   4    7.72    5.01
  -8 -18  -4    6.98    5.35
 -18  -8   4    4.83    4.71
 -18  -8  -4   14.56    6.36
  18  -8  -5    6.81    4.80
  18  -8   5    9.32    2.89
   8  18  -5   -1.67    5.63
  18   8  -5    3.61    3.37
  -8 -18   5    6.19    3.79
  -8 -18  -5    8.56    4.91
 -18  -8   5    1.65    4.55
 -18  -8  -5    5.28    3.13
  18   8  -6   10.78    4.98
  -8 -18   6    8.22    2.86
  -8 -18  -6    5.68    2.84
 -18  -8   6    6.07    3.76
 -18  -8   7    3.04    4.43
  18  -9   0    9.99    6.30
   9  18   0    2.14    2.85
  18  -9  -1    2.94    4.24
  18  -9   1    2.40    4.07
   9  18  -1    4.53    4.08
   9  18   1    4.26    5.26
 -18  -9   1    3.43    2.29
  18  -9  -2    8.18    6.19
  18  -9   2    9.87    5.12
   9  18  -2    4.07    3.62
   9  18   2    7.61    4.77
  18  -9  -3    3.89    5.82
  18  -9   3    4.64    2.91
  18   9  -3   10.92    4.14
   9  18   3    2.70    5.13
  18  -9  -4    4.64    4.68
  18  -9   4    5.20    4.98
  18   9  -4    8.10    4.21
  18   9  -5    7.21    2.93
  18   9  -6   -2.90    4.28
  18 -10   0    6.65    4.16
  18 -10  -1    8.04    7.31
  18 -10   1    1.72    3.22
  18 -10  -2   -0.47    3.83
  18 -10   2    2.81    2.01
  18 -10  -3    6.97    3.98
  19   0   0    4.72    3.07
  19   0  -1    3.60    4.86
  19   0   1    3.33    5.11
  19   0  -2   34.53   13.54
  19   0   2   65.78   10.19
  19   0  -3   15.05    5.21
  19   0   3    2.78    5.99
 -19   0   3   14.90    5.29
  19   0  -4    5.46    4.57
  19   0   4    1.47    3.52
 -19   0   4    5.22    5.31
  19   0  -5   11.35    6.68
  19   0   5    8.12    5.67
   0  19  -5    3.42    3.17
 -19   0   5   16.15    6.71
  19   0  -6    9.64    7.71
  19   0   6    4.51    3.18
   0  19  -6    4.34    4.30
 -19   0   6    0.16    3.29
  19   0  -7   15.14    5.63
  19   0   7    5.37    3.87
   0  19  -7    5.37    4.22
 -19   0   7    6.67    4.02
   0  19  -8    5.82    2.63
 -19   0   8    4.25    1.91
 -19   0  -8   -1.03    4.30
   0  19  -9    2.72    2.45
  19  -1   0    5.88    3.76
  19   1   0    4.84    3.60
 -19  -1   0    5.81    5.88
  19   1  -1    3.75    2.47
  19  -1  -1    2.63    4.70
  19   1   1   16.77    6.10
  19  -1   1    7.79    3.74
 -19  -1   1   10.41    5.33
 -19  -1  -1   13.08    6.96
  19   1  -2    6.92    3.88
  19  -1  -2   -0.87    2.36
  19   1   2    5.21    4.66
  19  -1   2    4.67    4.78
 -19  -1   2   -0.09    4.14
 -19  -1  -2    7.22    4.78
  19   1  -3   -2.30    4.39
  19  -1  -3   15.47    5.51
  19   1   3    4.08    5.08
  19  -1   3    8.17    3.00
   1  19  -3    2.09    6.15
 -19  -1   3    3.73    2.50
 -19  -1  -3   -0.55    4.07
  19   1  -4    4.37    3.06
  19  -1  -4    7.11    7.33
  19   1   4    4.64    2.74
  19  -1   4    8.09    3.71
   1  19  -4    9.28    4.14
 -19  -1   4    4.71    5.11
 -19  -1  -4    5.05    2.68
  19  -1  -5   11.40    4.71
  19   1  -5   14.75    5.60
  19  -1   5    8.21    4.64
  19   1   5    9.77    5.32
   1  19  -5    7.37    5.09
 -19  -1   5    9.17    3.76
 -19  -1  -5   13.82    4.86
  19  -1  -6   10.12    5.79
  19   1  -6   19.07    7.25
  19  -1   6   27.79    6.88
  19   1   6    6.75    4.44
   1  19  -6    5.43    4.42
 -19  -1   6    8.41    5.29
 -19  -1  -6    8.82    6.89
 -19   1   6    8.38    6.09
  19   1  -7    4.33    6.08
  19  -1   7   -0.82    2.47
  19   1   7    5.15    5.48
   1  19  -7   11.34    5.86
 -19  -1   7    7.57    3.77
 -19  -1  -7    5.04    3.24
 -19   1   7    5.13    2.52
  -1  19  -8    3.95    3.31
   1  19  -8    4.13    2.73
 -19  -1   8    0.62    1.96
 -19  -1  -8    3.09    4.13
 -19   1   8    1.72    2.06
  -1  19  -9   -0.10    3.63
   1  19  -9    9.05    4.88
  19   2   0    3.68    2.71
  19  -2   0    5.63    2.90
 -19  -2   0    6.28    3.77
  19   2  -1    0.53    3.52
  19  -2  -1    5.50    4.35
  19  -2   1    0.13    5.81
  19   2   1   -0.80    4.20
   2  19  -1    7.91    4.50
 -19  -2   1    5.86    4.03
 -19  -2  -1   -1.47    3.43
  19   2  -2   15.78    7.31
  19  -2  -2    5.54    5.03
  19  -2   2    1.36    4.05
  19   2   2   16.87    8.17
   2  19  -2   11.42    6.35
 -19  -2   2    7.14    4.23
 -19  -2  -2    6.62    5.06
  19   2  -3    8.67    5.82
  19  -2  -3    1.48    3.26
  19   2   3    1.17    3.64
  19  -2   3    7.34    5.49
   2  19  -3    6.05    5.88
 -19  -2   3    1.34    2.84
 -19  -2  -3   14.37    4.74
  19   2  -4   22.90    7.60
  19  -2  -4   24.29    7.55
  19   2   4   17.94    5.90
  19  -2   4   28.09    5.80
   2  19  -4   19.28    5.40
 -19  -2   4   21.14    6.80
 -19  -2  -4   27.85   12.47
  19   2  -5    5.91    2.49
  19  -2  -5    7.06    5.17
  19  -2   5   58.37    8.03
  19   2   5    8.57    4.63
   2  19  -5    4.40    2.62
 -19  -2   5    6.56    5.50
 -19  -2  -5    6.43    4.91
  19   2  -6    1.87    2.37
  19  -2  -6    8.81    4.80
  19  -2   6    3.73    5.00
  19   2   6   10.16    5.01
   2  19  -6    7.16    4.62
 -19  -2   6    1.19    4.04
 -19  -2  -6    5.54    4.96
  19   2  -7   21.05    6.97
  19   2   7   15.31    4.67
  19  -2   7   10.01    6.51
   2  19  -7   44.04    8.56
 -19  -2   7   16.17    5.83
 -19  -2  -7   13.38    6.87
   2  19  -8   18.27    7.45
 -19  -2   8   11.34    5.68
 -19  -2  -8   25.93    7.15
 -19   2   8    5.83    6.78
  19   3   0   20.90    6.04
  19  -3   0   22.89    5.49
   3  19   0   20.83    7.61
 -19  -3   0   13.38    6.34
  19   3  -1    5.94    5.77
  19  -3  -1   10.02    3.91
  19   3   1   11.01    5.62
  19  -3   1   10.38    5.14
   3  19  -1    4.30    4.57
   3  19   1   16.32    7.91
 -19  -3   1   14.02    6.81
 -19  -3  -1   11.27    4.94
  19   3  -2    5.78    4.96
  19  -3  -2    1.71    3.45
  19   3   2    7.14    4.63
  19  -3   2   -6.56    5.27
   3  19  -2   35.86    5.21
 -19  -3   2    5.71    3.54
 -19  -3  -2    6.54    4.25
  19   3  -3    8.11    6.61
  19  -3  -3    8.43    4.27
  19  -3   3   13.31    7.02
  19   3   3    3.65    5.06
   3  19  -3   10.03    5.88
 -19  -3   3   15.54   12.01
 -19  -3  -3    6.99    3.45
  19   3  -4    3.29    4.70
  19  -3  -4    9.70    3.32
  19  -3   4    7.69    5.11
  19   3   4    5.28    5.61
   3  19  -4   11.30    5.51
 -19  -3   4   12.25    5.96
 -19  -3  -4    3.15    1.48
  19   3  -5    4.98    4.77
  19  -3  -5    9.39    7.46
  19   3   5    6.87    6.14
  19  -3   5    6.27    3.17
   3  19  -5    4.96    3.04
 -19  -3   5   14.88    6.62
 -19  -3  -5    1.49    2.74
  19   3  -6    5.09    4.40
  19  -3  -6   -1.25    5.10
  19  -3   6    3.08    4.46
  19   3   6    3.90    2.47
   3  19  -6    3.12    4.71
 -19  -3   6   13.01    6.15
 -19  -3  -6    2.03    4.07
  19   3  -7   -0.13    4.50
  19   3   7    6.34    4.00
   3  19  -7    7.83    4.57
 -19  -3   7    4.70    3.95
 -19  -3  -7    8.49    3.49
 -19  -3   8    5.01    2.50
  19   4   0    2.29    2.70
  19  -4   0    5.93    2.28
   4  19   0    6.76    4.88
  -4 -19   0    6.30    5.14
 -19  -4   0   12.56    6.42
  19   4  -1   29.53    8.79
  19  -4  -1   28.22    8.44
  19   4   1   15.29    5.82
  19  -4   1   14.91    5.99
   4  19  -1   27.31   11.00
   4  19   1   30.75    7.26
  -4 -19   1   24.11    9.30
  -4 -19  -1   20.71    7.08
 -19  -4   1   46.87   13.21
 -19  -4  -1   16.47    5.37
  19   4  -2   21.97    6.35
  19  -4  -2   14.20    4.80
  19   4   2    8.35    6.61
  19  -4   2   21.02    5.61
   4  19  -2   13.60    3.93
   4  19   2   12.76    4.59
  -4 -19  -2    8.01    4.72
 -19  -4   2   14.73    6.19
 -19  -4  -2   13.92    6.97
  19   4  -3   13.42    5.31
  19  -4  -3   35.53    9.80
  19  -4   3   31.59    8.30
  19   4   3   15.58    6.84
   4  19  -3   21.58    7.21
  -4 -19   3   12.62    5.37
  -4 -19  -3   17.86    9.00
 -19  -4   3   31.11    8.01
 -19  -4  -3   33.40    8.11
  19   4  -4    4.12    3.55
  19  -4  -4   11.71    4.17
  19   4   4    5.18    3.83
  19  -4   4    9.02    3.09
   4  19  -4    8.52    4.50
  -4 -19  -4    2.21    3.69
 -19  -4   4   17.20    8.05
 -19  -4  -4   13.74    6.29
  19   4  -5    8.20    5.03
  19  -4  -5    8.35    4.40
  19   4   5    3.65    4.31
  19  -4   5   -0.06    4.53
   4  19  -5    4.25    4.50
  -4 -19  -5    2.51    3.90
 -19  -4   5    3.27    2.23
 -19  -4  -5    7.43    6.53
  19   4  -6    7.00    5.96
  19  -4   6    3.05    2.53
  19   4   6    4.22    5.04
   4  19  -6    6.40    3.35
  -4 -19  -6    4.47    3.52
 -19  -4   6    1.44    2.12
 -19  -4  -6    3.94    2.69
  19   4  -7    4.87    3.37
  19   4   7   12.06    8.21
   4  19  -7   -1.61    5.16
 -19  -4   7    5.94    4.76
 -19  -4   8    5.78    3.76
  19   5   0    8.87    5.17
  19  -5   0   -2.82    4.82
   5  19   0    2.55    4.60
  -5 -19   0    1.00    2.75
 -19  -5   0    0.03    3.03
  19   5  -1    4.95    3.94
  19  -5  -1   -5.10    4.90
  19   5   1    4.75    3.65
  19  -5   1    7.15    4.00
   5  19  -1   -1.03    3.99
   5  19   1    8.51    5.59
  -5 -19  -1    6.82    3.56
  -5 -19   1    3.65    3.42
 -19  -5   1    4.54    2.64
 -19  -5  -1    1.13    4.16
  19   5  -2    8.18    2.31
  19  -5  -2   11.51    5.06
  19   5   2   12.77    4.04
  19  -5   2    4.66    3.92
   5  19  -2    5.43    3.67
   5  19   2    9.11    4.75
  -5 -19   2    0.67    3.16
  -5 -19  -2   15.96    6.11
 -19  -5   2   10.03    4.53
 -19  -5  -2    3.19    3.19
  19   5  -3    6.10    4.43
  19  -5  -3    7.72    4.23
  19   5   3    7.46    4.59
  19  -5   3   17.54    5.16
   5  19  -3    6.79    4.67
   5  19   3    8.69    6.37
  -5 -19   3   13.07    5.50
  -5 -19  -3   16.90    6.80
 -19  -5   3   12.57    5.12
 -19  -5  -3    9.07    4.02
  19   5  -4    6.23    4.55
  19  -5  -4   10.46    5.37
  19  -5   4    3.36    4.91
  19   5   4    6.05    3.94
   5  19  -4    7.50    5.53
   5  19   4    7.41    4.69
  -5 -19   4    7.03    3.55
  -5 -19  -4    2.41    3.91
 -19  -5   4    7.80    5.46
 -19  -5  -4   -2.02    3.94
  19   5  -5   -0.08    4.10
  19  -5   5    3.66    3.08
  19   5   5    2.31    2.30
   5  19  -5   -6.07    5.76
  -5 -19   5   -0.41    3.99
  -5 -19  -5    2.88    3.64
 -19  -5   5    6.30    4.96
 -19  -5  -5   -2.55    3.85
  19   5  -6   14.85    7.56
  19   5   6   14.03    4.89
   5  19  -6   17.98    8.82
  -5 -19  -6   14.74    5.57
 -19  -5   6   22.21    9.90
  19   5  -7    0.82    2.58
 -19  -5   7    1.69    2.34
  19   6   0    6.21    3.17
  19  -6   0    0.00    4.82
   6  19   0    1.51    3.03
  -6 -19   0    5.84    2.89
 -19  -6   0    2.82    2.68
  19   6  -1    4.11    3.91
  19  -6  -1   11.16    8.30
  19   6   1    3.73    4.07
  19  -6   1    5.42    2.88
   6  19  -1    7.27    3.48
   6  19   1    5.92    3.77
  -6 -19   1    6.90    4.64
  -6 -19  -1    5.27    3.53
 -19  -6   1    1.75    3.28
 -19  -6  -1    2.44    2.36
  19   6  -2    3.21    3.53
  19  -6  -2   12.79    5.29
  19   6   2    5.75    3.35
  19  -6   2   -0.16    4.83
   6  19  -2    2.65    5.27
   6  19   2    8.97    4.13
  -6 -19   2    2.35    2.72
  -6 -19  -2   12.13    5.16
 -19  -6   2    8.51    5.05
 -19  -6  -2    3.43    4.44
  19   6  -3    9.50    4.71
  19  -6  -3    1.09    3.98
  19   6   3    6.17    4.81
  19  -6   3    5.78    6.06
   6  19  -3    3.97    7.54
   6  19   3    6.08    2.42
  -6 -19   3    6.00    5.87
  -6 -19  -3    3.92    2.13
 -19  -6   3   10.69    5.29
  19   6  -4   10.63    4.92
  19  -6   4   18.27    6.88
  19   6   4    9.61    5.55
   6  19  -4    3.07    5.35
   6  19   4    9.50    4.38
  -6 -19  -4    6.11    4.46
 -19  -6   4    4.75    4.70
  19   6  -5    5.29    4.39
  19   6   5    7.74    4.83
   6  19  -5   -0.38    5.94
   6  19   5    2.41    3.67
  19   6  -6    7.59    5.25
  19   6   6    2.18    3.81
 -19  -6   6   13.00    5.74
  19   6  -7    9.42    5.09
  19   7   0   21.88    6.50
  19  -7   0   15.86    7.52
   7  19   0   17.22    6.49
  19   7  -1    2.92    1.74
  19   7   1    3.84    1.66
  19  -7   1    8.75    4.90
   7  19  -1    7.75    5.93
   7  19   1    4.35    6.84
  19   7  -2    2.91    3.18
  19   7   2    9.74    5.80
  19  -7   2    8.63    4.20
   7  19  -2    5.42    5.99
   7  19   2   10.16    6.44
  19   7  -3    5.81    3.30
  19   7   3    3.87    3.01
   7  19  -3    3.32    7.58
   7  19   3   14.64    4.98
  19   7   4   11.49    3.84
   7  19   4    4.94    2.75
  19   7   5    9.21    4.30
   7  19   5    4.18    2.98
  19   8  -3    6.10    4.54
  20   0   0    5.62    3.20
 -20   0   0    4.10    2.33
  20   0  -1    5.62    4.14
  20   0   1    1.90    4.74
 -20   0   1    4.03    3.03
  20   0  -2    4.90    3.92
  20   0   2   -1.91    5.24
 -20   0   2   10.60    4.78
 -20   0   3    4.03    2.84
 -20   0   4    4.55    4.19
 -20   0   5    7.02    4.48
  20   1   0    2.46    3.50
  20  -1   0    0.81    3.41
  20   1  -1   -5.90    4.75
  20  -1  -1    6.68    4.03
  20   1   1    4.22    3.50
 -20  -1   1    0.31    3.51
 -20  -1  -1   -2.05    4.07
  20   1  -2    3.13    4.78
  20   1   2   11.32    7.17
  20  -1   2   14.08    5.89
 -20  -1   2   24.10    9.96
  20   1  -3   15.08    8.17
  20   1   3   12.53    5.05
 -20  -1   3   13.60    8.24
 -20  -1   4    8.04    5.21
 -20  -1   5   14.10    5.96
 -20   1   5   12.84    5.79
  20   2   0   13.31    4.88
 -20  -2   0   15.87    7.83
  20   2  -1   10.98    4.47
  20   2   1    4.03    3.78
  20   2  -2   -0.20    4.39
  20   2   2    3.93    3.54
 -20  -2   2   10.33    5.28
  20   2  -3    3.07    2.73
  20   2   3    5.86    4.31
 -20  -2   3   -0.63    3.79
   2  20  -4    3.59    2.13
 -20  -2   4    7.18    4.36
   2  20  -5    4.72    2.90
   2  20  -6    2.78    3.33
  20   3   0    2.62    4.27
  20   3  -1    9.69    4.62
  20   3   1   28.68   20.55
  20   3  -2    1.17    3.71
  20   3   2   -0.22    4.72
   3  20  -2    3.26    2.26
  20   3  -3    1.98    4.98
  20   3   3   10.05    6.63
   3  20  -3    0.82    4.14
  20   3  -4    4.40    4.48
   3  20  -4   16.06    5.05
   3  20  -5    5.56    4.61
  20   4   0    2.95    3.79
   4  20   0    2.60    2.48
  20   4  -1   -0.95    4.80
  20   4   1    3.07    2.48
   4  20  -1    2.72    4.12
  20   4  -2    3.56    4.46
  20   4   2    4.29    3.33
   4  20  -2   -2.55    4.32
  20   4  -3    8.35    5.23
   4  20  -3    1.01    4.33
   4  20  -4    8.48    4.57
  20   5   0    5.65    4.26
   5  20   0    6.63    2.66
  20   5  -1    3.71    4.49
  20   5   1    6.15    4.20
   5  20  -1   -1.52    4.56
   5  20   1   11.79    4.39
  20   5  -2   15.67    8.11
  20   5   2   18.87    7.99
   5  20  -2   17.62    7.99
   5  20  -3    2.60    5.30
  20   6   0   -0.45    3.17
  20   6  -1    9.31    4.09
  20   6   1    6.58    4.32
   6  20   1    7.96    4.79
  20   6  -2   26.81    9.19
  20   6   2    8.44    4.51
   0   0   0    0.00    0.00
;
_shelx_hkl_checksum              82733
#END Tags that were not found in dictionaries
loop_
_space_group_symop_operation_xyz
'x, y, z'
'-x, -y, z+1/2'
'-y+1/2, x+1/2, z+1/4'
'y+1/2, -x+1/2, z+3/4'
'-x+1/2, y+1/2, -z+1/4'
'x+1/2, -y+1/2, -z+3/4'
'y, x, -z'
'-y, -x, -z+1/2'
loop_
_atom_site_label
_atom_site_type_symbol
_atom_site_fract_x
_atom_site_fract_y
_atom_site_fract_z
_atom_site_U_iso_or_equiv
_atom_site_adp_type
_atom_site_occupancy
_atom_site_site_symmetry_order
_atom_site_calc_flag
_atom_site_refinement_flags_posn
_atom_site_refinement_flags_adp
_atom_site_refinement_flags_occupancy
Cu1 Cu 0.47309(4) 0.20446(4) 0.03528(3) 0.0374(2) Uani 1 1 d . . .
O1 O 0.3830(3) 0.2954(3) 0.1040(2) 0.0476(8) Uani 1 1 d . . .
O3 O 0.3816(3) 0.0651(3) 0.0440(2) 0.0504(9) Uani 1 1 d . . .
O2 O 0.5537(3) 0.1396(3) -0.0592(2) 0.0406(7) Uani 1 1 d . . .
N3 N 0.4155(3) 0.2679(3) -0.0671(2) 0.0397(7) Uani 1 1 d . . .
C2 C 0.4519(4) 0.2404(4) -0.1547(3) 0.0427(9) Uani 1 1 d . . .
H2A H 0.3973 0.2136 -0.1901 0.051 Uiso 1 1 calc R U .
C6 C 0.7052(4) 0.1725(3) 0.2175(3) 0.0410(8) Uani 1 1 d . . .
N2 N 0.5519(3) 0.1230(4) 0.2043(3) 0.0466(9) Uani 1 1 d . . .
H2B H 0.4961 0.0953 0.2158 0.056 Uiso 1 1 calc R U .
C4 C 0.5295(4) 0.1588(3) -0.1394(3) 0.0381(8) Uani 1 1 d . . .
C1 C 0.3472(4) 0.3322(3) -0.0504(3) 0.0380(8) Uani 1 1 d . . .
C7 C 0.6326(5) 0.1155(4) 0.2567(4) 0.0517(12) Uani 1 1 d . . .
C5 C 0.6623(4) 0.2097(4) 0.1385(3) 0.0439(9) Uani 1 1 d . . .
N1 N 0.5694(3) 0.1790(3) 0.1315(3) 0.0400(8) Uani 1 1 d . . .
C10 C 0.8093(4) 0.1907(4) 0.2500 0.0507(16) Uani 1 2 d S T P
C9 C 0.6308(8) 0.0535(8) 0.3398(6) 0.095(4) Uani 1 1 d . . .
H9A H 0.5667 0.0239 0.3465 0.143 Uiso 1 1 calc R U .
H9B H 0.6445 0.0943 0.3908 0.143 Uiso 1 1 calc R U .
H9C H 0.6799 0.0025 0.3355 0.143 Uiso 1 1 calc R U .
C8 C 0.7088(7) 0.2735(9) 0.0680(5) 0.095(4) Uani 1 1 d . . .
H8A H 0.6613 0.2869 0.0219 0.142 Uiso 1 1 calc R U .
H8B H 0.7646 0.2398 0.0428 0.142 Uiso 1 1 calc R U .
H8C H 0.7301 0.3345 0.0943 0.142 Uiso 1 1 calc R U .
C3 C 0.4973(9) 0.3283(6) -0.2041(5) 0.091(3) Uani 1 1 d . . .
H3A H 0.4478 0.3782 -0.2128 0.136 Uiso 1 1 calc R U .
H3B H 0.5217 0.3068 -0.2610 0.136 Uiso 1 1 calc R U .
H3C H 0.5507 0.3550 -0.1695 0.136 Uiso 1 1 calc R U .
H10A H 0.822(6) 0.157(6) 0.298(4) 0.051(18) Uiso 1 1 d . . .
loop_
_atom_site_aniso_label
_atom_site_aniso_U_11
_atom_site_aniso_U_22
_atom_site_aniso_U_33
_atom_site_aniso_U_23
_atom_site_aniso_U_13
_atom_site_aniso_U_12
Cu1 0.0409(3) 0.0396(3) 0.0317(3) 0.00083(18) -0.00006(18) 0.00711(18)
O1 0.0531(19) 0.058(2) 0.0316(12) 0.0013(14) -0.0006(13) 0.0203(16)
O3 0.059(2) 0.055(2) 0.0375(15) 0.0046(15) 0.0077(15) -0.0168(17)
O2 0.0428(16) 0.0416(17) 0.0375(14) -0.0002(12) 0.0028(11) 0.0101(12)
N3 0.048(2) 0.0399(18) 0.0308(13) 0.0026(13) 0.0033(14) 0.0103(14)
C2 0.052(3) 0.044(2) 0.0316(16) -0.0013(15) 0.0030(15) 0.0098(18)
C6 0.043(2) 0.0389(19) 0.0414(18) -0.0015(16) -0.0045(16) -0.0042(16)
N2 0.042(2) 0.062(3) 0.0356(16) 0.0070(17) -0.0057(14) -0.0146(18)
C4 0.0388(19) 0.0371(19) 0.0385(17) -0.0024(14) 0.0048(15) 0.0036(15)
C1 0.044(2) 0.040(2) 0.0297(15) -0.0022(13) 0.0023(14) 0.0084(15)
C7 0.059(3) 0.049(3) 0.047(2) 0.008(2) -0.014(2) -0.018(2)
C5 0.044(2) 0.047(2) 0.041(2) 0.0018(18) -0.0007(17) -0.0089(18)
N1 0.0412(18) 0.045(2) 0.0340(15) 0.0019(14) -0.0034(14) -0.0012(15)
C10 0.043(2) 0.043(2) 0.067(5) -0.009(2) -0.009(2) 0.001(3)
C9 0.106(7) 0.101(6) 0.078(5) 0.049(5) -0.053(5) -0.062(5)
C8 0.083(5) 0.141(9) 0.060(4) 0.033(5) -0.016(4) -0.061(6)
C3 0.142(8) 0.062(4) 0.069(4) 0.018(3) 0.059(5) 0.018(5)
loop_
_atom_type_symbol
_atom_type_description
_atom_type_scat_dispersion_real
_atom_type_scat_dispersion_imag
_atom_type_scat_source
C C 0.0033 0.0016 'International Tables Vol C Tables 4.2.6.8 and 6.1.1.4'
H H 0.0000 0.0000 'International Tables Vol C Tables 4.2.6.8 and 6.1.1.4'
N N 0.0061 0.0033 'International Tables Vol C Tables 4.2.6.8 and 6.1.1.4'
O O 0.0106 0.0060 'International Tables Vol C Tables 4.2.6.8 and 6.1.1.4'
Cu Cu 0.3201 1.2651 'International Tables Vol C Tables 4.2.6.8 and 6.1.1.4'
loop_
_geom_angle_atom_site_label_1
_geom_angle_atom_site_label_2
_geom_angle_atom_site_label_3
_geom_angle
_geom_angle_site_symmetry_1
_geom_angle_site_symmetry_3
N3 Cu1 N1 158.16(19) . .
N3 Cu1 O2 81.56(15) . .
N1 Cu1 O2 94.55(15) . .
N3 Cu1 O1 83.60(14) . .
N1 Cu1 O1 97.69(16) . .
O2 Cu1 O1 164.58(14) . .
N3 Cu1 O3 101.34(18) . .
N1 Cu1 O3 100.02(17) . .
O2 Cu1 O3 88.48(15) . .
O1 Cu1 O3 98.55(17) . .
C1 O1 Cu1 110.0(3) 7 .
C4 O3 Cu1 127.9(3) 3_545 .
C4 O2 Cu1 116.1(3) . .
C1 N3 C2 126.2(4) . .
C1 N3 Cu1 115.9(3) . .
C2 N3 Cu1 117.9(3) . .
N3 C2 C3 112.0(5) . .
N3 C2 C4 106.4(4) . .
C3 C2 C4 110.8(5) . .
C7 C6 C5 105.2(4) . .
C7 C6 C10 128.2(4) . .
C5 C6 C10 126.6(4) . .
C7 N2 N1 111.7(4) . .
O3 C4 O2 124.9(4) 4_554 .
O3 C4 C2 117.6(4) 4_554 .
O2 C4 C2 117.5(4) . .
O1 C1 N3 129.6(4) 7 .
O1 C1 C1 118.5(5) 7 7
N3 C1 C1 111.9(5) . 7
N2 C7 C6 106.7(4) . .
N2 C7 C9 120.7(6) . .
C6 C7 C9 132.5(6) . .
N1 C5 C6 110.2(4) . .
N1 C5 C8 121.4(5) . .
C6 C5 C8 128.4(5) . .
C5 N1 N2 106.1(4) . .
C5 N1 Cu1 128.9(4) . .
N2 N1 Cu1 124.9(3) . .
C6 C10 C6 114.0(6) 8_665 .
loop_
_geom_bond_atom_site_label_1
_geom_bond_atom_site_label_2
_geom_bond_distance
_geom_bond_site_symmetry_2
Cu1 N3 1.922(4) .
Cu1 N1 1.972(4) .
Cu1 O2 1.990(3) .
Cu1 O1 2.015(4) .
Cu1 O3 2.261(4) .
O1 C1 1.268(5) 7
O3 C4 1.235(5) 3_545
O2 C4 1.272(5) .
N3 C1 1.294(5) .
N3 C2 1.450(5) .
C2 C3 1.529(9) .
C2 C4 1.541(7) .
C6 C7 1.380(7) .
C6 C5 1.412(7) .
C6 C10 1.510(7) .
N2 C7 1.348(7) .
N2 N1 1.349(6) .
C4 O3 1.235(5) 4_554
C1 O1 1.268(5) 7
C1 C1 1.535(8) 7
C7 C9 1.502(8) .
C5 N1 1.328(6) .
C5 C8 1.501(9) .
C10 C6 1.510(7) 8_665
