#------------------------------------------------------------------------------
#$Date: 2016-03-23 22:33:44 +0200 (Wed, 23 Mar 2016) $
#$Revision: 179485 $
#$URL: svn://www.crystallography.net/cod/cif/4/33/82/4338278.cif $
#------------------------------------------------------------------------------
#
# This file is available in the Crystallography Open Database (COD),
# http://www.crystallography.net/
#
# All data on this site have been placed in the public domain by the
# contributors.
#
data_4338278
loop_
_publ_author_name
'Lin, Lang'
'Yu, Rongmin'
'Wu, Xiao-Yuan'
'Yang, Wen-Bin'
'Zhang, Jian'
'Guo, Xiang-Guang'
'Lin, Zu-Jin'
'Lu, Can-Zhong'
_publ_section_title
;
 Enantioselective inclusion of alcohols by solvent-controlled assembled
 flexible metal-organic frameworks.
;
_journal_issue                   10
_journal_name_full               'Inorganic chemistry'
_journal_page_first              4794
_journal_page_last               4796
_journal_paper_doi               10.1021/ic500436g
_journal_volume                  53
_journal_year                    2014
_chemical_absolute_configuration ad
_chemical_formula_moiety         'C19 H24 Cu2 N6 O6'
_chemical_formula_sum            'C19 H24 Cu2 N6 O6'
_chemical_formula_weight         559.52
_chemical_name_systematic
;
 ?
;
_space_group_crystal_system      orthorhombic
_space_group_IT_number           19
_space_group_name_Hall           'P 2ac 2ab'
_space_group_name_H-M_alt        'P 21 21 21'
_symmetry_space_group_name_Hall  'P 2ac 2ab'
_symmetry_space_group_name_H-M   'P 21 21 21'
_atom_sites_solution_hydrogens   mixed
_audit_creation_method           SHELXL-2013
_cell_angle_alpha                90
_cell_angle_beta                 90
_cell_angle_gamma                90
_cell_formula_units_Z            4
_cell_length_a                   13.0844(2)
_cell_length_b                   14.0741(2)
_cell_length_c                   16.4507(3)
_cell_measurement_reflns_used    5212
_cell_measurement_temperature    293(2)
_cell_measurement_theta_max      76.3821
_cell_measurement_theta_min      3.3750
_cell_volume                     3029.42(8)
_computing_cell_refinement
;
CrysAlisPro, Agilent Technologies,
Version 1.171.36.20 (release 27-06-2012 CrysAlis171 .NET)
;
_computing_data_collection
;
CrysAlisPro, Agilent Technologies,
Version 1.171.36.20 (release 27-06-2012 CrysAlis171 .NET)
;
_computing_data_reduction
;
CrysAlisPro, Agilent Technologies,
Version 1.171.36.20 (release 27-06-2012 CrysAlis171 .NET)
;
_computing_molecular_graphics    &#x00A1;&#x00AF;DIAMOND&#x00A1;&#x00AF;
_computing_publication_material  'SHELXL-2013 (Sheldrick, 2013)'
_computing_structure_refinement  'SHELXL-2013 (Sheldrick, 2013)'
_computing_structure_solution    'SHELXL-2013 (Sheldrick, 2013)'
_diffrn_ambient_temperature      293(2)
_diffrn_detector_area_resol_mean 10.3503
_diffrn_measured_fraction_theta_full 1.000
_diffrn_measured_fraction_theta_max 0.992
_diffrn_measurement_device_type  'SuperNova, Dual, Cu at zero, Atlas'
_diffrn_measurement_method       '\w scans'
_diffrn_radiation_type           CuK\a
_diffrn_radiation_wavelength     1.54184
_diffrn_reflns_av_R_equivalents  0.0254
_diffrn_reflns_av_unetI/netI     0.0331
_diffrn_reflns_Laue_measured_fraction_full 1.000
_diffrn_reflns_Laue_measured_fraction_max 0.992
_diffrn_reflns_limit_h_max       16
_diffrn_reflns_limit_h_min       -15
_diffrn_reflns_limit_k_max       12
_diffrn_reflns_limit_k_min       -17
_diffrn_reflns_limit_l_max       20
_diffrn_reflns_limit_l_min       -20
_diffrn_reflns_number            9866
_diffrn_reflns_point_group_measured_fraction_full 0.863
_diffrn_reflns_point_group_measured_fraction_max 0.833
_diffrn_reflns_theta_full        67.684
_diffrn_reflns_theta_max         76.580
_diffrn_reflns_theta_min         4.134
_exptl_absorpt_coefficient_mu    2.050
_exptl_absorpt_correction_T_max  0.815
_exptl_absorpt_correction_T_min  0.782
_exptl_absorpt_correction_type   multi-scan
_exptl_crystal_colour            green
_exptl_crystal_density_diffrn    1.227
_exptl_crystal_description       block
_exptl_crystal_F_000             1144
_exptl_crystal_size_max          0.200
_exptl_crystal_size_mid          0.100
_exptl_crystal_size_min          0.100
_refine_diff_density_max         1.430
_refine_diff_density_min         -0.503
_refine_diff_density_rms         0.223
_refine_ls_abs_structure_details
;
 Flack x determined using 1581 quotients [(I+)-(I-)]/[(I+)+(I-)]
 (Parsons and Flack (2004), Acta Cryst. A60, s61).
;
_refine_ls_abs_structure_Flack   -0.01(2)
_refine_ls_extinction_method     none
_refine_ls_goodness_of_fit_ref   1.021
_refine_ls_hydrogen_treatment    mixed
_refine_ls_matrix_type           full
_refine_ls_number_parameters     307
_refine_ls_number_reflns         5311
_refine_ls_number_restraints     0
_refine_ls_restrained_S_all      1.021
_refine_ls_R_factor_all          0.0623
_refine_ls_R_factor_gt           0.0593
_refine_ls_shift/su_max          0.000
_refine_ls_shift/su_mean         0.000
_refine_ls_structure_factor_coef Fsqd
_refine_ls_weighting_details
;
 w=1/[\s^2^(Fo^2^)+(0.1532P)^2^+0.6907P]
 where P=(Fo^2^+2Fc^2^)/3
;
_refine_ls_weighting_scheme      calc
_refine_ls_wR_factor_gt          0.1798
_refine_ls_wR_factor_ref         0.1863
_reflns_Friedel_coverage         0.501
_reflns_Friedel_fraction_full    0.688
_reflns_Friedel_fraction_max     0.632
_reflns_number_gt                4975
_reflns_number_total             5311
_reflns_threshold_expression     'I > 2\s(I)'
_cod_data_source_file            ic500436g_si_001.cif
_cod_data_source_block           L-3-NPE
_cod_depositor_comments
'Adding full bibliography for 4338272--4338281.cif.'
_cod_original_cell_volume        3029.41(9)
_cod_database_code               4338278
#BEGIN Tags that were not found in dictionaries:
_shelx_space_group_comment
;
The symmetry employed for this shelxl refinement is uniquely defined
by the following loop, which should always be used as a source of
symmetry information in preference to the above space-group names.
They are only intended as comments.
;
_shelx_estimated_absorpt_t_min   0.685
_shelx_estimated_absorpt_t_max   0.821
_shelxl_version_number           2013-2
_shelx_res_file
;
TITL 071405 in P212121 #19
CELL 1.54184 13.084367 14.074068 16.450736 90 90 90
ZERR 4 0.000236 0.000245 0.000287 0 0 0
LATT -1
SYMM 0.5-X,-Y,0.5+Z
SYMM 0.5+X,0.5-Y,-Z
SYMM -X,0.5+Y,0.5-Z

SFAC C H N O Cu
UNIT 76 96 24 24 8
size 0.2 0.1 0.1
L.S. 30
PLAN  20
REM reset to P212121 #19
BOND
fmap 2
acta
REM <HKL>E:\? ? ?0?.\X-ray\(35)12071405-Cu+OBA+CH2bpz(NapOH)\071405-nap-? ?=\071
REM hkl</HKL>
WGHT    0.153200    0.690700
FVAR       3.73383
CU1   5    0.714444    0.205655    0.342153    11.00000    0.04073    0.03806 =
         0.02902    0.00127    0.00490    0.00852
CU2   5    0.441248    0.466498    0.412065    11.00000    0.04178    0.04077 =
         0.02885   -0.00259   -0.00001    0.01026
O6    4    0.795478    0.144059    0.431102    11.00000    0.04670    0.04559 =
         0.03340    0.00040    0.00067    0.01296
O4    4    0.628486    0.301507    0.281749    11.00000    0.06510    0.05782 =
         0.03314    0.00523    0.01179    0.02932
N4    3    0.403933    0.521624    0.578926    11.00000    0.06445    0.04295 =
         0.02925   -0.00222    0.00135   -0.01523
O1    4    0.386628    0.554093    0.326799    11.00000    0.04984    0.04174 =
         0.03593    0.00354   -0.00161    0.01453
O3    4    0.523019    0.365495    0.471936    11.00000    0.05729    0.05583 =
         0.02967   -0.00054    0.00400    0.02339
N5    3    0.785639    0.163112    0.180056    11.00000    0.03829    0.05354 =
         0.02928   -0.00160    0.00456   -0.00897
AFIX  43
H5A   2    0.724865    0.144232    0.168417    11.00000   -1.20000
AFIX   0
C5    1    0.574826    0.317020    0.421765    11.00000    0.04620    0.04049 =
         0.03115    0.00133   -0.00105    0.00872
N6    3    0.817001    0.189923    0.255111    11.00000    0.04336    0.03963 =
         0.03260   -0.00365    0.00626   -0.00419
C16   1    0.946366    0.207113    0.166343    11.00000    0.03883    0.03198 =
         0.04483    0.00563    0.01062   -0.00269
C4    1    0.569657    0.343855    0.332546    11.00000    0.05254    0.04373 =
         0.02995    0.00114    0.00695    0.01339
O5    4    0.292473    0.390066    0.436398    11.00000    0.06247    0.06487 =
         0.03659    0.00565    0.00492   -0.02433
O2    4    0.623748    0.075860    0.306694    11.00000    0.07321    0.06390 =
         0.03933   -0.01571    0.00331   -0.02878
N1    3    0.502471    0.409510    0.319054    11.00000    0.05776    0.04909 =
         0.03108    0.00543    0.00561    0.02150
N3    3    0.426693    0.554757    0.505394    11.00000    0.04147    0.03922 =
         0.03533   -0.00113   -0.00065   -0.00397
N2    3    0.634043    0.245718    0.432221    11.00000    0.05010    0.04743 =
         0.02797   -0.00019    0.00096    0.01685
C8    1    0.755078    0.147549    0.502611    11.00000    0.04777    0.03562 =
         0.03302   -0.00019   -0.00134    0.00814
C1    1    0.408673    0.532729    0.253731    11.00000    0.04207    0.04306 =
         0.03662    0.00566    0.00492    0.01043
C15   1    0.914042    0.215169    0.248854    11.00000    0.04226    0.04123 =
         0.03928    0.00129    0.00480   -0.00530
C11   1    0.435223    0.671942    0.598531    11.00000    0.03429    0.04213 =
         0.03819   -0.00784   -0.00447   -0.00550
C6    1    0.651671    0.197954    0.509104    11.00000    0.05091    0.04906 =
         0.02683    0.00140    0.00569    0.01360
AFIX  13
H6    2    0.652759    0.244168    0.553655    11.00000   -1.20000
AFIX   0
C12   1    0.444727    0.647264    0.516447    11.00000    0.05552    0.04056 =
         0.03647   -0.00047   -0.00215   -0.01065
C18   1    0.863442    0.170170    0.125724    11.00000    0.04661    0.04942 =
         0.03019   -0.00109    0.00678   -0.00628
C2    1    0.479702    0.448784    0.239524    11.00000    0.08740    0.07617 =
         0.02813    0.00843    0.00926    0.04858
AFIX  13
H2A   2    0.542247    0.468604    0.211478    11.00000   -1.20000
AFIX   0
C7    1    0.568571    0.125041    0.523110    11.00000    0.05576    0.07471 =
         0.05434    0.00737    0.02006    0.00628
AFIX 137
H7A   2    0.502967    0.155401    0.520264    11.00000   -1.50000
H7B   2    0.577211    0.096842    0.575800    11.00000   -1.50000
H7C   2    0.572800    0.076610    0.482156    11.00000   -1.50000
AFIX   0
C10   1    0.406960    0.589928    0.635537    11.00000    0.05980    0.04938 =
         0.03663   -0.00494    0.00234   -0.01407
C17   1    1.052180    0.229114    0.133271    11.00000    0.03700    0.04305 =
         0.05258    0.01294    0.01139    0.00209
AFIX  23
H17A  2    1.101517    0.220689    0.176686    11.00000   -1.20000
H17B  2    1.068229    0.183304    0.091107    11.00000   -1.20000
AFIX   0
C13   1    0.463757    0.711766    0.447125    11.00000    0.18827    0.06842 =
         0.04502    0.00985   -0.00979   -0.05727
AFIX 137
H13A  2    0.535005    0.710263    0.433253    11.00000   -1.50000
H13B  2    0.444663    0.775329    0.461876    11.00000   -1.50000
H13C  2    0.423958    0.691580    0.401244    11.00000   -1.50000
AFIX   0
C9    1    0.379739    0.565964    0.721670    11.00000    0.17644    0.09286 =
         0.04464   -0.01849    0.02891   -0.07024
AFIX 137
H9A   2    0.359726    0.500449    0.724912    11.00000   -1.50000
H9B   2    0.324154    0.605496    0.739192    11.00000   -1.50000
H9C   2    0.437908    0.576603    0.756050    11.00000   -1.50000
AFIX   0
C19   1    0.847448    0.136351    0.040573    11.00000    0.07575    0.09014 =
         0.03877   -0.00811    0.01271   -0.02239
AFIX 137
H19A  2    0.780346    0.109376    0.035639    11.00000   -1.50000
H19B  2    0.897708    0.089024    0.027610    11.00000   -1.50000
H19C  2    0.854016    0.188925    0.003762    11.00000   -1.50000
AFIX   0
C14   1    0.974146    0.244950    0.320917    11.00000    0.07631    0.10828 =
         0.04584   -0.00698   -0.00035   -0.03680
AFIX 137
H14A  2    0.932422    0.283864    0.355497    11.00000   -1.50000
H14B  2    1.032796    0.280545    0.303540    11.00000   -1.50000
H14C  2    0.996126    0.189717    0.350361    11.00000   -1.50000
AFIX   0
H4    2    0.380258    0.458885    0.591253    11.00000    0.03427
C3    1    0.416438    0.375571    0.186364    11.00000    0.24751    0.10643 =
         0.08309   -0.05863   -0.08496    0.10797
AFIX  33
H3A   2    0.457808    0.320767    0.175210    11.00000   -1.50000
H3B   2    0.396867    0.405076    0.136105    11.00000   -1.50000
H3C   2    0.356318    0.356522    0.215575    11.00000   -1.50000

AFIX   0
HKLF 4

REM  071405 in P212121 #19
REM R1 =  0.0593 for    4975 Fo > 4sig(Fo)  and  0.0623 for all    5311 data
REM    307 parameters refined using      0 restraints

END

WGHT      0.1290      0.1964

REM Highest difference peak  1.430,  deepest hole -0.503,  1-sigma level  0.223
Q1    1   1.2208  0.0127  0.2066  11.00000  0.05    1.43
Q2    1   1.2816  0.0839  0.1836  11.00000  0.05    1.36
Q3    1   0.7679  0.5039  0.1609  11.00000  0.05    1.35
Q4    1   0.7118  0.5986  0.1602  11.00000  0.05    1.29
Q5    1   1.2701  0.0450  0.0438  11.00000  0.05    1.25
Q6    1   0.7122  0.5358  0.5574  11.00000  0.05    1.20
Q7    1   0.2959  0.0271  0.5699  11.00000  0.05    1.18
Q8    1   0.7009  0.5952  0.3994  11.00000  0.05    1.15
Q9    1   0.7969  0.4780  0.2172  11.00000  0.05    1.12
Q10   1   0.8153  0.4686  0.3650  11.00000  0.05    1.12
Q11   1   0.6827  0.6387  0.2334  11.00000  0.05    0.92
Q12   1   0.6736  0.4579  0.5769  11.00000  0.05    0.88
Q13   1   0.2781  0.0418  0.4835  11.00000  0.05    0.85
Q14   1   0.9122  0.2341  0.2310  11.00000  0.05    0.28
Q15   1   0.4142  0.5827  0.6589  11.00000  0.05    0.28
Q16   1   0.8799  0.2407  0.0595  11.00000  0.05    0.22
Q17   1   0.4809  0.3774  0.3164  11.00000  0.05    0.22
Q18   1   0.6591  0.2251  0.4059  11.00000  0.05    0.21
Q19   1   0.4752  0.4001  0.1757  11.00000  0.05    0.21
Q20   1   0.6664  0.2919  0.3369  11.00000  0.05    0.20
;
_shelx_res_checksum              44210
_shelx_hkl_file
;
   0   0   2 1514.47 101.623   3
   0   0   3 21.4025 50.9345   3
   0   0   4 1768.71 165.719   5
   0   0   4 1741.92 156.613   3
   0   0   5 17.5207 66.8715   3
   0   0   5 67.7698 85.0442   5
   0   0   6 9755.23 402.929   3
   0   0   6 9686.81 403.667   5
   0   0   7-37.3329 111.375   5
   0   0   7 26.6084 70.1952   3
   0   0   8 79491.2 1332.87   5
   0   0   9 4.48878 139.093   5
   0   0  10 6073.94 438.624   5
   0   0  11-291.943 198.708   5
   0   0  12 274383. 3078.10   5
   0   0  13-105.246 148.940   9
   0   0  14 902.168 242.284   9
   0   0  15 8.15095 153.428   9
   0   0  16 3562.53 401.078   9
   0   0  17-28.9696 140.101   9
   0   0  18 1335.94 229.944   9
   0   0  19-117.739 140.263   9
   0   0  20 200.764 96.4376   9
   0  -1   1 161370. 822.731   4
   0  -1   1 163259. 871.207   1
   0  -1   2 72022.8 629.218   4
   0  -1  -3 12621.4 243.282   2
   0  -1   4 123325. 1054.44   5
   0  -1  -4 120353. 849.004   2
   0  -1   5 32428.5 622.790   5
   0  -1  -5 32470.1 483.265   2
   0   1   6 2989.96 269.987   3
   0  -1   6 2839.25 219.254   5
   0  -1  -6 2893.13 152.570   2
   0   1   7 4713.47 343.946   3
   0   1   7 4713.58 332.978   5
   0  -1   7 4767.82 302.560   5
   0  -1  -7 4705.97 196.105   2
   0   1   8 3003.69 299.544   5
   0   1   8 2678.61 272.151   3
   0  -1   8 2815.54 258.500   5
   0   1   9 51381.7 1176.05   3
   0   1   9 51705.3 1202.93   5
   0  -1   9 51030.9 1090.25   5
   0   1  10 28626.5 932.787   5
   0  -1  10 29415.5 891.446   5
   0   1  11 6003.77 467.770   5
   0   1  12 24471.1 944.827   5
   0   1  13 67454.0 1539.04   9
   0  -1  13 65753.8 1516.14   9
   0   1  13 63344.2 1565.05   5
   0   1  14 7035.62 537.560   9
   0  -1  14 7416.02 539.527   9
   0  -1  15 748.886 223.419   9
   0   1  15 1207.51 277.629   9
   0  -1  16 143.038 145.983   9
   0   1  16 168.658 170.515   9
   0   1  17 2839.42 342.001   9
   0  -1  17 2624.61 334.852   9
   0  -1  18 253.000 146.656   9
   0   1  18 178.513 165.640   9
   0  -1  19 2477.94 263.529   9
   0   1  19 2611.92 265.451   9
   0   1  20 3549.56 248.942   9
   0  -2   0 1397.27 117.614   1
   0  -2   1 36396.2 550.349   4
   0  -2   1 38772.9 576.637   1
   0  -2   2 31621.6 524.321   4
   0  -2   3 57605.4 757.986   4
   0  -2   4 4108.76 220.172   4
   0  -2   4 4226.96 193.826   5
   0  -2   5 124257. 1147.89   5
   0  -2   5 120844. 1260.29   4
   0  -2   6 218356. 1830.24   4
   0  -2   6 222787. 1731.83   5
   0  -2   7 8313.93 378.217   5
   0  -2   7 8957.65 394.784   4
   0   2   8 1642.84 256.011   3
   0   2   8 1911.93 256.784   5
   0  -2   8 1584.85 193.016   5
   0  -2   8 1672.66 181.898   4
   0   2   9 7789.44 512.921   3
   0   2   9 8111.81 506.949   5
   0   2  10 121448. 1987.06   5
   0   2  11 40735.5 1202.23   5
   0   2  12 2838.36 364.335   5
   0   2  13 3528.34 403.524   5
   0  -2  13 3590.96 378.638   9
   0   2  13 3538.43 372.068  13
   0   2  13 3465.57 372.508   9
   0  -2  14 830.594 205.530   9
   0   2  14 699.326 195.233   9
   0   2  15 14936.9 778.950   9
   0  -2  15 14944.0 765.709   9
   0   2  16-188.681 170.980   9
   0  -2  16-44.1866 141.017   9
   0  -2  17 2689.17 325.345   9
   0   2  17 2869.57 341.830   9
   0  -2  18 15764.9 682.743   9
   0   2  18 15183.6 680.298   9
   0   2  19 382.121 147.853   9
   0  -2  19 248.375 118.468   9
   0   2  20 275.462 98.8420   9
   0  -3   0 23.6081 72.6844   1
   0  -3  -1 462.106 121.931   1
   0  -3   1 348.438 99.6768   1
   0  -3   2 22914.1 564.534   1
   0  -3   2 22894.4 546.981   4
   0  -3   3 67632.4 957.371   4
   0  -3   4 685.048 115.742   4
   0  -3   5 90985.8 1208.94   4
   0  -3   6 88061.5 1242.96   4
   0  -3   7 52427.1 1001.81   4
   0  -3   8 9176.68 438.901   4
   0   3   9 2058.34 290.856   5
   0   3   9 1688.36 280.908   3
   0   3  10 53134.5 1357.45   5
   0   3  11 15652.6 772.555   5
   0   3  12 946.302 249.149   5
   0   3  13 16905.2 785.976   9
   0   3  13 17237.6 845.841   5
   0   3  13 17187.4 789.115  13
   0  -3  13 17593.4 786.395   9
   0   3  14 26937.6 1013.40   9
   0  -3  14 26278.0 990.306   9
   0   3  14 26716.1 1042.53   5
   0  -3  15 1593.01 276.944   9
   0   3  15 1420.86 276.847   9
   0  -3  16 382.246 144.482   9
   0   3  16 442.821 189.554   9
   0   3  17 3535.84 368.004   9
   0  -3  17 3110.29 342.483   9
   0  -3  18 12219.6 583.062   9
   0   3  18 12202.2 591.303   9
   0   3  19 3793.61 296.591   9
   0   3  20 46.1489 66.1311   9
   0  -4   0 4160.32 292.758   1
   0  -4  -1 325553. 2550.58   1
   0  -4   1 309286. 2383.07   1
   0  -4   2 59851.8 1047.77   1
   0  -4  -2 58695.4 1150.96   1
   0  -4   3 93419.0 1309.89   4
   0  -4   4 69611.8 1143.19   4
   0  -4   5 12098.2 493.576   4
   0  -4   6 80424.9 1299.27   4
   0  -4   7 9575.08 468.964   4
   0  -4   8 336.208 113.994   4
   0   4   9 5210.07 445.721   5
   0   4  10 2104.85 320.436   5
   0   4  10 1468.84 289.501   3
   0   4  11 90537.6 1885.63   5
   0   4  12 39419.3 1118.44  13
   0  -4  12 41542.2 1134.13   9
   0   4  12 39906.6 1271.17   5
   0   4  13 5868.84 468.242  13
   0  -4  13 5626.99 447.975   9
   0   4  13 6192.95 521.751   5
   0   4  14 2328.93 316.591   9
   0   4  14 2383.38 347.941   5
   0  -4  14 2248.58 308.336   9
   0  -4  15 5340.60 450.643   9
   0   4  15 5091.15 459.769   9
   0   4  16 8403.41 555.197   9
   0  -4  16 8520.93 547.778   9
   0  -4  17 1078.39 217.542   9
   0   4  17 581.502 184.022   9
   0   4  18 488.261 162.195   9
   0   4  19 1721.60 193.532   9
   0  -4 -20 1401.84 126.265  12
   0   4  20 1217.00 121.414   9
   0  -5   0-29.2521 102.998   1
   0  -5  -1 2754.07 280.264   1
   0  -5   1 2262.34 246.873   1
   0  -5   2 777.595 159.312   1
   0  -5  -2 815.375 184.849   1
   0  -5  -3 42935.4 1129.88   1
   0  -5   4 5787.94 381.209   4
   0  -5   5 80142.7 1411.08   4
   0  -5   6 852.228 181.039   4
   0  -5   7 22528.7 782.521   4
   0  -5   8 101188. 1679.35   4
   0   5   9 174.496 185.914   5
   0   5  10 8168.75 582.802   5
   0   5  11 26460.5 1033.08   5
   0   5  12 6584.04 536.384   5
   0   5  12 6212.54 462.258  13
   0  -5  12 5484.63 429.397   9
   0  -5  13 1710.95 279.404   9
   0   5  13 1551.79 271.988  13
   0   5  14 5788.01 494.092   5
   0  -5  14 5293.47 442.490   9
   0   5  14 4626.73 425.297   9
   0  -5  15 812.205 202.809   9
   0   5  15 1031.74 230.841   9
   0  -5  16 3533.89 348.618   9
   0   5  16 3591.15 369.292   9
   0   5  17 9735.50 532.246   9
   0   5  18 1742.03 213.026   9
   0   5  19 251.865 90.2418   9
   0  -6   0 35338.4 1040.16   1
   0  -6  -1 73560.1 1507.58   1
   0  -6   1 73894.1 1476.51   1
   0  -6   2 21357.5 803.245   1
   0  -6  -2 20827.4 824.183   1
   0  -6  -3 44057.6 1235.26   1
   0  -6  -4 157.967 134.435   1
   0  -6  -5 140939. 2378.02   1
   0  -6  -6 17179.1 864.230   1
   0  -6  -7 161567. 2702.36   1
   0  -6  -8 5318.23 518.941   1
   0   6   9 116526. 2083.01   5
   0  -6  -9 123835. 2469.71   1
   0   6  10 4100.06 431.395   5
   0   6  11 21929.9 793.160  13
   0   6  11 24256.4 1005.72   5
   0  -6  12 11201.0 586.772   9
   0   6  12 10368.8 654.453   5
   0   6  12 10142.6 572.421  13
   0  -6  13 1891.37 262.353   9
   0   6  13 1349.13 264.542   5
   0   6  13 1272.83 228.307  13
   0   6  14-0.90128 117.282   9
   0   6  14 7.02594 107.752   5
   0   6  15 9510.91 569.872   9
   0   6  16 3541.90 340.450   9
   0   6  17 1404.53 216.029   9
   0   6  18 245.236 104.021   9
   0  -6 -19 1251.70 142.367  12
   0   6  19 1124.26 113.045   9
   0  -7   0-23.9787 129.401   1
   0  -7   1 2384.28 322.765   1
   0  -7  -1 2828.43 356.620   1
   0  -7  -2 24689.7 978.264   1
   0  -7   2 24475.2 950.116   1
   0  -7  -3 9163.72 621.090   1
   0  -7  -4 27423.2 1081.63   1
   0  -7  -5 40079.5 1341.38   1
   0  -7  -6 2852.73 375.987   1
   0  -7  -7 104.162 166.628   1
   0  -7  -8 40721.7 1448.04   1
   0  -7  -9 2573.26 378.417   1
   0   7   9 2784.80 363.829   5
   0   7  10 219.531 198.591   5
   0   7  11 5201.63 477.634   5
   0   7  12 633.760 219.863   5
   0   7  12 325.040 132.203  13
   0   7  13 15047.2 743.881   5
   0   7  14 7388.97 507.382   5
   0   7  14 8166.11 520.984   9
   0   7  15 2107.21 273.960   9
   0   7  16 441.762 147.894   9
   0   7  17 12670.8 493.150   9
   0  -7 -17 13403.1 558.414  12
   0   7  18 3208.46 200.562   9
   0  -7 -18 4332.93 279.090  12
   0  -7 -19 342.699 76.2999  12
   0  -8   0 63011.9 1650.69   1
   0  -8   1 61752.2 1644.02   1
   0  -8  -1 62800.8 1672.27   1
   0  -8   2 67339.5 1727.64   1
   0  -8  -2 72384.0 1831.42   1
   0  -8  -3 67147.1 1775.20   1
   0  -8  -4 4054.17 450.966   1
   0  -8  -5 1734.10 316.431   1
   0  -8  -6 10489.0 751.083   1
   0  -8  -7 1672.89 309.607   1
   0  -8  -8 4724.64 525.502   1
   0   8   9 3144.76 388.062   5
   0  -8  -9 2463.28 385.479   1
   0   8  10 414.082 184.982   5
   0   8  11 11569.3 662.797   5
   0   8  12 13716.1 686.029   5
   0   8  13 19954.7 766.900   9
   0   8  14 81.4171 107.359   9
   0   8  15 19861.4 686.086   9
   0   8  16 1654.37 196.527   9
   0  -8 -16 1959.22 253.598  12
   0  -8 -17 2676.63 245.754  12
   0  -8 -18 1306.16 144.516  12
   0  -9   0-240.274 181.884   1
   0  -9  -1 13365.1 842.348   1
   0  -9   1 14451.8 877.017   1
   0  -9  -2 20527.3 1049.36   1
   0  -9  -3 31019.2 1305.05   1
   0  -9  -4 17008.8 986.169   1
   0  -9  -5 70563.0 2004.76   1
   0  -9  -6 13462.9 888.807   1
   0  -9  -7 19901.4 776.413  12
   0  -9  -7 20197.8 1088.47   1
   0  -9  -8 4788.95 411.606  12
   0  -9  -8 4065.86 486.601   1
   0  -9  -9 4083.59 410.964  12
   0  -9  -9 3153.27 416.313   1
   0  -9 -10 17101.3 786.013  12
   0  -9 -11 7366.10 530.324  12
   0  -9 -12 174.435 181.121  12
   0  -9 -13 241.290 176.859  12
   0  -9 -14 3426.26 345.829  12
   0  -9 -15 259.514 151.956  12
   0  -9 -16 64.7492 120.868  12
   0  -9 -17 759.417 136.837  12
   0 -10   0-142.409 228.944   1
   0 -10  -1-51.1846 181.779   1
   0 -10   1 497.593 270.565   1
   0 -10  -2 35700.5 1462.59   1
   0 -10  -3 16734.3 1007.42   1
   0 -10  -4 6773.24 660.764   1
   0 -10  -5 8359.65 734.055   1
   0 -10  -5 8347.38 504.790  12
   0 -10   6 16316.3 667.519  12
   0 -10  -6 16404.8 1020.96   1
   0 -10  -6 15678.4 699.930  12
   0 -10   7 1879.28 253.692  12
   0 -10  -7 1821.25 342.358   1
   0 -10  -7 1430.64 257.617  12
   0 -10  -8 667.191 206.450   1
   0 -10  -8 235.100 170.772  12
   0 -10  -9 16989.1 779.352  12
   0 -10 -10 18408.3 811.003  12
   0 -10 -11 4277.31 407.701  12
   0 -10 -12 84.0480 140.149  12
   0 -10 -13 3105.01 328.919  12
   0 -10 -14 184.405 152.232  12
   0 -10 -15 840.604 175.544  12
   0 -10 -16 2070.01 200.809  12
   0 -10 -17 1336.78 124.809  12
   0 -11   0 297.701 140.287   8
   0 -11   0 221.980 147.631  12
   0 -11  -1 26219.7 865.566  12
   0 -11  -1 27969.6 1365.73   1
   0 -11   1 25444.9 808.684   8
   0 -11   1 26083.5 856.840  12
   0 -11  -1 26165.0 852.289   8
   0 -11   2 5935.49 422.404  12
   0 -11  -2 6178.57 439.649  12
   0 -11  -2 6438.22 656.013   1
   0 -11  -2 6523.69 443.500   8
   0 -11   3 13637.2 633.703  12
   0 -11  -3 13472.1 648.693  12
   0 -11  -3 14648.2 675.308   8
   0 -11  -4 2275.23 412.852   1
   0 -11   4 2200.16 286.140  12
   0 -11  -4 2176.44 280.593  12
   0 -11  -4 2160.28 296.706   8
   0 -11  -5 726.664 235.313   1
   0 -11  -5 343.638 145.468  12
   0 -11   5 437.499 156.858  12
   0 -11  -6 1662.93 276.735  12
   0 -11   6 1794.96 258.673  12
   0 -11  -7 4631.75 412.440  12
   0 -11  -8 857.870 211.742  12
   0 -11   9 135.127 126.639  10
   0 -11  -9 422.982 183.415  12
   0 -11 -10-6.85408 157.253  12
   0 -11  10-282.607 132.168  10
   0 -11 -11 745.644 204.254  12
   0 -11 -12 562.275 182.682  12
   0 -11 -13 8527.82 478.284  12
   0 -11 -14 1910.54 230.100  12
   0 -11 -15 4294.41 275.325  12
   0 -11 -16-56.0894 69.9840  12
   0 -12   0 55869.4 1274.71   8
   0 -12   0 54441.8 1290.11  12
   0 -12  -1 4208.63 384.528  12
   0 -12  -1 4774.10 395.265   8
   0 -12   1 4858.95 371.765   8
   0 -12   1 4815.98 403.772  12
   0 -12   2 152.072 150.448  12
   0 -12  -2 412.265 159.316   8
   0 -12  -2 59.4233 150.063  12
   0 -12   2-127.499 111.687   8
   0 -12  -3 24881.0 897.332   8
   0 -12  -3 22787.2 862.053  12
   0 -12   3 23169.0 843.435  12
   0 -12   4 178.058 115.931  12
   0 -12  -4-82.6893 157.651  12
   0 -12   5 786.547 192.295  12
   0 -12  -5 1120.00 233.446  12
   0 -12   6 150.086 167.885  12
   0 -12  -6-96.5501 173.257  12
   0 -12  -7 736.741 197.172  12
   0 -12  -8-60.7987 174.980  12
   0 -12   8 289.710 162.421  10
   0 -12  -9 19048.2 787.574  12
   0 -12   9 19498.6 758.878  10
   0 -12  10 3896.01 325.369  10
   0 -12 -10 3799.70 355.350  12
   0 -12 -11 726.757 194.213  12
   0 -12 -12 15910.7 626.416  12
   0 -12 -13 13.7937 108.075  12
   0 -12 -14-142.146 104.148  12
   0 -12 -15 199.440 70.5179  12
   0 -13   0 314.579 171.322  12
   0 -13   0-28.6940 112.016   8
   0 -13   1 340.571 138.674   8
   0 -13  -1 654.829 199.915  12
   0 -13   1 620.070 179.145  12
   0 -13  -1 609.707 171.150   8
   0 -13   2 2964.89 328.727  12
   0 -13  -2 3239.90 332.387  12
   0 -13  -3 3839.23 380.917  12
   0 -13   3 3751.15 365.959  12
   0 -13   4 19092.6 748.322  12
   0 -13  -4 19700.3 802.097  12
   0 -13  -5-128.041 127.036  12
   0 -13   5 140.008 144.074  12
   0 -13  -6 1767.08 265.609  12
   0 -13  -7 7389.15 489.847  12
   0 -13   7 8042.91 535.846  10
   0 -13   8 14628.7 671.963  10
   0 -13  -8 14807.3 669.793  12
   0 -13   9 487.701 156.317  10
   0 -13  -9 461.455 173.377  12
   0 -13 -10 307.654 153.593  12
   0 -13  10 438.531 136.671  10
   0 -13 -11 1266.19 195.588  12
   0 -13 -12 422.457 120.339  12
   0 -13 -13 535.861 111.677  12
   0 -14   0 254.356 142.442  12
   0 -14   1 3641.08 346.371  12
   0 -14  -1 3660.81 351.450  12
   0 -14   2 2675.79 291.630  12
   0 -14  -2 2556.89 292.836  12
   0 -14   3 1155.44 214.130  12
   0 -14  -3 1041.13 225.301  12
   0 -14  -3 1380.24 212.195  10
   0 -14  -4 1792.63 254.347  12
   0 -14   4 1620.20 232.228  12
   0 -14  -5 5725.40 418.195  12
   0 -14   5 6685.84 497.488  10
   0 -14  -6 33440.2 959.246  12
   0 -14   6 33134.9 1030.55  10
   0 -14   7 637.187 204.294  10
   0 -14  -7 833.948 202.382  12
   0 -14   8 548.505 158.847  10
   0 -14  -8 577.811 167.270  12
   0 -14   9 27.3903 113.855  10
   0 -14  -9 69.7251 114.123  12
   0 -14  10 4206.28 248.801  10
   0 -14 -10 4941.69 310.191  12
   0 -14 -11 5630.30 294.157  12
   0 -14 -12 339.249 79.0310  12
   0 -15   0 73.2888 106.311  12
   0 -15   0-114.547 148.517  10
   0 -15   1 126.445 127.518  12
   0 -15   1-195.915 187.597  10
   0 -15  -1-255.271 139.443  12
   0 -15  -1-196.713 157.763  10
   0 -15   2 14037.0 556.903  12
   0 -15  -2 13604.6 582.539  12
   0 -15   2 13925.2 670.431  10
   0 -15  -2 14111.6 595.104  10
   0 -15   3 2315.35 303.129  10
   0 -15  -3 2523.31 269.354  12
   0 -15  -3 2248.10 235.974  10
   0 -15   3 2741.20 259.001  12
   0 -15   4 42.9789 154.647  10
   0 -15  -4 394.498 149.220  12
   0 -15   5 1709.27 265.305  10
   0 -15  -5 2120.72 244.779  12
   0 -15  -6 1240.41 187.401  12
   0 -15   6 1162.47 208.522  10
   0 -15   7 2353.57 247.393  10
   0 -15  -7 2407.40 232.909  12
   0 -15  -8 140.895 103.920  12
   0 -15   8 38.2083 100.965  10
   0 -15   9 348.937 104.444  10
   0 -15  -9 131.565 86.4039  12
   0 -15 -10 3172.08 183.914  12
   0 -16   0 7062.39 401.173  10
   0 -16  -1 2390.06 232.029  10
   0 -16  -1 2163.75 206.325  12
   0 -16   1 2232.76 250.036  10
   0 -16  -2 98.8410 97.7113  10
   0 -16   2 86.3954 121.574  10
   0 -16   3 253.251 140.012  10
   0 -16  -3 512.852 114.965  12
   0 -16   4 3557.94 298.614  10
   0 -16  -4 2878.23 219.102  12
   0 -16  -5 696.558 122.401  12
   0 -16   5 336.665 134.611  10
   0 -16  -6 213.085 80.3307  12
   0 -16   6 496.603 130.996  10
   0 -16   7 134.007 88.2606  10
   0 -16  -7 9.70390 58.3532  12
   0 -17   0 5.84413 81.2621  10
   0 -17   1 144.576 93.5922  10
   0 -17  -1 277.135 82.1965  10
   0 -17   2 173.964 88.5514  10
   0 -17   3 32.0497 84.3339  10
   0 -17   4 1784.39 168.413  10
   0 -17   5 884.993 122.705  10
   1   0   0 50.8256 24.0780   3
   1   0   1 123967. 604.714   2
   1   0   1 125075. 955.611   3
   1   0   2 80568.3 920.070   3
   1   0   3 13146.4 427.488   3
  -1   0   3 12526.1 229.902   3
  -1   0   4 127102. 893.145   3
   1   0   4 128170. 1456.36   3
   1   0   5 20364.0 496.047   5
   1   0   5 19835.5 617.581   3
  -1   0   5 19264.4 409.404   3
   1   0   6 681.286 126.774   5
   1   0   6 567.252 135.904   3
   1   0   7 5682.43 325.166   5
   1   0   7 5294.38 372.506   3
  -1   0   7 5444.84 362.518   5
   1   0   8 4022.85 306.909   5
  -1   0   8 4026.46 339.345   5
   1   0  -8 3305.01 276.605   2
  -1   0   9 122894. 1822.48   5
   1   0   9 126590. 1728.92   5
   1   0  10 1621.07 267.129   5
  -1   0  10 2221.53 313.160   5
  -1   0  11 18308.5 785.158   5
  -1   0  12 39854.6 1197.02   5
   1   0  13 17033.6 779.300  13
   1   0  13 15778.8 757.378   9
  -1   0  13 16618.7 825.800   5
  -1   0  13 16182.4 773.418   9
   1   0  14 9368.74 612.922   9
  -1   0  14 8847.77 605.328   9
  -1   0  15 3387.06 381.784   9
   1   0  15 3830.42 422.434   9
   1   0  16 480.266 165.270   9
  -1   0  16 535.543 215.126   9
   1   0  17 2009.03 305.279   9
  -1   0  17 1591.93 277.943   9
  -1   0  18 2878.77 329.491   9
   1   0  18 3080.11 336.943   9
  -1   0  19 2872.70 281.459   9
   1   0  19 3145.18 292.647   9
   1   0  20 4719.99 279.672   9
  -1   1  19 2101.50 244.034   9
   1  -1  19 2198.48 245.251   9
   1  -1  18 421.999 168.214   9
  -1   1  18 346.839 158.653   9
  -1   1  17 12087.0 665.405   9
   1  -1  17 12016.1 661.275   9
  -1   1  16 1627.69 288.633   9
   1  -1  16 1299.39 263.457   9
  -1   1  15 3550.26 406.497   9
   1  -1  15 3060.87 362.099   9
   1  -1  14 8532.97 583.818   9
  -1   1  14 8472.18 598.976   5
  -1   1  14 8929.35 599.842   9
  -1   1  13 25541.1 949.262   9
   1  -1  13 26613.7 962.396   9
  -1   1  13 24146.6 984.077   5
  -1   1  12 28251.4 1039.87   5
  -1   1  11 135434. 2200.04   5
  -1   1  10 534.938 199.640   5
  -1   1   9 8944.18 540.548   5
  -1   1   8 5906.22 329.176   3
   1  -1   8 6473.58 368.298   5
  -1   1   8 5979.22 417.615   5
  -1   1   7 88898.9 1255.62   3
   1  -1   7 91183.3 1234.84   5
   1  -1   6 2593.21 202.470   5
  -1   1   6 2432.00 222.117   3
   1  -1   5 116876. 1131.60   5
   1  -1   4 777.884 103.686   5
   1  -1   0 125251. 839.936   4
   1  -1  -1 581183. 1712.34   4
  -1  -1   1 581997. 1589.15   1
   1  -1  -2 269151. 1542.46   2
  -1  -1   3 546.126 48.3453   4
   1  -1  -3 644.983 98.8141   2
   1   1   4 810.980 120.359   5
  -1  -1   4 758.202 123.648   5
  -1  -1   4 825.476 71.5131   4
   1  -1  -4 903.661 124.325   2
  -1  -1   5 108487. 1207.09   5
  -1  -1   5 109654. 871.081   4
   1   1   5 111113. 1211.79   5
  -1  -1   6 2455.64 148.964   4
  -1  -1   6 2396.40 216.566   5
   1   1   6 2380.41 208.860   5
   1   1   6 2511.99 279.329   3
   1  -1  -6 2846.76 217.566   2
  -1  -1   7 86314.2 1287.48   5
   1   1   7 84851.5 1578.02   3
  -1  -1   7 86186.7 936.970   4
   1   1   7 87512.6 1292.06   5
   1  -1  -8 5522.14 302.527   2
   1   1   8 6142.12 447.921   3
   1   1   8 5588.28 364.508   5
  -1  -1   8 5691.88 369.705   5
   1   1   9 8895.29 548.040   3
   1   1   9 9414.09 494.193   5
  -1  -1   9 9526.32 499.291   5
  -1  -1  10-69.0826 158.493   5
   1   1  10-14.2602 148.130   5
   1   1  11 130508. 2060.67   5
  -1  -1  11 126377. 1968.70   5
  -1  -1  12 27316.0 974.699   5
   1   1  13 23354.1 911.281   9
   1   1  13 23948.4 914.360  13
  -1  -1  13 24776.7 939.830   9
   1   1  14 8857.45 599.902   9
  -1  -1  14 8901.53 598.223   9
  -1  -1  15 2267.09 316.117   9
   1   1  15 2493.26 338.914   9
  -1  -1  16 1748.71 294.359   9
   1   1  16 2172.87 328.336   9
   1   1  17 10841.1 632.060   9
  -1  -1  17 11690.9 654.464   9
  -1  -1  18 451.884 156.949   9
   1   1  18 539.957 181.869   9
  -1  -1  19 1987.14 236.776   9
   1   1  19 2074.99 245.388   9
   1   1  20 29.5771 76.9505   9
  -1   2  20 2702.02 206.258   9
  -1   2  19 8644.28 448.550   9
   1  -2  19 8338.46 425.210   9
  -1   2  18 6716.38 456.785   9
   1  -2  18 6570.27 440.004   9
  -1   2  17 2585.74 326.391   9
   1  -2  17 2302.81 304.429   9
  -1   2  16 333.062 183.293   9
   1  -2  16 554.311 186.065   9
  -1   2  15 1611.48 282.503   9
   1  -2  15 1623.04 283.776   9
  -1   2  14 29364.9 1058.98   9
   1  -2  14 30518.0 1062.84   9
  -1   2  14 29821.7 1120.68   5
  -1   2  13 68555.0 1688.68   5
  -1   2  13 67825.5 1540.56   9
   1  -2  13 68370.5 1530.62   9
  -1   2  12 19316.4 891.476   5
  -1   2  11 1689.97 329.538   5
  -1   2  10 26891.6 985.619   5
  -1   2   9 24393.9 901.143   5
   1  -2   9 24808.2 830.932   4
  -1   2   8 32038.7 916.947   3
   1  -2   8 31748.9 894.568   4
   1  -2   7 27482.7 791.061   4
   1  -2   4 12876.9 444.564   4
   1  -2   3 35229.1 682.137   4
   1  -2   2 178478. 1422.30   4
   1  -2   1 167217. 1294.05   4
   1  -2   0 26433.4 487.098   1
   1  -2   0 26769.9 502.638   4
  -1  -2   1 166422. 1220.95   1
   1  -2  -1 170737. 1222.94   1
  -1  -2   2 166373. 1160.79   1
   1  -2  -2 160292. 1282.57   1
  -1  -2   3 30116.8 470.212   4
  -1  -2   4 13803.3 341.982   5
  -1  -2   4 13493.0 325.409   4
  -1  -2   5 22021.7 497.554   5
  -1  -2   5 20963.4 431.518   4
   1   2   5 20432.1 551.613   5
  -1  -2   6 34543.2 696.422   5
   1   2   6 33376.7 775.764   5
  -1  -2   6 33084.2 575.000   4
  -1  -2   7 25814.1 537.195   4
  -1  -2   7 26258.3 665.995   5
   1   2   7 25545.6 738.235   5
   1   2   8 30223.0 851.790   5
  -1  -2   8 29038.9 764.381   5
   1   2   9 22115.7 937.274   3
  -1  -2   9 23324.4 730.385   5
   1   2   9 22219.7 771.331   5
   1   2  10 28634.3 919.920   5
  -1  -2  10 29060.8 875.072   5
   1   2  10 27886.9 1056.54   3
   1   2  11 1428.46 254.269   5
   1   2  12 19620.1 841.695   5
  -1  -2  13 70261.7 1576.82   9
   1   2  13 67591.1 1536.83  13
  -1  -2  14 28804.6 1050.38   9
   1   2  14 28041.7 1029.98  13
   1   2  14 28592.2 1052.40   9
  -1  -2  15 1325.68 271.501   9
   1   2  15 982.427 259.422   9
   1   2  16 623.069 203.039   9
  -1  -2  16 435.044 160.142   9
   1   2  17 2737.21 332.036   9
  -1  -2  17 2588.03 320.995   9
  -1  -2  18 6715.06 457.308   9
   1   2  18 6497.95 452.432   9
   1   2  19 8370.93 445.111   9
   1   2  20 2556.37 206.961   9
  -1   3  19 263.992 115.003   9
   1  -3  18 2877.27 287.019   9
  -1   3  18 2804.88 297.599   9
   1  -3  17 5270.98 416.571   9
  -1   3  17 4600.28 407.543   9
   1  -3  16 3563.78 372.267   9
  -1   3  16 3557.00 383.242   9
   1  -3  15 10659.6 630.960   9
  -1   3  15 11139.4 661.861   9
  -1   3  15 11098.7 696.305   5
   1  -3  14 381.195 181.501   9
  -1   3  14 339.600 185.519   9
  -1   3  14 115.689 185.139   5
  -1   3  13 7662.14 598.958   5
  -1   3  13 8011.57 535.756   9
   1  -3  13 7388.14 508.126   9
  -1   3  12 20097.6 947.206   5
  -1   3  11 59988.4 1567.99   5
  -1   3  10 36454.1 1192.91   5
   1  -3   9 936.268 173.299   4
   1  -3   8 7148.10 440.986   4
   1  -3   7 1195.94 187.417   4
   1  -3   6 105381. 1527.44   4
   1  -3   5 22935.2 678.851   4
   1  -3   4 32040.8 763.327   4
   1  -3   3 41970.8 827.316   4
   1  -3   2 33915.8 716.467   4
   1  -3   1 244502. 1869.29   1
   1  -3   1 240036. 1847.48   4
   1  -3   0 452353. 2449.75   1
   1  -3   0 439166. 2482.42   4
  -1  -3   1 247085. 1834.59   1
   1  -3  -1 255474. 1849.22   1
  -1  -3   2 31489.4 643.588   1
   1  -3  -2 31615.6 680.378   1
   1  -3  -3 42127.9 839.428   1
  -1  -3   4 29861.3 596.999   4
  -1  -3   5 19978.8 501.620   4
  -1  -3   6 107090. 1189.03   4
   1   3   6 99853.4 1380.66   5
   1   3   7 1876.16 236.999   5
  -1  -3   7 1776.74 162.864   4
   1   3   8 8103.91 471.830   5
   1   3   9 1957.14 331.530   3
   1   3   9 2470.07 284.517   5
   1   3  10 36768.9 1078.28   5
   1   3  10 36701.4 1311.16   3
   1   3  11 57549.2 1397.78   5
   1   3  12 20347.5 869.152   5
  -1  -3  12 21854.8 835.621   9
   1   3  12 20054.5 806.332  13
   1   3  13 7921.27 544.422  13
  -1  -3  13 7471.52 530.874   9
   1   3  13 7706.78 558.597   5
   1   3  14 238.583 185.844  13
  -1  -3  14 385.918 177.042   9
   1   3  14 313.403 170.555   9
  -1  -3  15 11223.1 663.409   9
   1   3  15 11369.5 678.020   9
   1   3  16 2748.61 351.894   9
  -1  -3  16 3335.35 371.993   9
   1   3  17 4656.39 420.523   9
  -1  -3  17 5303.84 437.530   9
   1   3  18 2761.93 301.359   9
   1   3  19 73.6343 96.7792   9
   1   3  20 3897.97 236.331   9
   1  -3 -20 3392.85 188.032  12
  -1  -4 -20 1986.32 152.772  12
  -1   4  19 5639.73 315.646   9
  -1   4  18 608.312 152.536   9
   1  -4  17 297.725 133.317   9
  -1   4  17 397.560 155.659   9
  -1   4  16 7982.08 534.844   9
   1  -4  16 7351.45 492.967   9
  -1   4  15 8698.64 583.566   9
  -1   4  15 7334.29 552.055   5
   1  -4  15 8678.81 553.022   9
  -1   4  14-126.898 167.826   5
  -1   4  14 76.1874 154.237   9
   1  -4  14 218.745 138.758   9
   1  -4  13 28194.2 967.162   9
  -1   4  13 29800.4 1016.73   9
  -1   4  13 28198.9 1130.61   5
  -1   4  12 13418.3 651.258  13
  -1   4  12 14927.2 828.916   5
   1  -4  12 13835.2 642.576   9
  -1   4  11 2959.77 409.002   5
  -1   4  10 5892.17 520.003   5
   1  -4   9 17177.5 730.760   4
   1  -4   8 27087.9 887.062   4
   1  -4   7 143657. 1977.39   4
   1  -4   6 38333.6 982.607   4
   1  -4   5 58502.4 1167.62   4
   1  -4   4 32066.0 836.130   4
   1  -4   3 65729.5 1160.92   4
   1  -4   2 110133. 1463.54   4
   1  -4   1 15848.3 559.489   4
   1  -4   1 16007.1 554.723   1
  -1  -4   0 36979.9 874.662   1
   1  -4   0 36587.7 821.066   1
   1  -4  -1 17834.8 584.255   1
  -1  -4   1 17159.7 567.946   1
  -1  -4   2 107970. 1397.58   1
   1  -4  -2 109725. 1456.72   1
  -1  -4   3 73143.8 1155.76   1
   1  -4  -3 75884.4 1263.80   1
   1  -4  -4 28194.3 818.050   1
   1   4   7 138768. 1827.52   5
   1   4   8 29413.7 899.899   5
   1   4   9 18983.8 761.593   5
   1   4  10 5943.30 590.065   3
   1   4  10 6561.48 477.426   5
   1   4  11 2823.89 345.831   5
   1   4  12 13637.2 720.018   5
  -1  -4  12 13860.0 680.129   9
   1   4  12 14458.1 695.511  13
   1   4  13 30048.9 1039.58  13
  -1  -4  13 31118.7 1055.77   9
   1   4  13 29957.9 1070.01   5
  -1  -4  14 236.068 155.919   9
   1   4  14 149.393 143.037  13
   1   4  15 8771.91 594.696   9
  -1  -4  15 8558.44 575.284   9
  -1  -4  16 8301.29 547.330   9
   1   4  16 7092.89 526.867   9
   1   4  17-31.3282 132.665   9
   1   4  18 505.206 162.428   9
   1   4  19 6281.40 351.989   9
   1   4  20 1873.32 148.840   9
  -1   5  19 455.044 91.9931   9
  -1   5  18 937.348 155.681   9
  -1   5  17 2745.62 286.424   9
  -1   5  16 15360.2 699.164   9
   1  -5  16 16258.3 683.192   9
   1  -5  15 981.763 199.406   9
  -1   5  15 1252.92 241.375   5
  -1   5  15 1066.44 217.508   9
   1  -5  14 3651.71 351.978   9
  -1   5  14 3662.50 407.690   5
  -1   5  14 4044.48 405.389   9
  -1   5  13 534.828 222.503   5
  -1   5  13 626.014 197.492   9
   1  -5  13 1111.96 208.069   9
   1  -5  12 43126.3 1121.41   9
  -1   5  12 41583.2 1133.69  13
  -1   5  12 43990.4 1417.50   5
  -1   5  11 6291.37 566.800   5
   1  -5   9 10681.2 604.911   4
   1  -5   8 66564.3 1475.47   4
   1  -5   7 97063.3 1738.60   4
   1  -5   6 28367.3 916.376   4
   1  -5   5 38030.4 1031.82   4
   1  -5   4 58966.2 1254.82   4
   1  -5   3 40977.0 1028.85   4
   1  -5   2 27072.0 825.611   4
   1  -5   1 7932.76 447.392   1
  -1  -5  -1 8380.90 492.669   1
  -1  -5   0 69093.3 1319.63   1
   1  -5   0 69790.3 1285.11   1
   1  -5  -1 8052.36 454.258   1
  -1  -5   1 8443.97 455.683   1
   1  -5  -2 25853.4 803.953   1
  -1  -5   2 25567.8 769.140   1
  -1  -5   3 40536.9 974.471   1
   1  -5  -3 40155.1 1027.02   1
   1  -5  -4 61301.3 1309.92   1
   1  -5  -5 37462.9 1069.36   1
   1  -5  -6 29866.8 989.007   1
   1  -5  -7 96908.4 1830.67   1
   1   5   8 62781.5 1340.45   5
   1  -5  -8 65417.5 1544.60   1
   1   5   9 11935.3 620.427   5
   1  -5  -9 11357.3 662.129   1
   1   5  10 32198.5 1036.03   5
   1   5  10 30153.4 1418.77   3
   1   5  11 5490.46 469.585   5
   1   5  12 44517.8 1211.77  13
   1   5  12 46370.3 1310.40   5
  -1  -5  12 44917.7 1214.38   9
   1   5  13 473.410 196.941  13
  -1  -5  13 698.504 184.222   9
   1   5  14 3390.19 361.738  13
  -1  -5  14 3381.40 372.012   9
  -1  -5  15 959.658 218.174   9
   1   5  15 1263.02 254.901   9
   1   5  16 17607.9 778.538   9
   1   5  17 3257.20 328.278   9
   1   5  18 976.996 176.710   9
   1   5  19 262.006 106.029   9
   1  -5 -19 280.243 102.819  12
  -1  -6 -19 2052.62 175.267  12
  -1   6  18 4988.02 283.519   9
  -1   6  17 5484.71 355.059   9
  -1   6  16 3156.67 306.239   9
  -1   6  15 11856.2 612.288   9
  -1   6  14 1735.73 264.299   9
  -1   6  14 1443.21 290.217   5
   1  -6  14 1789.48 252.182   9
   1  -6  13 4847.62 384.305   9
  -1   6  13 4164.40 384.297   9
  -1   6  13 3976.36 437.102   5
  -1   6  12 7699.93 611.963   5
  -1   6  11 868.646 308.608   5
   1  -6   8 5145.30 450.293   4
   1  -6   7 40782.8 1226.42   4
   1  -6   6 100119. 1870.42   4
   1  -6   5 1261.11 231.255   4
   1  -6   4 26476.7 925.516   4
  -1  -6  -3 65190.7 1597.49   1
  -1  -6  -2 3097.95 349.510   1
   1  -6   1 6501.87 448.506   1
  -1  -6  -1 6903.46 482.530   1
   1  -6   0 3875.07 355.674   1
  -1  -6   0 4033.88 359.061   1
  -1  -6   1 6135.30 439.237   1
   1  -6  -1 6481.09 452.868   1
  -1  -6   2 3176.67 311.615   1
   1  -6  -2 2665.86 311.552   1
   1  -6  -3 65789.4 1442.68   1
  -1  -6   3 68362.1 1419.52   1
   1  -6  -4 23857.6 891.811   1
   1  -6  -5 762.560 193.489   1
   1  -6  -6 98968.8 1918.89   1
   1  -6  -7 42503.4 1281.37   1
   1   6   8 5418.98 424.323   5
   1  -6  -8 5076.92 468.568   1
   1   6   9 16086.6 729.759   5
   1   6  10 12817.4 673.544   5
   1   6  11 1024.32 198.956  13
   1   6  11 527.803 200.731   5
  -1  -6  11 722.079 181.935   9
  -1  -6  12 8217.15 530.320   9
   1   6  12 7209.95 525.994   5
   1   6  12 7161.64 492.700  13
   1   6  13 4324.80 406.603   5
   1   6  13 3762.81 381.325  13
   1   6  14 1748.33 263.207  13
   1   6  15 12041.5 652.629   9
   1   6  16 3356.19 341.623   9
   1   6  17 6327.11 410.353   9
   1  -6 -18 5630.07 339.463  12
   1   6  18 5512.17 329.400   9
   1  -6 -19 1714.31 154.934  12
   1   6  19 1610.18 141.168   9
  -1  -7 -19 483.995 84.8580  12
  -1  -7 -18 2769.27 229.283  12
  -1   7  17 727.751 125.321   9
  -1   7  16 5972.49 371.780   9
  -1   7  15 2346.37 263.008   9
  -1   7  14 17844.0 813.743   5
  -1   7  14 16189.8 693.710   9
  -1   7  13 1766.34 258.539   9
  -1   7  13 1558.21 295.505   5
  -1   7  12 12725.8 754.001   5
  -1   7  12 12538.6 614.622   9
  -1   7  11 8590.79 648.238   5
  -1  -7 -10 33792.2 1426.84   1
  -1  -7  -9 11868.7 847.866   1
  -1  -7  -8 35763.3 1452.03   1
  -1  -7  -7 9012.83 724.839   1
  -1  -7  -6 52273.9 1667.72   1
  -1  -7  -5 18791.4 978.125   1
  -1  -7  -4 40047.8 1372.12   1
  -1  -7  -3 13417.4 777.207   1
  -1  -7  -2 111419. 2143.46   1
   1  -7   1 56731.5 1450.50   1
  -1  -7  -1 56074.1 1468.23   1
   1  -7   0 40974.3 1223.46   1
  -1  -7   0 40144.8 1236.45   1
  -1  -7   1 55852.7 1430.47   1
   1  -7  -1 54231.3 1405.07   1
  -1  -7   2 117215. 2044.42   1
   1  -7  -2 117793. 2102.96   1
  -1  -7   3 13478.1 703.298   1
   1  -7  -3 13061.5 716.704   1
   1  -7  -4 40460.7 1260.11   1
   1  -7  -5 17838.4 855.582   1
   1  -7  -6 49989.7 1447.70   1
   1  -7  -7 9893.18 649.948   1
   1  -7  -8 36767.1 1267.09   1
   1   7   8 36445.9 1047.44   5
   1   7   9 11534.1 617.633   5
   1   7  10 33734.1 1059.69   5
   1   7  11 7465.30 512.639   5
   1   7  11 7218.84 481.414  13
   1   7  12 13431.5 657.057  13
   1   7  12 13326.0 674.041   5
   1   7  13 1915.40 271.168   5
   1   7  13 1707.47 255.403  13
   1   7  15 2731.72 316.388   9
   1   7  16 6518.46 427.879   9
   1  -7 -17 830.215 180.063  12
   1   7  17 867.790 154.121   9
   1   7  18 2327.42 187.850   9
   1  -7 -18 2666.61 221.593  12
  -1  -8 -18 4029.32 229.501  12
  -1  -8 -17 80.4963 105.831  12
  -1  -8 -16 5945.47 397.410  12
  -1   8  13 312.794 172.712   5
  -1   8  12 4485.97 442.674   5
  -1   8  11 1952.13 346.964   5
  -1  -8 -10 4077.84 500.728   1
  -1   8  10 3695.17 452.454   5
  -1  -8  -9 21472.7 1153.24   1
  -1  -8  -8 8689.41 744.595   1
  -1  -8  -7 19611.2 1091.01   1
  -1  -8  -6 14727.9 915.929   1
  -1  -8  -5 14027.2 888.357   1
  -1  -8  -4 36636.2 1375.09   1
  -1  -8  -3 45653.1 1492.83   1
  -1  -8  -2 23325.9 1047.61   1
  -1  -8  -1 16385.4 879.576   1
   1  -8   1 17752.1 895.884   1
  -1  -8   0 20538.6 956.088   1
   1  -8   0 19005.1 918.171   1
  -1  -8   1 16062.4 835.213   1
   1  -8  -1 18089.2 891.868   1
  -1  -8   2 25034.4 1043.86   1
   1  -8  -2 24864.4 1048.73   1
   1  -8  -3 45173.2 1432.09   1
   1  -8  -4 35596.5 1288.21   1
   1  -8  -5 13800.4 817.382   1
   1  -8  -6 15585.8 874.273   1
   1  -8  -7 20033.9 993.509   1
   1  -8  -8 8500.73 661.861   1
   1   8  12 4668.74 376.911  13
   1   8  13 468.027 157.099  13
   1   8  14 4316.89 365.175   9
   1  -8 -15 1193.79 237.185  12
   1   8  15 1764.05 232.793   9
   1  -8 -16 5368.92 380.942  12
   1   8  16 4710.38 321.626   9
   1   8  17-295.811 96.8394   9
   1  -8 -17 91.7523 111.591  12
   1  -8 -18 3632.70 218.889  12
  -1  -9 -17 1660.12 167.130  12
  -1  -9 -16 3398.44 276.545  12
  -1  -9 -15 5940.90 406.868  12
  -1  -9 -14 6259.20 447.449  12
  -1  -9 -13 7942.60 523.509  12
  -1  -9 -12 2504.46 323.602  12
  -1   9  10 11639.1 711.558   5
  -1  -9  -9 185.795 152.176  12
   1  -9   9-68.9102 120.819  10
  -1  -9  -8 8219.81 517.737  12
  -1  -9  -8 8422.84 751.448   1
  -1  -9  -7 816.338 273.951   1
  -1  -9  -7 620.026 163.617  12
   1  -9   7 733.323 207.607  12
  -1  -9  -6 1229.35 279.817   1
  -1  -9  -5 11845.2 854.724   1
  -1  -9  -4 87314.1 2230.16   1
  -1  -9  -3 2181.56 371.948   1
  -1  -9  -2 3766.06 476.528   1
  -1  -9  -1 56176.3 1734.64   1
   1  -9   0 113.247 135.635   1
  -1  -9   0 39.4769 144.121   1
   1  -9  -1 58349.6 1735.76   1
  -1  -9   1 58679.8 1731.25   1
  -1  -9   2 4399.22 500.399   1
   1  -9  -2 4417.92 497.669   1
   1  -9  -3 1557.48 310.287   1
   1  -9  -4 87987.6 2161.29   1
   1  -9  -5 10319.3 760.665   1
   1  -9  -6 1349.84 285.085   1
   1  -9  -7 1190.35 254.020  12
   1  -9  -7 1177.75 247.653   1
   1  -9  -8 9159.14 559.892  12
   1  -9  -8 9825.04 728.646   1
   1  -9  -9 410.597 188.985  12
   1  -9 -10 14991.2 746.961  12
   1  -9 -11 10328.5 622.880  12
   1  -9 -12 2039.94 306.156  12
   1  -9 -13 7888.50 536.321  12
   1   9  14 5598.47 375.279   9
   1  -9 -14 6559.52 466.216  12
   1   9  15 4536.32 304.045   9
   1  -9 -15 5440.97 388.223  12
   1  -9 -16 3643.07 293.243  12
   1  -9 -17 1664.45 174.335  12
  -1 -10 -16 2072.52 192.074  12
  -1 -10 -15 204.524 124.770  12
  -1 -10 -14 5723.32 392.070  12
  -1 -10 -13 6040.46 434.671  12
  -1 -10 -12 1662.20 270.628  12
  -1 -10 -11 1940.80 284.279  12
  -1 -10 -10 7829.94 534.104  12
  -1 -10  -9 883.832 196.251  12
   1 -10   9 1006.26 207.444  10
  -1 -10  -8 5862.25 456.163  12
   1 -10   8 5560.45 424.151  10
   1 -10   7 5924.05 451.143  12
  -1 -10  -7 5192.32 599.852   1
  -1 -10  -7 5282.28 420.540  12
  -1 -10  -6 6909.46 674.546   1
  -1 -10  -6 6685.97 463.732  12
   1 -10   6 6129.92 455.177  12
  -1 -10  -5 4700.49 381.190  12
   1 -10   5 4832.68 394.568  12
  -1 -10  -5 5236.12 407.723   8
  -1 -10  -5 5062.68 583.939   1
  -1 -10  -4 35946.3 1535.64   1
  -1 -10  -3 6582.51 654.663   1
  -1 -10  -2 23379.1 1202.97   1
  -1 -10  -1 15674.5 981.469   1
  -1 -10   0 24376.7 1208.22   1
  -1 -10   1 16258.0 983.469   1
   1 -10  -1 16144.7 989.923   1
   1 -10  -2 23531.8 1194.93   1
   1 -10  -3 6694.48 622.894   1
   1 -10  -4 33043.1 1401.43   1
   1 -10  -5 4497.33 518.474   1
   1 -10  -5 4613.75 393.050  12
   1 -10  -6 7249.52 648.017   1
   1 -10  -6 7553.84 512.047  12
   1 -10  -7 5664.73 467.528  12
   1 -10  -7 5287.42 558.275   1
   1 -10  -8 5798.88 471.188  12
   1 -10  -9 594.588 188.792  12
   1 -10 -10 7193.11 527.190  12
   1 -10 -11 2150.51 307.045  12
   1 -10 -12 1739.11 281.393  12
   1 -10 -13 5570.69 427.668  12
   1 -10 -14 6198.46 418.219  12
   1 -10 -15 107.135 117.598  12
   1 -10 -16 2338.67 209.285  12
   1 -10 -17 395.760 83.1843  12
  -1 -11 -16 278.323 70.3558  12
  -1 -11 -15 1702.52 173.993  12
  -1 -11 -14 4151.24 302.335  12
  -1 -11 -13 744.897 175.153  12
  -1 -11 -12 2320.36 278.555  12
  -1 -11 -11 7050.26 476.381  12
   1 -11  10 5244.30 386.808  10
  -1 -11 -10 5675.33 445.056  12
   1 -11   9 16006.0 702.514  10
  -1 -11  -9 15577.4 719.542  12
  -1 -11  -8 6472.77 472.176  12
   1 -11   8 6598.65 486.204  10
   1 -11   7 510.106 168.863  12
  -1 -11  -7 655.941 205.197  12
  -1 -11  -6 1082.86 229.004  12
   1 -11   6 1172.09 240.931  12
   1 -11   5 11500.1 614.806  12
  -1 -11  -5 11668.4 633.856   8
  -1 -11  -5 11122.1 587.150  12
   1 -11   4 1431.86 243.927  12
  -1 -11  -4 1070.38 220.107  12
  -1 -11  -4 1334.33 251.179   8
  -1 -11  -4 1037.63 298.051   1
   1 -11   3 12403.7 629.787  12
  -1 -11  -3 12629.2 634.725   8
  -1 -11  -3 12044.5 909.621   1
  -1 -11  -3 11367.4 576.383  12
  -1 -11  -2 11048.3 575.407   6
  -1 -11  -2 10715.4 578.451   8
  -1 -11  -2 10270.5 841.718   1
  -1 -11  -2 9986.81 532.889  12
   1 -11   2 10331.3 573.665  12
  -1 -11  -1 13159.2 639.796   6
   1 -11   1 12186.6 623.425  12
  -1 -11  -1 12836.3 936.220   1
  -1 -11  -1 12736.5 615.813   8
  -1 -11   0 8468.72 497.727   8
   1 -11   0 7720.82 501.069  12
  -1 -11   0 8349.32 528.852   6
  -1 -11   0 9530.88 804.769   1
  -1 -11   1 12754.8 657.009   6
  -1 -11   1 11575.6 887.951   1
  -1 -11   1 12140.0 582.327   8
   1 -11  -1 12180.3 571.117   8
   1 -11  -1 12103.3 616.019  12
   1 -11  -2 9648.50 802.935   1
   1 -11  -2 10311.7 546.661   8
   1 -11  -2 10064.3 578.105  12
  -1 -11   2 10472.5 603.193   6
   1 -11  -3 11659.3 883.963   1
   1 -11  -3 12695.7 654.430  12
   1 -11  -4 1083.11 228.894  12
   1 -11  -4 1051.97 239.867   1
   1 -11  -5 14077.2 952.461   1
   1 -11  -5 12388.3 662.270  12
   1 -11  -6 1033.27 260.819  12
   1 -11  -7 747.603 221.148  12
   1 -11  -8 6579.45 499.314  12
   1 -11  -9 16780.2 778.524  12
   1 -11 -10 6207.79 485.446  12
   1 -11 -11 8403.97 539.579  12
   1 -11 -12 2761.65 311.589  12
   1 -11 -13 1134.76 221.052  12
   1 -11 -14 4082.98 312.531  12
   1 -11 -15 1634.20 190.677  12
   1 -11 -16 240.159 69.3080  12
  -1 -12 -14 737.231 120.810  12
  -1 -12 -13 380.731 115.808  12
  -1 -12 -12 2886.16 273.913  12
  -1 -12 -11 453.939 173.506  12
   1 -12  10 3828.42 321.963  10
  -1 -12 -10 3736.44 349.195  12
  -1 -12  -9 1432.42 253.161  12
   1 -12   9 1332.96 219.682  10
  -1 -12  -8 14487.0 679.266  12
   1 -12   8 13161.7 660.918  10
   1 -12   7 4584.93 416.680  10
  -1 -12  -7 4026.60 378.933  12
  -1 -12  -6 3200.62 332.869  12
   1 -12   6 2917.62 327.190  12
   1 -12   5 1175.13 255.029  12
  -1 -12  -5 965.579 211.121  12
  -1 -12  -4 15427.4 692.758  12
  -1 -12  -4 15133.9 728.756   8
   1 -12   4 15680.8 727.529  12
  -1 -12  -3 10212.5 595.973   8
   1 -12   3 9126.54 561.885  12
  -1 -12  -3 9553.46 548.203  12
  -1 -12  -2 2562.30 317.344   8
  -1 -12  -2 2795.27 309.816  12
   1 -12   2 2548.61 330.967  12
  -1 -12  -1 5541.80 402.300  12
  -1 -12  -1 6033.74 454.071   8
   1 -12   1 5708.34 455.711  12
   1 -12   0 3334.27 312.988   8
  -1 -12   0 3192.01 338.460   8
  -1 -12   0 3781.51 340.988  12
   1 -12   0 3488.30 368.087  12
  -1 -12   1 5577.20 428.127   8
   1 -12  -1 5442.00 451.796  12
   1 -12  -1 5794.38 416.513   8
  -1 -12   2 1560.67 231.513   8
   1 -12  -2 2715.37 339.402  12
  -1 -12   3 9538.80 527.061   8
   1 -12  -3 8767.65 554.692  12
   1 -12  -4 14809.5 726.421  12
   1 -12  -5 948.232 223.353  12
   1 -12  -6 2768.26 340.745  12
   1 -12  -7 4117.08 400.873  12
   1 -12  -8 12348.4 664.855  12
   1 -12  -9 1460.26 269.244  12
  -1 -12   9 1537.77 241.576  10
   1 -12 -10 3538.04 358.670  12
  -1 -12  10 3727.37 311.192  10
   1 -12 -11 223.178 161.220  12
   1 -12 -12 2670.79 282.955  12
   1 -12 -13 575.648 146.243  12
   1 -12 -14 758.983 143.324  12
   1 -12 -15 2323.77 166.509  12
  -1 -13 -13 980.685 124.199  12
  -1 -13 -12 2987.58 231.396  12
  -1 -13 -11 6469.55 366.859  12
   1 -13  10 4153.64 300.124  10
  -1 -13 -10 3901.45 318.145  12
   1 -13   9 1229.63 207.056  10
  -1 -13  -9 1023.79 197.699  12
   1 -13   8 5022.94 404.891  10
  -1 -13  -8 4833.67 383.526  12
  -1 -13  -7 11356.9 576.509  12
   1 -13   7 11951.0 638.824  10
   1 -13   6-37.9372 132.374  12
   1 -13   6 113.604 162.502  10
  -1 -13  -6 308.327 171.955  12
  -1 -13  -5 13985.8 649.993  12
   1 -13   5 14347.3 741.496  10
   1 -13   5 14266.8 668.788  12
  -1 -13  -4 5708.72 421.276  12
   1 -13   4 5852.31 449.958  12
  -1 -13  -3 1472.86 240.397  12
   1 -13   3 1757.24 277.583  12
  -1 -13  -3 2073.48 304.901   8
  -1 -13  -2 5333.43 410.394  12
   1 -13   2 5290.96 442.745  12
  -1 -13  -2 6142.80 460.919   8
   1 -13   1 12524.4 660.814  12
  -1 -13  -1 13270.4 621.827  12
  -1 -13  -1 13251.8 660.915   8
  -1 -13   0 4392.65 392.863   8
  -1 -13   0 3888.31 352.094  12
   1 -13   0 4359.70 405.706  12
  -1 -13   1 13348.3 643.786   8
   1 -13  -1 11944.1 649.028  12
  -1 -13   2 5968.16 427.675   8
   1 -13  -2 5749.42 460.539  12
   1 -13  -3 1143.39 219.647  10
   1 -13  -3 1621.80 276.158  12
  -1 -13   3 1672.94 236.501   8
   1 -13  -4 5286.07 444.146  12
   1 -13  -5 13937.3 701.647  12
   1 -13  -6 101.300 163.258  12
   1 -13  -7 11768.4 633.379  12
   1 -13  -8 5353.01 429.808  12
  -1 -13   8 5156.41 405.379  10
   1 -13  -9 1131.21 233.714  12
  -1 -13   9 1173.84 206.852  10
  -1 -13  10 4076.56 291.952  10
   1 -13 -10 4038.31 347.824  12
   1 -13 -11 7047.43 411.569  12
   1 -13 -12 3051.47 256.837  12
   1 -13 -13 819.223 132.442  12
   1 -13 -14 184.295 65.5209  12
  -1 -14 -11 1012.22 126.446  12
  -1 -14 -10 827.269 144.598  12
  -1 -14  -9 4046.04 283.706  12
   1 -14   9 3790.23 289.913  10
  -1 -14  -8 449.485 131.832  12
   1 -14   8 597.983 174.002  10
   1 -14   7 5859.80 424.544  10
  -1 -14  -7 4947.03 354.188  12
  -1 -14  -6 3215.22 302.282  12
   1 -14   6 3395.83 355.470  10
  -1 -14  -5 2846.96 282.178  12
   1 -14   5 2889.84 343.530  10
   1 -14   5 2931.76 305.771  12
   1 -14   4 1399.11 244.910  12
  -1 -14  -4 1049.11 192.705  12
   1 -14   4 1629.96 288.167  10
  -1 -14  -3 6172.06 416.194  12
   1 -14   3 6368.83 446.785  12
   1 -14   3 6518.55 502.460  10
   1 -14   2 8224.93 514.683  12
  -1 -14  -2 7980.40 465.839  12
   1 -14   2 8233.25 552.375  10
  -1 -14  -1 2863.83 316.661   8
   1 -14   1 2407.59 312.507  10
   1 -14   1 2894.77 331.227  12
  -1 -14  -1 2329.17 271.112  12
   1 -14   0 697.794 213.799  10
   1 -14   0 786.189 195.805  12
  -1 -14   0 933.236 200.032   8
   1 -14  -1 2755.35 324.382  10
   1 -14  -1 2551.27 302.047  12
  -1 -14   1 3212.84 318.872   8
   1 -14  -2 8103.20 521.123  12
   1 -14  -2 7945.45 493.085  10
  -1 -14   2 8197.20 470.578   8
   1 -14  -3 6730.82 478.068  12
  -1 -14   3 6247.82 392.933   8
   1 -14  -3 5830.32 405.237  10
   1 -14  -4 1262.07 248.367  12
   1 -14  -5 3161.25 334.680  12
   1 -14  -6 3565.04 338.706  12
   1 -14  -7 5267.59 396.107  12
  -1 -14   7 5574.67 416.667  10
   1 -14  -8 659.585 184.084  12
  -1 -14   8 598.364 159.933  10
   1 -14  -9 4134.20 326.184  12
  -1 -14   9 3650.17 278.225  10
  -1 -14  10 941.971 131.752  10
   1 -14 -10 1052.46 177.050  12
   1 -14 -11 870.751 140.036  12
   1 -14 -12 749.851 112.664  12
  -1 -15  -9 212.754 71.0077  12
   1 -15   8 974.896 166.200  10
  -1 -15  -8 789.369 125.674  12
  -1 -15  -7 1752.33 180.459  12
   1 -15   7 2062.63 237.366  10
   1 -15   6 7337.20 446.691  10
  -1 -15  -6 7054.29 361.638  12
   1 -15   5 3477.53 337.485  10
  -1 -15  -5 2917.67 251.179  12
  -1 -15  -4 2723.57 243.242  12
   1 -15   4 3325.15 291.524  12
   1 -15   4 3320.60 332.489  10
  -1 -15  -3 1083.64 179.034  12
   1 -15   3 1173.59 228.794  10
   1 -15   3 1157.89 206.663  12
  -1 -15  -3 908.525 173.338  10
   1 -15   2 1523.22 227.640  12
  -1 -15  -2 1358.24 211.471  10
   1 -15   2 891.004 222.377  10
   1 -15   1 4512.38 359.105  12
   1 -15   1 4050.08 364.205  10
   1 -15   0 3169.25 311.050  12
   1 -15   0 2513.24 288.999  10
   1 -15  -1 3803.48 339.464  10
   1 -15  -1 4146.68 352.615  12
   1 -15  -2 1754.03 251.749  12
   1 -15  -2 1408.05 209.395  10
   1 -15  -3 1204.65 179.025  10
   1 -15  -3 1368.35 233.087  12
   1 -15  -4 3010.48 306.211  12
  -1 -15   4 3234.49 333.579  10
   1 -15  -5 3544.83 311.557  12
  -1 -15   5 3460.19 335.627  10
  -1 -15   6 7289.00 446.335  10
   1 -15  -6 7879.63 432.943  12
  -1 -15   7 1708.76 226.841  10
   1 -15  -7 2162.96 236.641  12
  -1 -15   8 894.251 154.006  10
   1 -15  -8 915.363 158.433  12
   1 -15  -9 269.458 108.423  12
  -1 -15   9 103.531 72.3538  10
   1 -15 -10 1678.73 154.656  12
   1 -16   7 3171.21 225.732  10
   1 -16   6 335.094 118.335  10
   1 -16   5 1272.19 190.651  10
   1 -16   4 1054.22 185.756  10
   1 -16   3 3051.62 283.575  10
   1 -16   2 289.111 119.540  12
  -1 -16  -2 73.9677 86.7839  10
   1 -16   2 192.037 126.663  10
   1 -16   1 1938.92 234.508  10
   1 -16   1 1948.87 211.431  12
  -1 -16  -1 1924.09 221.749  10
   1 -16   0 213.455 122.441  10
  -1 -16   0 251.499 124.019  10
   1 -16   0 212.877 125.221  12
  -1 -16   1 2067.99 243.009  10
   1 -16  -1 1665.73 201.273  12
   1 -16  -1 2049.73 208.853  10
  -1 -16   2 60.7210 122.691  10
   1 -16  -2 171.490 108.763  10
   1 -16  -2 96.2639 110.613  12
   1 -16  -3 2518.25 231.014  12
  -1 -16   3 2988.60 287.311  10
  -1 -16   4 881.810 174.658  10
   1 -16  -4 932.690 156.239  12
  -1 -16   5 1059.53 185.215  10
   1 -16  -5 889.191 149.426  12
   1 -16  -6 209.788 96.9866  12
  -1 -16   6 159.498 103.051  10
   1 -16  -7 2670.91 189.950  12
  -1 -16   7 2807.13 208.254  10
  -1 -16   8 1168.26 119.160  10
   1 -17   4 893.954 131.063  10
   1 -17   3 155.421 97.1289  10
   1 -17   2 219.674 97.6883  10
   1 -17   1 966.233 136.953  10
  -1 -17  -1 750.754 104.173  10
   1 -17   0 3960.56 228.105  10
  -1 -17   0 4173.73 236.846  10
  -1 -17   1 1265.37 153.087  10
  -1 -17   2-38.9629 88.8578  10
  -1 -17   3 261.939 93.9500  10
  -1 -17   4 596.596 109.722  10
  -1 -17   5 1572.44 147.509  10
   2   0   0 5880.83 219.385   3
   2   0   1 7506.30 294.989   3
   2   0   1 7413.24 249.967   2
   2   0   2 25601.6 622.101   3
   2   0  -2 25924.2 248.306   4
   2   0   3 17529.8 565.701   3
   2   0   4 3441.38 289.764   3
   2   0   5 238227. 2391.29   3
   2   0   6 67109.7 1363.07   3
   2   0   6 71646.2 1012.85   5
   2   0   7 23131.8 841.362   3
  -2   0   8 1699.06 246.606   5
   2   0  -8 1991.30 256.367   2
   2   0  -9 17198.2 701.822   2
  -2   0   9 16622.0 719.059   5
  -2   0  10 76795.9 1616.76   5
  -2   0  11 19129.5 840.056   5
  -2   0  12 751.360 227.131   5
   2   0  13 5553.93 452.886   9
  -2   0  13 5665.29 466.778   9
   2   0  13 5406.03 450.031  13
  -2   0  13 4947.79 462.613   5
   2   0  14 15062.5 760.767   9
   2   0  14 16150.9 773.733  13
  -2   0  14 14533.4 767.206   5
  -2   0  14 14721.3 762.828   9
  -2   0  15-55.5129 145.388   9
   2   0  15-26.9975 152.635   9
  -2   0  16 45.6116 168.583   9
   2   0  16 148.322 139.040   9
   2   0  17 954.702 217.359   9
  -2   0  17 1028.03 230.418   9
  -2   0  18 17539.8 722.482   9
   2   0  18 16108.7 691.029   9
   2   0  19 2480.30 254.089   9
  -2   0  19 2217.36 248.844   9
   2   0  20 2710.63 205.189   9
  -2   1  19 16381.1 604.487   9
   2  -1  19 15579.2 573.648   9
   2  -1  18 6050.74 423.527   9
  -2   1  18 5719.77 418.956   9
   2  -1  17 376.358 165.036   9
  -2   1  17 317.916 171.430   9
  -2   1  16 6457.46 509.755   9
   2  -1  16 6632.11 505.201   9
  -2   1  15 8.97779 165.055   9
   2  -1  15 151.807 156.804   9
  -2   1  14 26406.9 1049.66   5
   2  -1  14 27553.3 1015.58   9
  -2   1  14 27045.1 1019.80   9
  -2   1  13 56056.1 1526.90   5
  -2   1  13 53326.7 1373.31   9
   2  -1  13 57362.2 1406.19   9
   2  -1  13 57832.2 1395.06  13
  -2   1  12 3008.17 399.998   5
  -2   1  11 14339.9 759.395   5
  -2   1  10 25718.8 966.221   5
  -2   1   9 54307.7 1342.90   5
  -2   1   6 39284.3 645.989   3
   2  -1   0 78163.1 896.761   2
   2  -1  -1 114311. 1188.75   2
   2  -1  -1 116883. 896.122   4
   2  -1  -2 136682. 1401.10   2
  -2  -1   2 137991. 700.795   1
   2  -1  -3 24735.7 643.980   2
   2  -1  -3 25292.2 320.132   1
   2   1   3 24083.0 248.885   2
   2  -1  -4 11452.6 247.278   1
   2  -1  -4 11445.3 466.131   2
   2   1   4 11204.0 554.371   3
   2   1   4 11769.4 327.771   5
   2   1   5 16365.9 699.962   3
   2   1   5 16869.7 443.637   5
   2  -1  -5 17078.8 592.842   2
   2   1   6 42829.3 1176.53   3
   2  -1  -6 41543.9 953.780   2
   2   1   6 43725.9 794.928   5
  -2  -1   7 33947.9 852.848   5
   2  -1  -7 35754.8 914.849   2
   2   1   7 35823.0 791.603   5
   2   1   7 34849.8 1109.96   3
   2   1   8 4114.40 413.058   3
   2  -1  -8 4115.72 331.684   2
  -2  -1   8 3495.68 308.499   5
   2   1   8 3631.21 288.237   5
   2   1   9 60199.5 1556.82   3
  -2  -1   9 63676.5 1297.69   5
   2   1   9 62980.7 1224.31   5
  -2  -1  10 23829.5 847.209   5
  -2  -1  11 14422.5 685.945   5
  -2  -1  12 2237.00 317.213   5
  -2  -1  13 52620.4 1393.29   5
  -2  -1  13 53741.6 1396.04   9
   2   1  13 56323.2 1405.35  13
   2   1  14 29330.4 1065.82   9
  -2  -1  14 29108.6 1068.46   9
   2   1  14 27190.9 1007.80  13
   2   1  15-286.713 156.116   9
  -2  -1  15-5.07010 141.274   9
   2   1  16 5972.71 498.762   9
  -2  -1  16 6411.83 513.908   9
   2   1  17 553.384 204.346   9
  -2  -1  17 189.685 164.052   9
   2   1  18 5550.10 416.621   9
  -2  -1  18 5778.63 429.960   9
   2   1  19 16155.6 606.129   9
   2   1  20 1034.34 139.472   9
  -2   2  19 239.477 125.277   9
   2  -2  19 173.194 98.9279   9
   2  -2  18 2491.36 273.903   9
  -2   2  18 2436.44 278.730   9
   2  -2  17 1842.27 274.546   9
  -2   2  17 1881.56 279.651   9
   2  -2  16 12458.0 669.559   9
  -2   2  16 13023.7 700.849   9
  -2   2  15 6854.07 527.622   9
  -2   2  15 7128.16 552.918   5
   2  -2  15 7317.64 524.987   9
   2  -2  14 1829.57 277.011   9
  -2   2  14 2264.04 314.011   9
  -2   2  14 1573.47 299.804   5
  -2   2  13 79947.8 1659.30   9
  -2   2  13 74933.8 1806.77   5
   2  -2  13 78802.5 1615.91   9
  -2   2  12 67037.1 1705.54   5
  -2   2  11 20724.7 933.302   5
   2  -2  10-101.900 84.5238   4
  -2   2  10 609.356 243.138   5
   2  -2   9 719.108 179.761   4
   2  -2   2 63323.4 971.923   4
   2  -2   1 760932. 3124.19   4
   2  -2   0 27149.4 565.270   4
   2  -2  -1 744556. 2789.97   4
   2  -2  -1 738041. 2649.62   1
  -2  -2   2 59477.6 699.806   1
   2  -2  -2 61790.6 734.835   1
   2  -2  -3 48238.3 654.993   1
  -2  -2   3 47373.6 594.612   1
   2  -2  -3 49521.4 882.267   2
   2   2   4 12575.1 349.164   5
   2  -2  -4 12368.3 464.263   2
   2  -2  -4 12934.2 362.008   1
  -2  -2   4 11865.2 342.828   5
  -2  -2   5 6074.84 281.349   5
   2  -2  -5 6623.75 282.717   1
   2  -2  -5 6765.28 356.534   2
   2   2   5 6554.45 291.922   5
   2  -2  -6 10282.7 450.541   2
  -2  -2   6 10482.1 405.754   5
   2   2   6 10104.6 398.783   5
   2  -2  -7 46301.4 985.684   2
  -2  -2   7 44453.5 890.988   5
   2   2   7 45860.9 915.586   5
   2   2   8 1693.86 321.006   3
  -2  -2   8 2113.61 231.272   5
   2   2   8 2147.07 233.949   5
  -2  -2   9 948.169 186.961   5
   2   2   9 1051.59 185.068   5
   2   2   9 1454.70 272.184   3
   2   2  10 146.573 126.107   5
   2   2  10 30.3404 128.722   3
  -2  -2  10 78.8494 126.317   5
   2   2  11 19396.0 967.743   3
  -2  -2  11 18105.9 741.199   5
   2   2  12 65715.3 1456.52  13
  -2  -2  12 66727.4 1478.29   9
   2   2  13 73923.7 1624.66  13
  -2  -2  13 73804.2 1638.95   9
  -2  -2  14 1551.25 278.300   9
   2   2  14 1084.56 251.108  13
  -2  -2  15 6841.07 537.600   9
   2   2  15 7440.90 559.396   9
   2   2  15 7336.66 548.033  13
   2   2  16 11671.7 675.684   9
  -2  -2  16 12464.9 699.378   9
  -2  -2  17 1739.74 271.767   9
   2   2  17 1660.43 269.264   9
   2   2  18 2231.29 281.546   9
  -2  -2  18 2087.74 274.284   9
   2   2  19 154.726 115.457   9
   2   2  20 1721.98 168.862   9
  -2   3  19 620.643 132.982   9
  -2   3  18 300.419 138.831   9
   2  -3  18 351.119 126.361   9
  -2   3  17 9170.52 541.450   9
   2  -3  17 9498.16 535.426   9
  -2   3  16 5960.31 471.250   9
   2  -3  16 6010.61 454.577   9
   2  -3  15 10962.1 621.496   9
  -2   3  15 11581.8 660.953   9
  -2   3  15 10864.6 687.071   5
  -2   3  14 7708.18 549.850   9
  -2   3  14 8228.33 619.528   5
   2  -3  14 7129.32 512.874   9
  -2   3  13 19438.0 963.773   5
   2  -3  13 18763.2 790.978   9
  -2   3  13 19902.0 838.534   9
  -2   3  12 25744.4 1099.98   5
   2  -3  12 24270.7 845.825   9
  -2   3  12 24242.9 874.196   9
  -2   3  11 2871.44 423.872   5
   2  -3  10 1111.31 231.818   4
   2  -3   9 13418.3 690.632   4
   2  -3   8 104975. 1850.50   4
   2  -3   7 17747.8 731.577   4
   2  -3   6 49205.3 1153.85   4
   2  -3   5 56429.1 1171.80   4
   2  -3   4 86827.6 1377.53   4
   2  -3   3 64784.1 1132.99   4
   2  -3   2 104290. 1374.94   4
   2  -3   1 351187. 2419.75   4
   2  -3   0 14146.0 476.781   4
   2  -3  -1 334440. 2151.21   1
  -2  -3   1 335906. 2288.21   1
  -2  -3   2 102958. 1150.04   1
   2  -3  -2 104668. 1193.23   1
  -2  -3   3 65156.1 884.016   1
   2  -3  -3 64601.9 947.972   1
   2  -3  -4 87138.3 1126.37   1
   2   3   4 89018.2 965.851   5
  -2  -3   5 55742.9 744.059   5
   2   3   5 55781.3 871.851   5
   2  -3  -5 55416.9 940.935   1
   2   3   6 49464.2 901.012   5
   2  -3  -6 49285.5 929.534   1
  -2  -3   6 47676.8 785.222   5
   2   3   7 16866.9 579.963   5
  -2  -3   7 17167.5 521.439   5
   2  -3  -7 17778.7 593.082   1
  -2  -3   8 104601. 1389.28   5
   2   3   8 104291. 1522.89   5
   2   3   9 15688.2 646.191   5
   2   3   9 15283.9 905.438   3
  -2  -3   9 15658.2 588.893   5
   2   3  10 750.218 216.774   3
   2   3  10 1191.57 219.406   5
   2   3  11 2322.26 294.526   5
   2   3  11 2169.90 349.457   3
  -2  -3  12 28317.3 977.657   9
   2   3  12 28139.3 968.082  13
  -2  -3  13 16736.6 800.042   9
   2   3  13 17588.2 808.887  13
   2   3  14 7576.28 550.468  13
  -2  -3  14 7845.88 563.324   9
   2   3  15 9990.69 638.756   9
  -2  -3  15 10973.5 662.792   9
   2   3  15 10500.8 645.831  13
  -2  -3  16 6157.59 493.842   9
   2   3  16 5865.49 493.063   9
   2   3  17 9163.44 566.857   9
  -2  -3  17 10435.5 596.337   9
   2   3  18 199.186 154.255   9
   2   3  19 780.426 154.415   9
   2   3  20 3667.27 220.713   9
  -2   4  19 2146.73 188.175   9
  -2   4  18 576.734 145.994   9
  -2   4  17 6667.09 446.416   9
   2  -4  17 6333.19 409.791   9
   2  -4  16 14674.2 666.099   9
  -2   4  16 14278.2 686.319   9
  -2   4  15 2215.96 354.103   5
   2  -4  15 2408.57 294.527   9
  -2   4  15 2768.45 331.890   9
  -2   4  14 2022.40 288.740   9
  -2   4  14 1859.11 308.470   5
   2  -4  14 2377.09 300.013   9
   2  -4  13 2028.80 282.609   9
  -2   4  13 2329.90 384.475   5
  -2   4  13 2359.76 315.463   9
  -2   4  12 5421.12 554.805   5
  -2   4  12 4928.04 399.491   9
   2  -4  12 5158.84 400.379   9
  -2   4  11 24373.0 1088.97   5
   2  -4  10 5240.47 451.949   4
   2  -4   9 22027.8 912.477   4
   2  -4   8 99198.6 1859.68   4
   2  -4   7 38741.7 1125.06   4
   2  -4   6 160758. 2192.05   4
   2  -4   5 38841.1 1035.89   4
   2  -4   4 44842.3 1074.04   4
   2  -4   3 6773.29 410.709   4
   2  -4   2 24669.8 739.703   4
   2  -4   1 30615.9 798.497   4
   2  -4   0 31206.0 803.963   4
   2  -4   0 31505.3 789.346   1
  -2  -4   1 28490.1 764.116   1
   2  -4  -1 28813.3 736.658   1
   2  -4  -2 25723.2 694.065   1
  -2  -4   2 25028.3 677.626   1
  -2  -4   3 5439.79 311.957   1
   2  -4  -3 6290.79 352.664   1
   2  -4  -4 46826.1 955.366   1
   2   4   4 44383.2 716.313   5
   2  -4  -5 39204.4 909.879   1
   2   4   5 39854.4 761.280   5
   2   4   6 154862. 1652.79   5
   2  -4  -6 159835. 1874.66   1
   2   4   7 39384.2 897.457   5
   2  -4  -7 39687.6 961.015   1
   2   4   8 100516. 1525.15   5
   2   4   9 21727.7 1171.05   3
   2   4   9 22007.1 763.444   5
   2   4  10 6729.52 678.082   3
   2   4  10 7451.05 482.101   5
   2   4  11 27475.0 1292.58   3
   2   4  11 24887.8 892.370   5
  -2  -4  12 4834.66 422.713   9
   2   4  12 4608.07 418.323  13
   2   4  13 2272.53 332.541  13
  -2  -4  13 2407.98 320.402   9
  -2  -4  14 2065.81 317.988   9
   2   4  14 1769.69 293.065  13
   2   4  15 2441.85 341.864   9
   2   4  15 2232.29 315.161  13
  -2  -4  15 2819.46 352.607   9
   2   4  16 14649.8 743.118   9
  -2  -4  16 13908.9 709.541   9
   2   4  17 6108.97 453.880   9
   2   4  18 489.334 145.442   9
   2   4  19 2994.61 249.056   9
   2  -4 -19 2320.37 191.406  12
   2   4  20 1280.73 122.440   9
  -2   5  18 5795.52 325.422   9
  -2   5  17 3521.97 305.045   9
   2  -5  16 11326.3 547.443   9
  -2   5  16 11640.1 587.283   9
   2  -5  15 3266.75 323.052   9
  -2   5  15 3472.56 350.883   9
  -2   5  15 2957.29 362.815   5
  -2   5  14 13990.2 686.566   9
   2  -5  14 15055.6 668.956   9
  -2   5  14 15096.8 827.881   5
  -2   5  13 2656.21 395.831   5
  -2   5  13 2424.50 309.998   9
  -2   5  12 25466.0 1139.01   5
  -2   5  12 22840.5 827.317   9
  -2   5  11 22605.2 1064.79   5
   2  -5   9 9369.59 618.744   4
   2  -5   8 15332.2 769.769   4
   2  -5   7 42165.9 1229.32   4
   2  -5   6 28048.7 979.490   4
   2  -5   5 65003.7 1436.38   4
   2  -5   4 9607.06 539.388   4
   2  -5   3 38373.0 1039.69   4
   2  -5   2 151573. 2026.60   4
   2  -5   1 7157.55 440.931   4
   2  -5   0 69388.7 1318.18   1
  -2  -5   0 71121.1 1408.87   1
   2  -5  -1 8341.06 453.969   1
  -2  -5   1 7860.48 451.337   1
  -2  -5   2 154132. 1919.32   1
   2  -5  -2 145943. 1874.74   1
  -2  -5   3 39402.3 940.338   1
   2  -5  -3 39929.7 991.505   1
   2   5   4 8686.97 336.040   5
   2  -5  -4 9042.99 485.741   1
   2   5   5 64612.6 997.109   5
   2  -5  -5 63874.0 1293.68   1
   2   5   6 29343.6 734.476   5
   2  -5  -6 29080.8 890.380   1
   2  -5  -7 43614.6 1109.33   1
   2   5   7 43590.3 961.405   5
   2   5   8 14194.7 591.909   5
   2   5   9 9753.37 517.938   5
   2   5  10 27318.9 895.135   5
   2   5  10 26411.9 1382.29   3
   2   5  11 24709.7 885.306   5
   2   5  11 24293.9 876.911  13
  -2  -5  11 24628.6 880.165   9
   2   5  11 23591.2 1259.81   3
   2   5  12 24215.0 912.361   5
  -2  -5  12 25487.7 942.211   9
   2   5  12 24566.6 927.225  13
   2   5  13 2715.17 334.178  13
  -2  -5  13 2895.76 362.197   9
  -2  -5  14 16223.8 786.551   9
   2   5  14 15847.1 774.178  13
   2   5  15 3635.56 385.333  13
   2   5  16 12254.9 656.152   9
   2   5  17 3539.66 337.721   9
   2   5  18 5960.93 379.056   9
   2  -5 -19 921.366 123.548  12
   2   5  19 440.951 111.063   9
  -2  -6 -19 2359.88 175.427  12
  -2   6  18 1649.61 150.357   9
  -2   6  17 2967.59 249.037   9
  -2   6  16 5967.30 390.779   9
  -2   6  15 15490.0 664.774   9
  -2   6  14 13638.3 637.853   9
  -2   6  14 14270.4 787.965   5
  -2   6  13 4353.24 467.180   5
  -2   6  13 3907.68 366.501   9
  -2   6  12 556.379 259.710   5
  -2   6  11 33903.0 1310.89   5
   2  -6   9 6966.29 554.214   4
   2  -6   8 221.002 119.856   4
   2  -6   7 47057.2 1378.52   4
   2  -6   6 39839.0 1245.86   4
   2  -6   5 22816.5 916.375   4
   2  -6   4 9522.17 586.538   4
   2  -6   3 23945.0 913.845   4
   2  -6   2 94126.7 1767.88   4
  -2  -6  -2 91137.8 1897.81   1
  -2  -6  -1 34437.0 1118.25   1
   2  -6   0 11184.4 595.726   1
  -2  -6   0 10762.3 600.482   1
  -2  -6   1 35906.4 1048.07   1
   2  -6  -1 36142.5 1052.55   1
   2  -6  -2 85774.2 1604.18   1
  -2  -6   2 89415.7 1632.32   1
   2  -6  -3 26696.3 906.635   1
  -2  -6   3 26531.4 874.178   1
   2  -6  -4 10367.4 575.073   1
   2  -6  -5 24678.9 901.481   1
   2  -6  -6 40237.1 1151.60   1
   2   6   6 38551.3 860.784   5
   2  -6  -7 46916.0 1256.60   1
   2   6   7 46793.8 1017.56   5
   2   6   8 909.522 187.228   5
   2   6   9 6920.70 441.982   5
   2   6  10 21806.1 799.988   5
   2   6  11 35446.2 1041.51   5
   2   6  11 34673.0 1609.34   3
   2   6  11 34575.4 1057.95  13
   2   6  12 538.061 193.769  13
   2   6  13 4516.31 419.058  13
   2   6  14 14405.2 719.256  13
   2   6  15 16917.9 757.840  13
   2   6  16 4662.96 395.511   9
   2  -6 -17 3321.63 302.760  12
   2   6  17 3511.32 314.471   9
   2  -6 -18 2101.47 205.771  12
   2   6  18 2282.90 223.379   9
   2  -6 -19 2147.19 151.282  12
   2   6  19 1996.92 156.780   9
  -2  -7 -18 4981.28 278.647  12
  -2   7  14 1916.92 302.791   5
  -2   7  13 978.781 268.993   5
  -2   7  12 2412.82 397.169   5
  -2   7  11 6207.92 592.547   5
  -2  -7 -11 4317.09 558.559   1
   2  -7   9-36.3927 96.1512   4
   2  -7   8 23509.8 1064.18   4
   2  -7   7 54764.0 1607.12   4
   2  -7   6 28466.8 1138.97   4
   2  -7   5 71246.7 1760.87   4
  -2  -7  -4 61993.5 1784.33   1
   2  -7   4 59533.1 1571.99   4
  -2  -7  -3 28812.7 1184.36   1
  -2  -7  -2 54486.7 1546.22   1
  -2  -7  -1 11321.9 691.048   1
  -2  -7   0 136.100 149.646   1
   2  -7   0-127.235 129.896   1
  -2  -7   1 11832.3 678.501   1
   2  -7  -1 12102.1 669.351   1
   2  -7  -2 53486.2 1402.81   1
  -2  -7   2 53992.1 1384.29   1
   2  -7  -3 30393.8 1058.14   1
  -2  -7   3 30308.9 1032.05   1
   2  -7  -4 64019.4 1556.05   1
   2  -7  -5 70337.1 1644.95   1
   2  -7  -6 27700.2 1044.73   1
   2  -7  -7 54370.8 1471.61   1
   2   7  10 9157.80 526.691  13
   2   7  11 4146.84 630.758   3
   2   7  11 5648.77 454.957  13
   2   7  12 3640.00 373.431  13
   2   7  13 790.943 207.973  13
   2   7  14 2178.50 291.858  13
   2   7  15 512.418 171.228   9
   2  -7 -16 818.245 193.593  12
   2   7  16 894.476 192.055   9
   2   7  17 1817.94 217.169   9
   2  -7 -17 2189.82 229.127  12
   2  -7 -18 5319.79 280.484  12
   2   7  18 5221.85 277.519   9
  -2  -8 -18 57.5570 63.6267  12
  -2  -8 -17 2519.31 226.008  12
  -2  -8 -16 4334.62 330.051  12
  -2   8  13 2433.44 339.803   5
  -2   8  12 3666.56 432.098   5
  -2   8  11 1871.01 356.097   5
  -2  -8 -10 4448.88 545.503   1
  -2  -8  -9 18915.6 1145.12   1
  -2  -8  -8 25167.8 1321.88   1
  -2  -8  -7 10471.0 845.721   1
  -2  -8  -6 28748.8 1352.69   1
  -2  -8  -5 65896.7 1984.42   1
  -2  -8  -4 50014.1 1683.47   1
  -2  -8  -3 60254.3 1788.62   1
  -2  -8  -2 6815.74 605.979   1
  -2  -8  -1 2597.65 380.798   1
  -2  -8   0 1329.65 297.099   1
   2  -8  -1 2614.50 352.776   1
  -2  -8   1 2599.18 364.158   1
  -2  -8   2 7032.58 556.566   1
   2  -8  -2 6678.15 549.960   1
  -2  -8   3 60743.0 1614.49   1
   2  -8  -3 58858.9 1609.09   1
   2  -8  -4 47045.2 1440.87   1
   2  -8  -5 67200.8 1729.00   1
   2  -8  -6 29229.1 1145.68   1
   2  -8  -7 10930.8 703.891   1
   2  -8  -8 27241.5 923.938  12
   2   8  10 3916.54 358.224  13
   2   8  11 1387.50 223.609  13
   2   8  12 3291.32 325.226  13
   2   8  13 2387.30 288.299  13
   2  -8 -13 2792.29 342.847  12
   2   8  14 2368.96 280.727  13
   2  -8 -14 2780.90 335.277  12
   2   8  15 668.458 171.843   9
   2  -8 -15 828.185 209.763  12
   2  -8 -16 4392.21 335.264  12
   2   8  16 4213.23 314.828   9
   2   8  17 1976.58 186.643   9
   2  -8 -17 2053.76 208.052  12
   2  -8 -18-4.77845 63.0373  12
  -2  -9 -17 4365.64 238.623  12
  -2  -9 -16 4590.95 300.609  12
  -2  -9 -15 11020.4 511.968  12
  -2  -9 -14 3910.26 352.871  12
  -2  -9 -13 5052.93 410.327  12
  -2   9  12 353.976 183.757   5
  -2   9  11 794.998 260.931   5
  -2  -9  -9 6247.47 653.260   1
   2  -9   9 5219.21 394.264  10
  -2  -9  -8 19129.8 1146.44   1
  -2  -9  -8 19357.8 762.497  12
   2  -9   8 18998.8 749.264  10
   2  -9   7 1835.65 252.305  10
  -2  -9  -7 1737.72 249.080  12
  -2  -9  -7 1987.62 425.798   1
   2  -9   7 2368.83 308.510  12
  -2  -9  -6 584.475 246.238   1
  -2  -9  -5 5554.57 613.245   1
  -2  -9  -4 30443.3 1370.01   1
  -2  -9  -3 22664.7 1157.67   1
  -2  -9  -2 7702.85 672.952   1
  -2  -9  -1 26950.1 1222.27   1
  -2  -9   0 36421.5 1392.60   1
  -2  -9   1 25548.2 1143.11   1
   2  -9  -1 26001.5 1173.30   1
  -2  -9   2 6589.04 583.061   1
   2  -9  -2 6538.07 590.287   1
  -2  -9   3 24023.4 1106.44   1
   2  -9  -3 24544.4 1130.89   1
   2  -9  -4 32567.5 1301.35   1
   2  -9  -5 5657.61 544.419   1
   2  -9  -6 667.374 228.465   1
   2  -9  -7 1517.34 274.433   1
  -2  -9   7 1708.81 251.342   6
   2  -9  -8 20878.5 852.019  12
   2  -9  -9 6221.51 503.320  12
   2  -9 -10 9487.08 598.843  12
   2  -9 -11 836.083 222.154  12
   2  -9 -12 479.613 212.427  12
   2  -9 -13 6580.24 487.657  12
   2   9  13 4655.91 351.616  13
   2  -9 -14 3106.15 333.771  12
   2   9  15 9520.56 453.451   9
   2  -9 -15 11283.6 537.858  12
   2   9  16 3995.02 254.852   9
   2  -9 -16 5097.46 326.419  12
   2  -9 -17 4236.46 246.231  12
  -2 -10 -16 5155.02 262.960  12
  -2 -10 -15 7291.70 372.451  12
  -2 -10 -14 5568.49 373.166  12
  -2 -10 -13 8086.84 476.035  12
  -2 -10 -12 6831.45 462.957  12
  -2 -10 -11 3813.96 362.239  12
  -2 -10 -10 13043.3 650.810  12
  -2 -10  -9 1291.84 240.392  12
   2 -10   9 1223.14 211.060  10
  -2 -10  -8 5289.94 413.676  12
   2 -10   8 6404.54 470.493  10
  -2 -10  -7 896.808 303.105   1
   2 -10   7 756.431 212.059  10
  -2 -10  -7 581.446 169.187  12
   2 -10   7 773.707 237.706  12
  -2 -10  -6 2699.90 286.895  12
  -2 -10  -6 3089.41 467.346   1
   2 -10   6 3133.33 348.267  12
  -2 -10  -6 2508.89 315.518   8
  -2 -10  -5 3847.40 318.240  12
  -2 -10  -5 4154.69 382.841   8
  -2 -10  -5 3910.95 525.638   1
   2 -10   5 4044.00 381.751  12
  -2 -10  -4 14472.6 661.034   8
  -2 -10  -4 12279.6 918.835   1
   2 -10   4 13981.7 664.991  12
  -2 -10  -3 14287.5 987.635   1
  -2 -10  -2 4393.92 552.531   1
  -2 -10  -1 16748.1 1022.39   1
  -2 -10   0 37298.6 1485.78   1
  -2 -10   1 15082.9 941.892   1
  -2 -10   2 5216.17 574.747   1
   2 -10  -3 15128.4 948.758   1
  -2 -10   4 15815.8 719.174   6
   2 -10  -4 14560.2 677.465  12
   2 -10  -4 14300.6 917.109   1
  -2 -10   5 3636.38 361.616   6
   2 -10  -5 4034.54 382.403  12
   2 -10  -5 3044.52 411.926   1
   2 -10  -6 3052.02 352.195  12
   2 -10  -6 2670.81 388.680   1
  -2 -10   6 2503.87 310.795   6
   2 -10  -7 1008.10 248.202  12
   2 -10  -8 4952.25 442.693  12
   2 -10  -9 1997.29 302.206  12
   2 -10 -10 13134.0 705.151  12
   2 -10 -11 4924.51 436.968  12
   2 -10 -12 7064.93 499.912  12
   2 -10 -13 7926.59 506.107  12
   2  10  14 4731.07 307.902   9
   2 -10 -14 5598.86 393.361  12
   2 -10 -15 7968.96 414.437  12
   2 -10 -16 5458.87 294.684  12
  -2 -11 -15 1804.34 164.299  12
  -2 -11 -14 999.354 165.197  12
  -2 -11 -13 992.994 180.396  12
  -2 -11 -12 1248.56 214.742  12
  -2 -11 -11 3377.56 331.677  12
   2 -11  10 2769.49 282.518  10
  -2 -11 -10 3102.13 324.910  12
  -2 -11  -9 25494.7 880.141  12
   2 -11   9 25416.2 880.840  10
   2 -11   8 1915.20 280.941  10
  -2 -11  -8 3533.88 360.997  12
   2 -11   7 15323.4 739.196  10
  -2 -11  -7 14556.1 662.850  12
   2 -11   7 16005.4 757.613  12
   2 -11   6 5040.89 444.630  12
   2 -11   6 4385.33 420.678  10
  -2 -11  -6 4799.17 379.853  12
  -2 -11  -5 8032.65 474.739  12
  -2 -11  -5 9425.93 814.038   1
   2 -11   5 7872.58 534.579  12
   2 -11   5 7839.54 543.407  10
  -2 -11  -5 8077.34 538.742   8
   2 -11   4 6187.55 476.599  12
  -2 -11  -4 6193.17 426.599  12
  -2 -11  -4 6908.17 499.210   8
  -2 -11  -3 37770.0 1102.06   8
  -2 -11  -3 35912.6 1592.47   1
  -2 -11  -3 36910.6 1029.87   6
   2 -11   3 37645.8 1121.42  12
  -2 -11  -2 12053.4 916.330   1
  -2 -11  -2 11753.4 613.536   6
   2 -11   2 12389.2 650.283  12
  -2 -11  -2 12328.5 631.818   8
  -2 -11  -1 11272.5 599.039   8
  -2 -11  -1 10651.1 862.249   1
   2 -11   1 10872.0 611.574  12
  -2 -11  -1 11233.4 607.878   6
  -2 -11   0 1873.93 257.283   8
   2 -11   0 1570.55 269.608  12
  -2 -11   0 1492.05 337.327   1
  -2 -11   0 1801.72 268.262   6
   2 -11  -1 10461.3 591.959  12
  -2 -11   1 11505.3 879.422   1
  -2 -11   1 11899.0 649.725   6
  -2 -11   2 12039.0 658.749   6
   2 -11  -2 11930.9 640.958  12
   2 -11  -3 36156.1 1108.63  12
   2 -11  -3 35443.7 975.027  10
   2 -11  -4 5127.20 439.061  12
  -2 -11   4 6713.55 515.426   6
   2 -11  -5 8160.60 553.896  12
  -2 -11   5 9023.03 574.446   6
   2 -11  -5 7459.90 662.136   1
   2 -11  -6 4097.97 395.000  12
   2 -11  -7 15997.4 766.926  12
   2 -11  -8 2307.77 324.345  12
   2 -11  -9 26539.4 984.137  12
   2 -11 -10 2761.24 347.227  12
   2 -11 -11 2979.40 337.199  12
   2 -11 -12 863.261 222.478  12
   2 -11 -13 899.171 186.742  12
   2 -11 -14 682.066 150.081  12
   2 -11 -15 1590.82 176.099  12
   2 -11 -16 516.482 88.1651  12
  -2 -12 -14 448.790 89.4996  12
  -2 -12 -13 1140.24 155.929  12
  -2 -12 -12 524.691 137.484  12
  -2 -12 -11 3463.32 302.125  12
   2 -12  10 8688.99 462.014  10
  -2 -12 -10 8842.38 485.562  12
   2 -12   9 1580.01 242.389  10
  -2 -12  -9 1713.92 239.281  12
   2 -12   8-271.132 150.727  10
  -2 -12  -8 411.792 166.367  12
  -2 -12  -7 11031.8 570.574  12
   2 -12   7 10686.3 624.979  10
   2 -12   7 10867.4 621.197  12
   2 -12   6 19005.4 840.790  10
  -2 -12  -6 18104.3 724.598  12
   2 -12   6 18416.7 801.831  12
   2 -12   5 7748.53 558.219  10
   2 -12   5 7938.82 539.026  12
  -2 -12  -5 7902.33 546.252   8
  -2 -12  -5 8057.15 486.002  12
  -2 -12  -4 7261.72 453.606  12
  -2 -12  -4 7770.95 539.712   8
   2 -12   4 6147.72 484.798  12
   2 -12   4 5943.80 497.010  10
   2 -12   3 1423.16 263.855  12
  -2 -12  -3 1483.25 273.165   8
   2 -12   3 1410.79 281.000  10
  -2 -12  -2 12361.3 639.557   6
   2 -12   2 12177.8 673.329  12
  -2 -12  -2 13224.6 672.605   8
   2 -12   1 4905.97 439.174  12
  -2 -12  -1 5180.41 442.282   6
  -2 -12  -1 5426.81 431.794   8
   2 -12   0 87.4424 194.045  12
  -2 -12   0 411.493 188.964   8
  -2 -12   1 5444.87 433.084   8
  -2 -12   1 4759.40 443.687   6
   2 -12  -1 5166.79 437.342  10
   2 -12  -1 4920.17 436.827  12
  -2 -12   2 11777.1 613.442   8
   2 -12  -2 12343.2 677.562  12
   2 -12  -2 12200.2 620.823  10
  -2 -12   2 12395.3 688.517   6
   2 -12  -3 1101.67 232.530  12
   2 -12  -3 1373.02 243.513  10
   2 -12  -4 5730.67 470.858  12
   2 -12  -5 7440.56 535.459  12
   2 -12  -6 19521.2 851.401  12
   2 -12  -7 12216.1 680.282  12
   2 -12  -8 83.6937 160.833  12
   2 -12  -9 1601.43 257.355  12
   2 -12 -10 9609.02 562.600  12
  -2 -12  10 9674.15 469.345  10
   2 -12 -11 3605.56 349.199  12
   2 -12 -12 93.4861 122.171  12
   2 -12 -13 882.638 167.520  12
   2 -12 -14 306.188 113.175  12
   2 -12 -15 575.062 94.6786  12
  -2 -13 -12 453.967 100.621  12
  -2 -13 -11 3660.07 260.522  12
   2 -13  10 1160.81 178.858  10
  -2 -13 -10 1269.30 181.618  12
   2 -13   9 3034.24 293.702  10
  -2 -13  -9 3716.83 303.396  12
   2 -13   8 548.629 186.526  10
  -2 -13  -8 302.292 130.542  12
   2 -13   7 1381.66 249.607  10
  -2 -13  -7 1498.23 219.667  12
   2 -13   6 7018.88 517.014  10
  -2 -13  -6 7402.52 445.898  12
   2 -13   6 7720.87 517.714  12
   2 -13   5 1416.92 259.773  12
  -2 -13  -5 1157.01 196.293  12
   2 -13   5 1393.98 275.757  10
   2 -13   4 357.974 181.337  12
  -2 -13  -4 378.219 191.020   8
   2 -13   4 489.132 187.972  10
   2 -13   3 14477.5 724.994  12
   2 -13   3 15105.7 768.538  10
  -2 -13  -3 15398.1 739.812   8
  -2 -13  -2 5827.40 460.579   8
   2 -13   2 6199.60 490.725  12
   2 -13   2 6686.29 514.723  10
   2 -13   1 12076.1 674.624  10
   2 -13   1 11433.1 651.911  12
  -2 -13  -1 12576.6 656.580   8
   2 -13   0 2083.08 300.324  10
  -2 -13   0 2164.86 293.292   8
   2 -13   0 1486.01 265.981  12
   2 -13  -1 11585.8 655.742  12
   2 -13  -1 13067.3 665.361  10
  -2 -13   1 11648.6 614.899   8
   2 -13  -2 6285.56 458.806  10
  -2 -13   2 6335.89 456.362   8
   2 -13  -2 6019.60 489.878  12
   2 -13  -3 14748.8 737.402  12
  -2 -13   3 15408.1 674.890   8
   2 -13  -3 14660.7 646.109  10
   2 -13  -4 287.492 176.526  12
  -2 -13   4 297.433 123.616   8
  -2 -13   5 1552.40 220.198   8
   2 -13  -5 1180.52 250.325  12
   2 -13  -6 6510.36 499.392  12
   2 -13  -7 1615.41 280.957  12
   2 -13  -8 641.677 206.166  12
   2 -13  -9 3360.47 343.193  12
  -2 -13   9 3768.22 324.692  10
  -2 -13  10 1090.88 163.075  10
   2 -13 -10 1068.46 219.200  12
   2 -13 -11 3972.93 318.827  12
   2 -13 -12 314.626 125.445  12
   2 -13 -13 4968.87 270.405  12
  -2 -14 -10 169.043 69.7695  12
   2 -14   9 3616.40 281.579  10
  -2 -14  -9 2842.92 218.261  12
   2 -14   8 2000.77 252.397  10
  -2 -14  -8 1777.43 189.517  12
  -2 -14  -7 174.301 111.694  12
   2 -14   7 252.627 152.338  10
   2 -14   6 449.822 179.869  10
   2 -14   5 800.326 213.326  12
   2 -14   5 440.688 178.306  10
   2 -14   4 5663.48 433.147  12
   2 -14   4 6787.54 505.364  10
   2 -14   3 3128.82 367.509  10
   2 -14   3 2698.88 318.648  12
  -2 -14  -2 403.030 152.544   8
   2 -14   2 556.995 209.322  10
   2 -14   2 445.506 192.548  12
   2 -14   1 1874.55 283.755  12
   2 -14   1 1711.01 280.586  10
  -2 -14  -1 2194.51 286.972   8
  -2 -14   0 10414.6 575.252   8
   2 -14   0 10682.4 599.441  10
   2 -14   0 10138.6 600.358  12
   2 -14  -1 1720.69 266.114  10
   2 -14  -1 1851.20 287.535  12
  -2 -14   1 1698.66 250.677   8
   2 -14  -2 570.837 172.543  12
   2 -14  -2 788.596 197.645  10
  -2 -14   2 362.172 157.768   8
   2 -14  -3 2763.09 277.200  10
  -2 -14   3 2865.60 283.832   8
   2 -14  -3 3269.43 356.946  12
  -2 -14   4 6155.21 387.592   8
   2 -14  -4 5683.53 445.251  12
   2 -14  -5 364.989 180.097  12
   2 -14  -6 472.264 173.651  12
   2 -14  -7 28.3179 138.042  12
   2 -14  -8 2081.90 261.280  12
  -2 -14   8 1586.37 219.195  10
   2 -14  -9 3816.80 312.670  12
  -2 -14   9 3811.08 276.925  10
   2 -14 -10 401.516 139.375  12
   2 -14 -11 1847.54 187.627  12
   2 -14 -12 5496.79 255.617  12
   2 -15   8 6277.34 338.936  10
   2 -15   7 2560.30 256.606  10
   2 -15   6-34.2919 134.859  10
   2 -15   5 6261.30 432.464  10
   2 -15   4 3936.29 359.866  10
   2 -15   4 3687.45 323.028  12
  -2 -15  -3 191.462 100.721  10
   2 -15   3 210.635 162.639  10
   2 -15   2 556.409 182.713  10
   2 -15   2 793.670 200.434  12
   2 -15   1 1326.82 243.153  10
   2 -15   1 1024.44 212.183  12
   2 -15   0 40.4425 141.250  12
  -2 -15   0 99.6735 119.795   8
   2 -15   0-4.18848 126.230  10
   2 -15  -1 1222.61 208.529  10
  -2 -15   1 1203.12 195.983   8
   2 -15  -1 1181.94 229.600  12
   2 -15  -2 910.311 210.102  12
   2 -15  -2 863.115 161.194  10
  -2 -15   2 819.180 171.171   8
   2 -15  -3 459.940 181.945  12
  -2 -15   3 318.595 117.371   8
   2 -15  -3 585.167 139.900  10
   2 -15  -4 3682.59 334.168  12
   2 -15  -5 6203.63 413.455  12
  -2 -15   6 121.506 134.130  10
   2 -15  -6 246.246 138.478  12
   2 -15  -7 2579.96 250.423  12
  -2 -15   7 2363.05 244.891  10
   2 -15  -8 6900.10 367.271  12
  -2 -15   8 6341.67 331.150  10
   2 -15  -9 759.920 137.799  12
  -2 -15   9 511.281 98.6595  10
   2 -15 -10 277.035 92.2706  12
   2 -16   6 3019.15 238.304  10
   2 -16   5 3471.26 275.025  10
   2 -16   4 2284.52 241.749  10
   2 -16   3 726.506 147.619  12
   2 -16   3 742.612 174.453  10
   2 -16   2 479.812 145.300  10
  -2 -16  -2 362.676 107.830  10
   2 -16   2 432.515 143.792  12
   2 -16   1 4486.01 314.803  12
  -2 -16  -1 4062.31 293.693  10
   2 -16   1 4449.67 325.343  10
   2 -16   0 1118.48 183.777  10
  -2 -16   0 1145.50 186.210  10
   2 -16   0 1031.79 173.189  12
   2 -16  -1 3751.62 270.721  10
  -2 -16   1 4288.08 325.115  10
   2 -16  -1 4099.95 307.632  12
   2 -16  -2 433.291 143.934  12
  -2 -16   2 400.935 150.556  10
   2 -16  -2 462.091 110.995  10
  -2 -16   3 614.406 159.180  10
   2 -16  -3 504.728 141.855  12
  -2 -16   4 2128.61 244.003  10
   2 -16  -4 1927.58 208.617  12
   2 -16  -5 2940.01 243.860  12
  -2 -16   5 3342.32 271.536  10
  -2 -16   6 3003.00 235.433  10
   2 -16  -6 2563.25 212.701  12
  -2 -16   7 2292.52 184.938  10
   2 -16  -7 2028.48 178.813  12
   2 -16  -8 1257.25 122.977  12
  -2 -17  -1 89.4521 65.0307  10
  -2 -17   0 1021.94 133.625  10
   2 -17   0 879.161 120.463  12
  -2 -17   1 185.530 79.9951  10
   2 -17  -1 283.811 90.9950  12
   2 -17  -2 5270.46 237.870  12
  -2 -17   2 5984.43 292.862  10
   2 -17  -3 717.122 101.543  12
  -2 -17   3 501.061 110.306  10
  -2 -17   4 148.064 86.0827  10
  -2 -17   5 111.941 67.2774  10
   3   0   0-11.7007 76.5712   3
   3   0   0 99.1373 100.565   2
   3   0   1 109.953 87.6094   2
   3   0   1 61.8049 85.4533   3
   3   0  -2 2937.36 131.264   4
   3   0   2 3009.34 185.291   2
   3   0   2 3011.19 255.674   3
   3   0   3 22881.3 718.757   3
   3   0   4 10031.4 516.812   3
   3   0   5 198283. 2410.58   3
   3   0   6 46001.6 1238.31   3
   3   0   7 37731.0 1170.34   3
   3   0  -8 6937.13 510.997   2
   3   0  -9 122.972 137.661   2
  -3   0   9 13.9604 143.440   5
  -3   0  10 29215.1 1019.50   5
  -3   0  11 6226.95 496.058   5
  -3   0  12 2187.23 295.721   9
   3   0  12 2292.08 293.907  13
  -3   0  12 2121.66 330.575   5
  -3   0  13 4693.76 462.527   5
   3   0  13 5897.79 472.097  13
  -3   0  13 5211.87 454.895   9
   3   0  14 35721.9 1147.09  13
  -3   0  14 33189.8 1148.08   5
   3   0  14 34961.9 1149.40   9
  -3   0  14 33207.4 1128.99   9
   3   0  15 1871.15 298.917   9
  -3   0  15 1672.15 284.140   9
  -3   0  16 451.991 183.987   9
   3   0  16 435.672 180.742   9
   3   0  17 6304.64 466.542   9
  -3   0  17 5981.51 462.432   9
   3   0  18 15309.2 644.435   9
  -3   0  18 14246.9 637.855   9
   3   0  19 2278.83 228.340   9
   3   0  20-73.1732 66.8542   9
   3  -1  19 1096.88 167.781   9
   3  -1  18 11344.8 545.578   9
  -3   1  18 10937.6 550.316   9
   3  -1  17 5617.50 428.814   9
  -3   1  17 5338.84 428.706   9
   3  -1  16 2580.49 324.385   9
  -3   1  16 3108.59 369.951   9
  -3   1  15 12021.9 699.417   5
   3  -1  15 11811.1 669.230   9
  -3   1  15 11830.9 679.247   9
   3  -1  14 366.540 143.610   9
  -3   1  14 202.958 173.308   5
  -3   1  14 469.654 197.546   9
   3  -1  14 279.602 175.477  13
   3  -1  13 5926.01 451.476  13
  -3   1  13 5531.10 509.293   5
  -3   1  13 5663.50 459.555   9
   3  -1  13 5358.72 446.900   9
  -3   1  12 34912.8 1230.48   5
   3  -1  12 34903.0 1029.73  13
  -3   1  12 34792.8 1055.79   9
  -3   1  11 17195.4 857.245   5
   3   1 -10 38303.6 1266.42   2
  -3   1  10 38819.8 1242.90   5
   3   1  -2 73768.1 703.154   3
   3   1  -1 68667.1 887.465   3
   3   1   0 995751. 3963.30   3
   3  -1   0 999999. 3927.08   2
   3  -1  -1 65123.5 1075.40   2
   3   1   1 63822.6 1127.85   3
   3  -1  -1 65480.1 811.379   4
   3  -1  -2 77161.6 790.282   4
   3   1   2 74092.4 1325.74   3
   3  -1  -2 76912.3 1238.72   2
   3   1   3 33117.8 508.302   2
   3   1   3 31315.3 923.144   3
   3  -1  -3 32887.6 856.645   2
   3  -1  -4 44898.1 1054.16   2
   3   1   4 43479.2 1157.60   3
   3  -1  -5 73952.6 1398.94   2
   3   1   5 78395.1 1623.20   3
   3  -1  -6 57756.4 1276.94   2
   3   1   6 56475.2 1448.59   3
   3  -1  -7 6763.59 455.451   2
   3   1   7 6307.83 502.702   3
   3   1   8 9321.14 645.966   3
   3  -1  -8 8908.19 534.186   2
  -3  -1   8 8740.26 492.166   5
   3   1   9 5829.64 528.938   3
   3  -1  -9 5136.05 413.013   2
  -3  -1   9 6024.44 431.764   5
  -3  -1  10 40259.2 1128.08   5
  -3  -1  11 19768.3 823.778   5
  -3  -1  12 35064.3 1083.87   9
  -3  -1  12 33311.7 1091.57   5
   3   1  12 36277.9 1087.99  13
   3   1  13 6680.66 503.493  13
  -3  -1  13 7025.28 540.129   9
  -3  -1  13 6173.11 494.994   5
   3   1  14 601.255 204.894  13
  -3  -1  14 412.638 196.273   9
   3   1  15 11310.9 661.258  13
  -3  -1  15 11642.0 693.552   9
   3   1  15 12107.6 697.249   9
  -3  -1  16 3424.61 387.715   9
   3   1  16 3202.85 375.854   9
   3   1  17 5357.44 438.888   9
  -3  -1  17 5514.25 449.747   9
   3   1  18 11660.0 575.209   9
   3   1  19 925.232 166.176   9
   3   1  20 1119.17 130.868   9
   3  -2  19 1920.57 186.328   9
  -3   2  18 356.347 144.225   9
   3  -2  18 200.228 109.634   9
   3  -2  17 6810.51 460.578   9
  -3   2  17 6587.76 460.534   9
   3  -2  16 6066.81 461.277   9
  -3   2  16 6754.35 501.469   9
  -3   2  15 12605.7 690.416   9
   3  -2  15 11829.8 652.981   9
  -3   2  15 12407.0 729.776   5
  -3   2  14 2683.99 381.622   5
   3  -2  14 2434.67 320.937   9
  -3   2  14 2607.29 345.723   9
  -3   2  13 15997.3 873.485   5
   3  -2  13 17104.8 763.384   9
   3  -2  13 16215.2 729.799  13
  -3   2  13 16617.7 764.129   9
   3  -2  12 26379.4 879.039  13
  -3   2  12 25899.9 910.233   9
  -3   2  12 26540.0 1122.83   5
   3  -2  12 25712.0 876.898   9
   3  -2  11 16516.3 865.892   4
  -3   2  11 16455.0 879.340   5
   3  -2  10 6158.32 517.105   4
   3  -2   1 387448. 2539.91   4
   3  -2   0 68240.4 1006.69   4
   3  -2  -1 380301. 2242.95   4
   3  -2  -2 69479.5 920.510   4
   3  -2  -2 68373.1 1159.50   2
   3  -2  -3 31080.5 812.537   2
  -3  -2   3 30642.0 456.462   1
   3  -2  -4 76276.2 1327.13   2
   3   2   4 71529.5 569.436   2
   3  -2  -5 34611.3 928.437   2
   3  -2  -5 32596.7 471.205   1
  -3  -2   6 62539.4 1028.57   5
   3  -2  -6 67436.4 1327.03   2
   3   2   6 66439.0 1717.64   3
  -3  -2   7 16961.7 582.718   5
   3  -2  -7 17637.0 695.148   2
   3   2   7 17349.5 912.323   3
   3   2   8 111657. 2333.92   3
  -3  -2   8 114435. 1604.29   5
   3   2   9 14818.4 877.319   3
  -3  -2   9 15304.2 622.381   5
   3   2  10 6262.83 601.040   3
  -3  -2  10 6467.27 436.531   5
  -3  -2  11 15533.9 685.988   5
   3   2  11 18008.8 1001.01   3
   3   2  12 28237.8 976.655  13
  -3  -2  12 28121.8 984.777   9
  -3  -2  12 26191.9 924.150   5
   3   2  13 18461.6 831.068  13
  -3  -2  13 17740.1 825.051   9
  -3  -2  14 2224.65 321.372   9
   3   2  14 2353.96 345.540  13
   3   2  15 13562.5 736.120   9
   3   2  15 12453.1 702.219  13
  -3  -2  15 12619.0 712.624   9
   3   2  16 6371.51 500.665   9
  -3  -2  16 6398.40 501.873   9
   3   2  17 6855.28 493.809   9
  -3  -2  17 6919.42 496.220   9
   3   2  18 183.140 127.350   9
   3  -2 -19 1555.42 142.645  12
   3   2  19 1676.17 207.178   9
   3   2  20 5136.81 252.363   9
   3  -3  18 479.093 129.082   9
  -3   3  18 568.225 136.167   9
  -3   3  17 3005.13 316.298   9
   3  -3  17 3333.62 305.401   9
  -3   3  16 6743.77 480.921   9
   3  -3  16 7040.99 471.268   9
  -3   3  15 5305.32 444.351   9
   3  -3  15 5682.14 437.799   9
  -3   3  15 5400.84 499.221   5
  -3   3  14 12172.1 660.597   9
   3  -3  14 12954.3 656.791   9
  -3   3  14 12011.6 760.554   5
  -3   3  13 1070.74 249.266   9
   3  -3  13 1044.51 203.950   9
  -3   3  13 859.926 276.992   5
  -3   3  12 81655.9 1574.95   9
   3  -3  12 82115.9 1525.97   9
  -3   3  12 79097.0 1968.88   5
   3  -3  11 3626.63 418.391   4
   3  -3  10 21581.0 976.762   4
   3  -3   9 27254.4 1064.03   4
   3  -3   8 29300.8 1062.16   4
   3  -3   7 123397. 2079.89   4
   3  -3   6 7489.06 496.770   4
   3  -3   5 138642. 2006.00   4
   3  -3   4 32715.5 931.354   4
   3  -3   3 34180.3 900.687   4
   3  -3   2 82012.8 1333.32   4
   3  -3   1 37069.9 859.878   4
   3  -3   0 702256. 3593.01   4
   3  -3  -1 35384.1 773.634   4
  -3  -3   2 77669.4 1053.74   1
   3  -3  -2 79029.9 1152.11   4
   3  -3  -3 33974.6 675.752   1
  -3  -3   3 34190.9 637.327   1
   3  -3  -4 32400.7 642.842   1
   3   3   4 31395.4 522.309   5
   3  -3  -5 134427. 1286.64   1
   3   3   5 135269. 1234.62   5
  -3  -3   5 131262. 1169.32   5
   3   3   6 7122.62 324.210   5
  -3  -3   6 7391.61 318.551   5
   3  -3  -6 7942.35 313.519   1
   3   3   7 120475. 1436.07   5
  -3  -3   7 119687. 1378.66   5
  -3  -3   8 26561.6 712.874   5
   3   3   8 27926.5 1272.32   3
   3   3   8 28919.3 771.596   5
   3   3   9 25509.2 1225.79   3
  -3  -3   9 26011.0 755.405   5
   3   3  10 21839.0 1142.13   3
  -3  -3  10 20365.2 716.463   5
   3   3  11 3408.92 467.665   3
   3   3  12 80470.1 1675.22  13
   3   3  12 76042.2 2114.79   3
  -3  -3  12 79384.6 1662.83   9
   3   3  13 759.448 240.825  13
  -3  -3  13 931.477 209.644   9
  -3  -3  14 12082.7 702.529   9
   3   3  14 10902.4 658.357  13
   3   3  15 5109.80 453.355  13
  -3  -3  15 5074.20 458.154   9
  -3  -3  16 6764.77 515.672   9
   3   3  16 7404.13 539.679   9
   3   3  17 3144.38 341.860   9
   3   3  18 470.475 168.699   9
   3  -3 -19 196.382 78.4404  12
   3   3  19 485.491 136.159   9
   3   3  20 122.598 68.4257   9
  -3   4  18 4412.26 296.162   9
  -3   4  17 11803.7 546.862   9
   3  -4  17 12081.6 514.357   9
  -3   4  16 2614.66 295.735   9
   3  -4  16 3165.77 291.034   9
  -3   4  15 8294.67 527.494   9
   3  -4  15 8330.19 497.638   9
  -3   4  15 8934.62 625.829   5
   3  -4  14 15444.8 687.651   9
  -3   4  14 15370.9 860.162   5
  -3   4  14 14029.6 690.834   9
  -3   4  13 16664.5 740.507   9
   3  -4  13 17399.9 717.121   9
  -3   4  13 18094.0 965.833   5
  -3   4  12 3730.73 341.410   9
  -3   4  12 3038.01 452.942   5
   3  -4  10 21905.7 1008.40   4
   3  -4   9 10159.7 666.342   4
   3  -4   8 3768.03 395.696   4
   3  -4   7 45293.9 1306.67   4
   3  -4   6 80447.0 1684.99   4
   3  -4   5 47275.9 1238.45   4
   3  -4   4 19703.1 768.258   4
   3  -4   3 47410.5 1148.85   4
   3  -4   2 114758. 1713.13   4
   3  -4   1 95087.3 1505.43   4
   3  -4   0 131083. 1719.99   4
  -3  -4   1 94882.2 1461.32   1
   3  -4  -1 92268.8 1432.52   4
  -3  -4   2 112192. 1457.07   1
   3  -4  -2 106113. 1432.63   1
   3  -4  -3 47927.8 944.247   1
  -3  -4   3 46916.2 900.996   1
   3  -4  -4 20139.9 606.013   1
   3   4   4 20425.6 417.913   5
   3  -4  -5 45692.8 906.165   1
   3   4   5 47639.6 732.495   5
   3   4   6 85098.1 1100.46   5
   3  -4  -6 81246.8 1212.03   1
   3   4   7 47468.9 906.754   5
   3   4   8 4423.02 314.119   5
   3   4   8 4593.76 570.074   3
   3   4   9 10219.5 499.602   5
   3   4   9 9909.59 830.999   3
   3   4  10 20787.6 1186.64   3
   3   4  11 12880.2 655.040  13
   3   4  11 12104.2 895.024   3
  -3  -4  11 12541.1 644.272   9
  -3  -4  12 3982.19 395.490   9
   3   4  12 3658.93 524.747   3
   3   4  12 3644.83 393.163  13
   3   4  13 18026.4 832.115  13
  -3  -4  13 17578.7 824.685   9
  -3  -4  14 15481.3 780.740   9
   3   4  14 14813.3 769.763  13
   3   4  15 7794.42 559.166  13
   3   4  16 3609.20 379.047  13
   3   4  16 3171.62 364.528   9
   3   4  17 12916.4 639.146   9
   3   4  18 5285.96 370.586   9
   3  -4 -18 4986.94 303.275  12
   3   4  19 2328.39 213.255   9
   3  -4 -19 2027.02 151.272  12
  -3   5  18 1856.67 169.859   9
  -3   5  17 473.605 127.641   9
  -3   5  16 1515.81 215.508   9
  -3   5  15 19106.2 751.483   9
  -3   5  15 20750.6 931.625   5
  -3   5  14 1161.41 211.955   9
  -3   5  14 1412.10 315.479   5
  -3   5  13 10971.2 581.680   9
  -3   5  13 12319.4 809.788   5
  -3   5  12 2894.71 459.224   5
   3  -5  10 13172.0 803.662   4
   3  -5   9 13783.9 803.072   4
   3  -5   8 910.401 233.716   4
   3  -5   7 40925.3 1305.91   4
   3  -5   6 159956. 2494.65   4
   3  -5   5 15605.5 747.869   4
   3  -5   4 4024.75 387.078   4
   3  -5   3 65621.5 1444.80   4
   3  -5   2 66259.9 1414.05   4
   3  -5   1 49722.4 1203.58   4
   3  -5   0 26938.9 878.393   4
  -3  -5   1 48942.7 1151.79   1
   3  -5  -2 68654.4 1300.63   1
  -3  -5   2 66795.9 1265.79   1
  -3  -5   3 64466.3 1217.16   1
   3  -5  -3 64083.4 1240.02   1
   3  -5  -4 5919.81 381.293   1
  -3  -5   4 5446.19 347.336   1
   3  -5  -5 14869.2 597.977   1
   3   5   6 160866. 1510.06   5
   3  -5  -6 159011. 1922.00   1
   3   5   7 41685.4 848.487   5
   3   5   8 994.999 166.500   5
   3   5   9 12427.5 545.743   5
   3   5   9 12527.8 996.295   3
   3   5  10 14697.4 1061.72   3
  -3  -5  11 1792.83 263.097   9
   3   5  11 2101.90 284.295  13
   3   5  12 3776.01 498.432   3
  -3  -5  12 2944.61 332.496   9
   3   5  12 2592.62 336.417  13
   3   5  13 12863.0 705.705  13
   3   5  14 1176.68 252.734  13
   3   5  15 19577.4 845.669  13
   3   5  16 2044.70 295.286   9
   3   5  17 987.875 215.429   9
   3  -5 -18 2189.22 200.684  12
   3   5  18 2142.75 240.585   9
   3   5  19 3629.92 237.114   9
  -3  -6 -19 3331.28 179.306  12
  -3   6  14 2574.59 378.346   5
  -3   6  13 4269.05 472.074   5
  -3   6  12 25271.9 1172.35   5
   3  -6  10 2809.92 401.697   4
   3  -6   9 16818.1 918.490   4
   3  -6   8 7454.74 612.359   4
   3  -6   7 38591.6 1324.10   4
   3  -6   6 3898.02 427.468   4
   3  -6   5 78616.7 1791.41   4
   3  -6   4 36667.7 1198.96   4
   3  -6   3 83072.1 1752.95   4
   3  -6   2 8107.26 549.559   4
  -3  -6  -1 19992.8 887.625   1
   3  -6   1 20431.9 857.036   4
  -3  -6   0 133048. 2172.62   1
  -3  -6   1 21884.8 841.278   1
   3  -6  -2 8585.60 521.219   1
  -3  -6   2 9110.78 532.517   1
  -3  -6   3 88081.8 1579.61   1
   3  -6  -3 89307.5 1639.98   1
  -3  -6   4 38581.1 1034.87   1
   3  -6  -4 35957.6 1034.40   1
   3  -6  -5 77858.5 1525.57   1
   3  -6  -6 3539.14 333.603   1
   3   6  10 3735.90 358.020  13
   3   6  10 2554.12 488.546   3
   3   6  11 14638.2 714.488  13
   3   6  11 13143.2 1039.89   3
   3   6  12 30279.9 1045.16  13
   3   6  13 4546.10 433.546  13
   3   6  14 2566.91 340.413  13
   3   6  15 4635.98 413.692  13
   3  -6 -16 2783.71 287.835  12
   3   6  16 3205.78 334.314   9
   3  -6 -17 3269.64 273.965  12
   3   6  17 3622.20 318.256   9
   3  -6 -18 33.1589 83.1601  12
   3   6  18 3.74199 86.7546   9
   3   6  19 3175.42 185.312   9
  -3  -7 -18 155.036 84.6149  12
  -3   7  13 10616.5 727.114   5
  -3   7  12 444.254 302.449   5
   3  -7   9 40448.0 1479.01   4
   3  -7   8 8307.71 668.641   4
   3  -7   7 6893.45 606.317   4
   3  -7   6 1410.17 301.084   4
   3  -7   5 14136.9 825.269   4
   3  -7   4 53905.0 1577.57   4
   3  -7   3 72856.6 1792.90   4
   3  -7   2 4332.31 443.769   4
  -3  -7  -2 4336.61 478.954   1
  -3  -7  -1 16404.5 858.817   1
  -3  -7   0 178.972 165.354   1
  -3  -7   1 16136.2 785.482   1
   3  -7  -2 3761.43 388.948   1
  -3  -7   2 4245.28 403.765   1
  -3  -7   3 74899.7 1622.59   1
   3  -7  -3 77078.6 1685.36   1
  -3  -7   4 57416.5 1404.50   1
   3  -7  -4 58927.3 1467.67   1
   3  -7  -5 14356.5 722.573   1
   3  -7  -6 602.210 167.373   1
   3   7  10 8342.31 908.939   3
   3   7  10 9377.37 562.645  13
   3   7  11 3621.86 364.952  13
   3   7  12 411.513 153.401  13
   3   7  13 10903.4 617.064  13
   3  -7 -14 1623.81 273.619  12
   3   7  14 1457.01 243.829  13
   3  -7 -15 8462.37 502.812  12
   3   7  15 7392.40 481.209  13
   3  -7 -16 10621.5 507.152  12
   3   7  16 10562.0 534.756   9
   3  -7 -17 472.184 128.995  12
   3   7  17 155.224 105.870   9
   3   7  18 30.2797 63.5821   9
   3  -7 -18-51.5907 71.1891  12
  -3  -8 -17 7752.71 337.193  12
  -3  -8 -16 486.563 137.955  12
  -3   8  13 6109.27 515.212   5
  -3   8  12 933.112 268.317   5
  -3  -8  -9 7970.75 772.579   1
  -3  -8  -8 14713.8 1056.63   1
   3  -8   8 15236.2 937.822   4
   3  -8   8 13523.1 604.822  10
   3  -8   7 12848.9 851.693   4
  -3  -8  -7 11929.5 944.513   1
   3  -8   6 54034.5 1732.91   4
  -3  -8  -6 52926.8 1911.86   1
   3  -8   5 25741.8 1175.16   4
  -3  -8  -5 24578.4 1273.64   1
  -3  -8  -4 9613.55 777.869   1
  -3  -8  -3 35423.1 1431.08   1
  -3  -8  -2 21087.3 1068.89   1
  -3  -8  -1 10966.1 746.315   1
  -3  -8   0 14115.9 820.308   1
  -3  -8   1 9774.13 674.981   1
  -3  -8   2 20616.9 944.835   1
   3  -8  -3 33751.9 1223.39   1
  -3  -8   3 33529.9 1183.39   1
   3  -8  -4 8792.59 625.154   1
   3  -8  -5 24985.1 1040.27   1
   3  -8  -6 53655.4 1494.23   1
   3  -8  -8 14497.1 691.581  12
   3   8   9 7380.12 479.775  13
   3  -8  -9 7183.55 510.224  12
   3  -8 -10 7151.51 518.573  12
   3   8  10 6357.97 456.816  13
   3   8  11 1235.65 236.431  13
   3  -8 -11 685.142 218.917  12
   3  -8 -12 588.634 227.592  12
   3   8  12 716.116 196.972  13
   3  -8 -13 6766.70 500.412  12
   3   8  13 5766.29 437.324  13
   3  -8 -14 1366.33 250.904  12
   3   8  14 1237.01 210.577  13
   3  -8 -15 6334.62 421.540  12
   3  -8 -16 317.678 130.786  12
   3   8  16 372.529 129.664   9
   3  -8 -17 8026.54 349.575  12
   3   8  17 7595.00 345.344   9
  -3  -9 -17 1522.92 125.007  12
  -3  -9 -16 3020.66 225.666  12
  -3  -9 -15 3190.20 275.299  12
  -3  -9 -14 4502.01 345.117  12
  -3  -9 -13 1844.50 255.192  12
  -3   9  12 1854.13 305.277   5
  -3  -9 -12 1514.86 256.240  12
  -3   9  11 2668.70 408.783   5
  -3  -9  -9 40533.6 1096.52  12
   3  -9   9 41923.4 1093.96  10
   3  -9   8 824.716 193.230  10
  -3  -9  -8 1478.76 227.230  12
  -3  -9  -8 1307.21 359.789   1
   3  -9   7 7963.12 508.127  10
  -3  -9  -7 8934.99 533.367   8
   3  -9   7 8974.04 565.995  12
  -3  -9  -7 9741.93 849.243   1
  -3  -9  -6 667.519 177.281   8
   3  -9   6 1129.08 218.443  12
   3  -9   6 802.619 199.179  10
  -3  -9  -5 29276.9 1419.37   1
  -3  -9  -4 5091.28 594.694   1
  -3  -9  -3 28423.6 1331.47   1
  -3  -9  -2 25542.9 1226.95   1
  -3  -9  -1 538.511 226.029   1
  -3  -9   0 21356.2 1088.19   1
  -3  -9   1 607.105 233.862   1
  -3  -9   2 25151.4 1123.86   1
  -3  -9   3 26726.6 1145.51   1
   3  -9  -5 26214.2 1142.80   1
   3  -9  -6 950.639 234.007   1
   3  -9  -6 980.835 221.523  12
  -3  -9   6 487.879 159.491   6
  -3  -9   7 7554.33 483.299   6
   3  -9  -7 8153.45 530.344  12
  -3  -9   8 1247.85 204.926   6
   3  -9  -8 1083.21 263.588  12
   3  -9  -9 40792.5 1204.40  12
   3  -9 -10 283.242 162.166  12
   3   9  10 208.991 136.291  13
   3  -9 -11 3156.13 364.916  12
   3   9  11 2333.03 274.092  13
   3  -9 -12 1004.02 254.036  12
   3   9  12 985.563 197.710  13
   3  -9 -13 1625.86 263.096  12
   3   9  13 1394.47 217.344  13
   3  -9 -14 4449.92 369.798  12
   3   9  14 3491.39 294.867  13
   3  -9 -15 3089.42 286.875  12
   3   9  15 3112.49 274.821   9
   3  -9 -16 2844.29 188.130  14
   3   9  16 2870.87 219.236   9
   3  -9 -16 3179.36 245.113  12
   3  -9 -17 1706.25 148.224  12
  -3 -10 -16 1217.16 119.259  12
  -3 -10 -15 2357.10 201.554  12
  -3 -10 -14 2158.35 227.857  12
  -3 -10 -13 499.509 156.627  12
  -3 -10 -12 2149.05 251.527  12
  -3 -10 -11 5940.58 419.222  12
  -3 -10 -10 1386.27 229.946  12
   3 -10  10 370.767 155.244  10
  -3 -10  -9 7541.69 490.710  12
   3 -10   9 7617.26 488.775  10
  -3 -10  -8 29917.3 917.842  12
   3 -10   8 30716.6 997.395  10
  -3 -10  -7 2195.04 258.787  12
   3 -10   7 2695.03 314.743  10
   3 -10   7 2714.61 364.617  12
  -3 -10  -6 1880.50 425.119   1
   3 -10   6 1989.53 310.628  12
   3 -10   6 1277.98 241.750  10
  -3 -10  -6 2327.20 316.503   8
  -3 -10  -5 23210.2 1282.67   1
   3 -10   5 21640.0 859.558  10
   3 -10   5 22403.0 876.518  12
  -3 -10  -5 23431.6 866.459   8
  -3 -10  -4 28520.9 940.878   8
  -3 -10  -4 29463.9 1423.74   1
   3 -10   4 28247.0 968.734  12
   3 -10   4 29102.2 983.546  10
  -3 -10  -3 3488.80 353.436   8
  -3 -10  -3 3411.26 506.069   1
   3 -10   3 3565.65 360.144  10
   3 -10   3 3696.42 364.743  12
  -3 -10  -2 710.608 280.444   1
  -3 -10  -1 10792.6 840.214   1
  -3 -10   0 13850.9 923.610   1
  -3 -10   1 10679.4 799.137   1
  -3 -10   2 82.8975 172.114   1
  -3 -10   3 3307.85 355.818   6
   3 -10  -3 2924.87 337.647  12
  -3 -10   4 29102.4 995.717   6
   3 -10  -4 27476.5 951.728  12
   3 -10  -5 22102.6 871.768  12
  -3 -10   5 24037.4 904.972   6
   3 -10  -6 1900.69 295.677  12
  -3 -10   6 3109.39 349.617   6
   3 -10  -7 2441.63 337.821  12
  -3 -10   7 1950.56 295.247   6
   3 -10  -8 33630.9 1105.79  12
   3 -10  -9 8175.17 562.436  12
   3 -10 -10 389.358 208.047  12
   3 -10 -11 5521.50 452.223  12
   3 -10 -12 1670.21 261.743  12
   3 -10 -13 437.395 174.519  12
   3 -10 -14 2012.44 252.742  12
   3  10  14 1857.64 205.644   9
   3 -10 -15 2124.89 220.655  12
   3  10  15 1934.06 181.075   9
   3 -10 -16 1411.10 151.030  12
  -3 -11 -14 1016.33 137.172  12
  -3 -11 -13 2868.54 243.565  12
  -3 -11 -12 8178.96 424.902  12
  -3 -11 -11 3728.81 315.130  12
  -3 -11 -10 1123.32 198.286  12
   3 -11  10 679.517 174.809  10
   3 -11   9 3142.91 318.895  10
  -3 -11  -9 3585.45 322.527  12
  -3 -11  -8 9306.06 504.700  12
   3 -11   8 8522.77 541.193  10
   3 -11   7 1829.52 308.700  12
   3 -11   7 1160.17 254.968  10
   3 -11   6 10473.6 623.088  10
  -3 -11  -6 10875.5 623.809   8
   3 -11   6 10041.3 618.324  12
   3 -11   5 13345.3 711.060  12
   3 -11   5 13317.4 705.232  10
  -3 -11  -5 13408.1 690.274   8
  -3 -11  -4 5484.70 458.178   8
   3 -11   4 4810.18 442.165  10
  -3 -11  -4 6026.46 695.783   1
  -3 -11  -4 5767.24 425.049   6
   3 -11   4 4829.44 446.135  12
  -3 -11  -3 19441.2 1186.58   1
   3 -11   3 19407.9 843.864  10
  -3 -11  -3 18740.9 756.384   6
   3 -11   3 18891.7 834.938  12
  -3 -11  -3 20276.6 830.063   8
  -3 -11  -2 2378.48 430.706   1
   3 -11   2 1380.35 290.496  10
  -3 -11  -2 2208.02 296.799   6
  -3 -11  -2 2211.73 318.314   8
   3 -11   1 10137.5 605.348  12
  -3 -11  -1 10450.0 844.260   1
  -3 -11  -1 10667.4 609.021   6
   3 -11   1 9541.38 590.223  10
  -3 -11  -1 10694.2 601.894   8
   3 -11   0 9333.24 578.016  12
   3 -11   0 9398.79 562.427  10
  -3 -11   0 10064.2 605.235   6
  -3 -11   0 9237.14 787.996   1
   3 -11  -1 9220.61 584.575  12
  -3 -11   1 10690.5 837.217   1
   3 -11  -1 9629.27 559.559  10
  -3 -11   1 10208.7 621.871   6
  -3 -11   2 1841.96 304.597   6
   3 -11  -2 601.403 213.858  12
  -3 -11   2 1357.01 320.810   1
   3 -11  -2 642.375 173.210  10
   3 -11  -3 19717.1 737.332  10
  -3 -11   3 20089.8 865.093   6
   3 -11  -3 19619.6 839.799  12
   3 -11  -4 3890.56 397.790  12
  -3 -11   4 4469.09 431.334   6
   3 -11  -5 12347.0 684.468  12
  -3 -11   5 13747.7 711.772   6
   3 -11  -6 10418.7 638.486  12
  -3 -11   6 10850.5 633.294   6
   3 -11  -7 1827.78 303.686  12
   3 -11  -8 8950.68 592.855  12
   3 -11  -9 3192.86 374.846  12
   3 -11 -10 457.052 199.756  12
   3 -11 -11 4965.51 422.866  12
   3 -11 -12 8562.55 507.448  12
   3 -11 -13 2682.34 278.116  12
   3 -11 -14 547.705 133.114  12
   3 -11 -15 3831.57 239.969  12
  -3 -12 -13 101.049 70.3473  12
  -3 -12 -12 1960.88 193.547  12
  -3 -12 -11 3636.29 276.178  12
  -3 -12 -10 11940.4 512.430  12
  -3 -12  -9 2504.90 262.447  12
   3 -12   9 2766.60 298.606  10
  -3 -12  -8 1162.75 192.289  12
   3 -12   8 1682.15 273.511  10
   3 -12   7 4457.60 416.734  12
   3 -12   7 4737.06 426.156  10
   3 -12   6 571.233 201.472  10
   3 -12   6 963.134 254.456  12
   3 -12   5 19132.5 854.321  10
  -3 -12  -5 19012.0 822.942   8
   3 -12   5 19612.0 856.629  12
   3 -12   4 1877.74 300.672  12
   3 -12   4 1655.54 276.314  10
  -3 -12  -4 1735.70 257.956   8
  -3 -12  -4 1841.80 250.133   6
   3 -12   3 4066.29 422.478  12
   3 -12   3 4232.60 423.046  10
  -3 -12  -3 4945.17 442.483   8
  -3 -12  -3 4398.19 394.200   6
  -3 -12  -2 53285.8 1362.04   8
   3 -12   2 55575.7 1430.49  10
  -3 -12  -2 54963.3 1347.12   6
   3 -12   2 52981.6 1404.07  12
  -3 -12  -1 7034.73 512.166   6
   3 -12   1 5915.44 484.707  10
  -3 -12  -1 6046.46 477.519   8
   3 -12   1 5978.63 498.266  12
   3 -12   0 528.628 243.201  12
  -3 -12   0 938.652 221.236   8
   3 -12   0 519.161 186.677  10
  -3 -12   0 1016.82 256.111   6
   3 -12  -1 6318.29 480.519  10
   3 -12  -1 6255.14 501.027  12
  -3 -12   1 7569.92 557.063   6
  -3 -12   1 7047.03 506.800   8
   3 -12  -2 53083.5 1282.03  10
  -3 -12   2 54999.1 1442.08   6
   3 -12  -2 53160.4 1399.73  12
   3 -12  -3 4300.43 363.328  10
   3 -12  -3 4634.92 441.682  12
  -3 -12   3 5013.97 467.703   6
   3 -12  -4 1694.59 284.610  12
  -3 -12   4 1646.90 276.823   6
   3 -12  -5 21318.5 895.531  12
   3 -12  -6 663.364 203.537  12
   3 -12  -7 4310.98 411.296  12
   3 -12  -8 1502.97 270.370  12
   3 -12  -9 2763.70 335.360  12
   3 -12 -10 12517.5 628.124  12
   3 -12 -11 4262.86 356.203  12
   3 -12 -12 1999.45 246.470  12
   3 -12 -13 355.674 128.502  12
   3 -12 -14 7861.79 332.831  12
   3 -13   9 2192.99 252.289  10
   3 -13   8 142.224 149.026  10
   3 -13   7 2954.30 332.886  10
   3 -13   6 2581.98 327.516  12
   3 -13   6 2541.02 320.772  10
   3 -13   5 5290.12 455.315  10
   3 -13   5 4863.80 437.954  12
   3 -13   4 1873.82 299.766  10
  -3 -13  -4 1514.77 270.696   8
   3 -13   4 1665.30 283.846  12
  -3 -13  -3 355.527 193.464   8
   3 -13   3 142.021 189.208  12
   3 -13   3 188.911 167.566  10
  -3 -13  -2 3298.91 362.690   8
   3 -13   2 3619.25 392.087  12
   3 -13   2 4280.48 428.075  10
  -3 -13  -1 1370.99 255.543   8
   3 -13   1 1532.27 284.305  12
   3 -13   1 1496.69 270.305  10
  -3 -13   0 3935.74 382.647   8
   3 -13   0 4022.68 397.738  10
   3 -13   0 3816.29 402.887  12
   3 -13  -1 1136.10 258.711  12
   3 -13  -1 1582.36 260.133  10
  -3 -13   1 1419.18 261.790   8
  -3 -13   2 3067.69 333.694   8
   3 -13  -2 3281.53 377.179  12
   3 -13  -2 3449.33 342.771  10
  -3 -13   3 181.225 132.781   8
   3 -13  -3 65.3469 160.816  12
   3 -13  -3 414.185 160.533  10
  -3 -13   4 1792.87 258.546   8
   3 -13  -4 1275.63 258.811  12
   3 -13  -5 4072.41 404.953  12
  -3 -13   5 4046.23 353.913   8
   3 -13  -6 2999.49 351.203  12
  -3 -13   6 2505.16 268.327   8
   3 -13  -7 2349.86 313.019  12
   3 -13  -8 113.716 157.525  12
   3 -13  -9 2266.96 292.880  12
  -3 -13   9 2110.26 244.525  10
   3 -13 -10 3489.73 321.740  12
  -3 -13  10 3055.81 239.427  10
   3 -13 -11 1048.66 188.698  12
   3 -13 -12 3021.48 243.290  12
   3 -13 -13 1869.10 164.946  12
   3 -14   8 6152.41 389.602  10
   3 -14   7 620.907 197.538  10
   3 -14   6 3954.39 368.964  10
   3 -14   5 4433.78 400.271  10
   3 -14   5 4051.17 374.188  12
   3 -14   4 1900.11 293.451  10
   3 -14   4 2350.04 306.460  12
   3 -14   3 3884.93 381.218  10
  -3 -14  -3 3441.56 356.062   8
   3 -14   3 4342.76 405.070  12
   3 -14   2 98.6513 167.504  12
  -3 -14  -2 343.600 170.249   8
   3 -14   2 90.1377 158.289  10
   3 -14   1 4277.93 396.080  10
   3 -14   1 3909.87 396.142  12
  -3 -14  -1 4170.73 384.304   8
   3 -14   0 415.252 181.079  10
  -3 -14   0 330.713 155.771   8
   3 -14   0 292.829 175.460  12
   3 -14  -1 4363.69 415.344  12
  -3 -14   1 4003.90 363.763   8
   3 -14  -1 3940.57 365.652  10
  -3 -14   2-41.3525 111.533   8
   3 -14  -2-139.206 190.204  12
   3 -14  -3 3838.76 390.155  12
  -3 -14   3 3439.02 328.042   8
   3 -14  -3 4046.20 323.670  10
  -3 -14   4 1588.11 219.285   8
   3 -14  -4 2166.44 294.778  12
   3 -14  -5 4181.30 380.689  12
  -3 -14   5 4151.34 321.566   8
  -3 -14   6 3860.41 286.479   8
   3 -14  -6 4116.95 378.084  12
   3 -14  -7 291.884 158.641  12
  -3 -14   8 5905.11 374.543  10
   3 -14  -8 5767.75 397.241  12
   3 -14  -9 600.224 160.487  12
  -3 -14   9 589.049 122.690  10
   3 -14 -10 1221.81 174.649  12
   3 -14 -11 283.727 104.027  12
   3 -14 -12 2205.28 161.757  12
   3 -15   6 3488.62 304.428  10
   3 -15   5 2213.51 272.047  10
   3 -15   4 3883.59 343.717  10
   3 -15   4 3473.23 316.873  12
   3 -15   3 2164.21 269.299  12
   3 -15   3 2141.86 275.932  10
   3 -15   2 212.841 154.041  10
   3 -15   2 210.272 162.096  12
  -3 -15  -1 407.555 154.607   8
   3 -15   1 155.612 148.716  10
   3 -15   1 249.321 166.030  12
   3 -15   0 9488.36 507.694  10
  -3 -15   0 9755.05 507.226   8
   3 -15   0 10339.8 558.152  12
   3 -15  -1 5.07865 146.326  12
   3 -15  -1 235.201 137.761  10
  -3 -15   1 306.024 138.169   8
   3 -15  -2 242.712 157.332  12
   3 -15  -2 427.914 142.406  10
  -3 -15   2 309.722 125.092   8
   3 -15  -3 1545.35 249.047  12
  -3 -15   3 1650.61 209.235   8
   3 -15  -4 4018.53 351.803  12
  -3 -15   4 3233.75 259.562   8
  -3 -15   5 1815.05 182.238   8
   3 -15  -5 2385.12 277.632  12
   3 -15  -6 3738.61 315.391  12
   3 -15  -7 3331.41 287.316  12
  -3 -15   7 2932.96 255.096  10
  -3 -15   8 276.782 96.4203  10
   3 -15  -8 144.107 107.465  12
   3 -15  -9 702.899 130.921  12
   3 -15 -10-32.3849 62.1902  12
   3 -16   4 2386.12 234.171  10
   3 -16   3 2833.00 260.905  10
   3 -16   3 2656.24 238.546  12
  -3 -16  -2 1861.89 183.730  10
   3 -16   2 2064.64 228.819  10
   3 -16   2 1708.62 209.059  12
   3 -16   1 2106.18 223.617  10
  -3 -16  -1 2285.24 223.631  10
   3 -16   1 2569.97 254.922  12
   3 -16   0 1432.64 199.610  12
   3 -16   0 1152.26 169.618  10
   3 -16  -1 2406.94 246.927  12
   3 -16  -2 1848.04 221.966  12
   3 -16  -3 2910.15 259.114  12
  -3 -16   3 2399.16 245.165  10
   3 -16  -4 2199.92 224.217  12
  -3 -16   4 2128.56 227.082  10
  -3 -16   5-33.4696 114.415  10
   3 -16  -5 70.6539 105.664  12
  -3 -16   6 1843.66 186.222  10
   3 -16  -6 1798.04 180.986  12
  -3 -16   7 516.586 97.7560  10
   3 -16  -7 477.420 107.639  12
   3 -17   0 215.735 86.4493  12
  -3 -17   0-116.032 78.4694  10
  -3 -17   1 917.308 121.572  10
   3 -17  -1 1073.97 130.902  12
  -3 -17   2 213.674 80.7210  10
   3 -17  -2 497.122 97.4170  12
  -3 -17   3 749.984 113.341  10
   3 -17  -3 890.380 110.356  12
  -3 -17   4 47.4334 62.6723  10
   4   0   0 13572.4 555.001   2
   4   0  -1 230156. 2401.65   2
   4   0   1 233016. 2112.00   2
   4   0   2 18376.6 538.855   2
   4   0   2 18345.1 659.858   3
   4   0  -3 62912.4 596.744   4
   4   0   3 65594.9 1332.42   3
   4   0   4 17314.9 734.147   3
   4   0   5 33794.0 1088.66   3
   4   0   6 79413.9 1744.84   3
   4   0  -7 14532.5 773.348   2
   4   0  -8 3497.98 411.012   2
   4   0  -9 2621.00 349.192   2
   4   0 -10 11291.5 708.309   2
  -4   0  10 12165.1 697.591   5
  -4   0  11 36720.6 1209.18   5
  -4   0  12 13534.0 682.049   9
  -4   0  12 12988.8 738.116   5
   4   0  12 13424.8 662.158  13
  -4   0  13 22275.1 904.370   9
  -4   0  13 21516.2 934.296   5
   4   0  13 22663.7 896.218  13
   4   0  14 1606.61 273.424   9
   4   0  14 1284.17 258.715  13
  -4   0  14 1767.73 294.572   9
  -4   0  14 1381.05 265.815   5
  -4   0  15 5371.21 460.876   9
   4   0  15 4552.43 418.739   9
   4   0  15 4874.14 436.968  13
  -4   0  16 3117.40 356.355   9
   4   0  16 3090.77 347.519   9
   4   0  17 12244.7 611.639   9
  -4   0  17 13428.7 657.052   9
   4   0  18 674.730 164.674   9
   4   0  19 1339.76 168.962   9
   4  -1  19 5464.77 284.631   9
   4  -1  18 1609.36 205.955   9
   4  -1  17 754.607 182.425   9
  -4   1  17 590.398 178.442   9
   4  -1  16 12183.5 638.905   9
  -4   1  16 11915.8 644.097   9
  -4   1  15 2452.45 330.946   9
   4  -1  15 2699.51 322.841   9
  -4   1  15 2920.95 354.722   5
   4  -1  14 1673.86 259.580   9
  -4   1  14 1626.80 287.745   5
  -4   1  14 1220.95 252.926   9
   4  -1  14 1405.78 254.330  13
  -4   1  13 9731.18 593.891   9
   4  -1  13 9883.80 588.570   9
  -4   1  13 9961.35 679.915   5
   4  -1  13 10026.3 592.086  13
   4  -1  12 14195.8 883.958   4
  -4   1  12 15231.1 841.437   5
  -4   1  12 15064.1 708.081   9
   4  -1  12 15431.5 691.162  13
  -4   1  11 930.352 284.790   5
   4   1 -10 3802.95 470.894   2
   4  -1   1 37310.7 834.582   2
   4   1  -1 38140.2 743.221   3
   4  -1   0 95765.1 1415.37   2
   4   1   0 98391.0 1356.54   3
   4  -1  -1 39085.7 727.361   4
   4   1   1 38394.2 941.952   3
   4  -1  -1 36744.3 940.421   2
   4  -1  -2 92560.3 1017.04   4
   4  -1  -2 91703.3 1548.91   2
   4   1   2 92482.6 1583.30   3
   4   1   2 89837.1 1246.02   2
   4   1   3 31958.1 993.297   3
   4  -1  -3 31818.2 945.450   2
   4   1   3 30383.0 634.695   2
   4  -1  -3 31534.1 531.859   4
   4   1   4 28302.9 994.514   3
   4  -1  -4 29242.4 951.751   2
   4  -1  -5 19280.5 804.952   2
   4   1   5 20124.0 886.053   3
   4   1   6 55787.2 1525.41   3
   4  -1  -6 57508.9 1428.25   2
   4   1   7 110916. 2258.99   3
   4  -1  -7 112479. 2044.37   2
   4  -1  -8 8222.14 576.557   2
   4   1   8 8086.76 647.236   3
  -4  -1   9 56880.0 1332.82   5
   4  -1  -9 59152.2 1518.39   2
   4   1   9 56704.7 1733.90   3
  -4  -1  10 4764.12 424.759   5
  -4  -1  11 354.028 148.628   5
  -4  -1  12 17201.5 776.762   9
   4   1  12 17647.5 779.791  13
  -4  -1  12 15508.7 757.785   5
  -4  -1  13 9635.88 609.549   9
   4   1  13 9876.88 614.672  13
  -4  -1  13 8836.26 575.263   5
  -4  -1  14 1433.87 241.940   5
   4   1  14 1852.67 292.298  13
  -4  -1  14 1343.02 265.111   9
   4   1  15 1976.49 305.380   9
  -4  -1  15 2165.63 319.853   9
   4   1  15 2156.90 309.335  13
  -4  -1  16 11676.6 660.715   9
   4   1  16 10529.0 622.718   9
   4   1  17 621.182 190.022   9
   4   1  18 1506.67 216.078   9
   4   1  19 6253.56 332.946   9
   4  -2  19 4937.25 235.340   9
   4  -2  18 197.940 103.550   9
  -4   2  17 4871.40 379.313   9
   4  -2  17 5665.06 393.862   9
  -4   2  16 5838.29 448.271   9
   4  -2  16 7000.45 468.006   9
  -4   2  15 6819.20 498.620   9
   4  -2  15 6678.80 484.751   9
  -4   2  15 6863.19 535.092   5
  -4   2  14 719.886 223.133   5
   4  -2  14 775.053 193.042   9
  -4   2  14 665.777 186.831   9
  -4   2  13 6292.95 576.759   5
  -4   2  13 5806.16 457.530   9
   4  -2  13 6359.92 457.058   9
   4  -2  13 6499.63 465.969  13
   4  -2  12 7784.74 486.955  13
  -4   2  12 7080.74 618.309   5
  -4   2  12 7019.48 484.935   9
   4  -2  12 7243.14 460.056   9
   4  -2  11 39205.7 1436.78   4
   4  -2  10 5153.28 523.225   4
   4   2  -3 25949.5 464.811   3
   4   2  -2 26496.7 632.352   3
   4  -2   1 13694.7 534.322   4
   4  -2   0 7888.29 386.372   4
   4  -2  -1 13576.8 470.905   4
   4  -2  -1 13359.2 569.619   2
   4  -2  -2 26275.6 620.876   4
   4  -2  -2 25908.6 806.254   2
  -4  -2   3 26314.9 433.735   1
   4  -2  -3 26099.4 588.902   4
   4  -2  -3 25838.5 841.476   2
   4   2   3 24690.7 963.597   3
   4   2   4 62137.3 760.553   2
   4  -2  -4 63287.8 1359.02   2
   4   2   4 61111.6 1583.48   3
   4   2   5 65774.6 1717.75   3
   4  -2  -5 64481.6 1414.39   2
   4   2   6 85072.0 2014.23   3
   4  -2  -6 81420.2 1635.87   2
   4   2   7 95007.7 2211.64   3
  -4  -2   7 89159.6 1375.29   5
   4  -2  -7 93367.0 1782.25   2
   4   2   8 67872.9 1922.32   3
   4  -2  -8 63948.1 1507.19   2
  -4  -2   8 65130.6 1242.09   5
  -4  -2   9 22289.5 766.892   5
   4   2   9 22584.9 1139.14   3
  -4  -2  10 5245.68 410.854   5
   4   2  10 5644.45 606.428   3
  -4  -2  11 37913.4 1071.49   5
   4   2  12 8404.20 552.475  13
  -4  -2  12 7309.73 495.385   5
  -4  -2  12 8381.93 556.572   9
  -4  -2  13 7224.38 536.744   9
   4   2  13 6233.63 498.934  13
   4   2  14 593.800 210.101  13
  -4  -2  14 742.069 224.346   9
  -4  -2  15 7117.28 542.641   9
   4   2  15 7465.27 545.334  13
   4   2  16 6899.04 509.236   9
   4   2  16 6844.78 505.043  13
   4   2  17 5573.68 431.344   9
   4   2  18 89.6299 122.766   9
   4  -2 -19 4904.80 225.866   7
   4   2  19 5861.85 326.456   9
   4  -3  18 5424.46 287.704   9
  -4   3  17 5731.73 382.673   9
   4  -3  17 6319.25 378.627   9
   4  -3  16 1680.51 227.372   9
  -4   3  16 1435.33 222.381   9
  -4   3  15 22593.0 863.797   9
   4  -3  15 23682.9 839.790   9
  -4   3  15 22917.6 976.736   5
  -4   3  14 3275.53 350.722   9
   4  -3  14 4069.23 359.709   9
  -4   3  14 4419.42 469.409   5
  -4   3  13 29416.4 982.451   9
   4  -3  13 31363.9 971.808   9
  -4   3  13 30407.0 1239.47   5
  -4   3  12 8944.55 705.278   5
  -4   3  12 7625.38 496.323   9
   4  -3  11 11619.5 782.419   4
   4  -3  10 24911.6 1133.41   4
   4  -3   9 2313.67 357.138   4
   4  -3   8 604.684 189.112   4
   4  -3   7 14187.5 771.766   4
   4  -3   6 122010. 2145.42   4
   4  -3   5 9827.31 592.041   4
   4  -3   4 12506.0 634.036   4
   4  -3   3 104066. 1726.04   4
   4  -3   2 30102.2 893.099   4
   4  -3   1 54700.4 1141.98   4
   4  -3   0 176149. 1953.47   4
   4  -3  -1 61659.3 1106.95   4
  -4  -3   2 28953.7 702.917   1
   4  -3  -2 31386.6 774.427   4
  -4  -3   3 101058. 1112.16   1
  -4  -3   4 10796.0 316.845   1
  -4  -3   5 7700.13 299.979   5
  -4  -3   6 117631. 1272.96   5
   4   3   6 117413. 2574.06   3
   4   3   7 12838.1 879.110   3
  -4  -3   7 14068.4 487.527   5
   4   3   8 1277.10 323.256   3
  -4  -3   8 757.944 150.930   5
   4   3   9 2650.53 438.510   3
  -4  -3   9 2141.46 238.469   5
  -4  -3  10 26842.4 811.974   5
   4   3  10 26016.4 1308.27   3
   4   3  11 14108.1 692.949  13
  -4  -3  11 14066.3 698.212   9
   4   3  11 13216.2 945.430   3
   4   3  12 8152.59 560.955  13
  -4  -3  12 8044.30 567.077   9
  -4  -3  13 33163.3 1128.53   9
   4   3  13 33858.3 1146.36  13
  -4  -3  14 3438.87 400.141   9
   4   3  14 3952.97 419.160  13
   4   3  15 22893.9 935.043  13
   4   3  16 1353.23 260.137   9
   4   3  16 1302.05 244.786  13
   4   3  17 6896.13 474.992   9
   4  -3 -18 5718.52 291.274   7
   4   3  18 6413.90 405.119   9
   4   3  19 2349.63 211.090   9
  -4   4  17 3334.75 277.311   9
  -4   4  16 5208.33 379.819   9
  -4   4  15 551.051 210.988   5
  -4   4  15 571.435 185.505   9
  -4   4  14 14532.6 674.781   9
  -4   4  14 16150.8 885.246   5
  -4   4  13 20498.7 1043.19   5
  -4   4  13 19573.7 773.114   9
  -4   4  12 2751.07 454.968   5
   4  -4  11 21142.6 1069.50   4
   4  -4  10 21871.7 1079.22   4
   4  -4   9 15357.2 882.994   4
   4  -4   8 2806.59 381.530   4
   4  -4   7 57663.4 1583.75   4
   4  -4   6 23948.5 985.142   4
   4  -4   5 35636.5 1155.35   4
   4  -4   4 28202.3 991.361   4
   4  -4   3 8550.20 530.463   4
   4  -4   2 152259. 2115.46   4
   4  -4   1 329160. 3004.61   4
   4  -4   0 8474.92 472.660   4
   4  -4  -1 326767. 2828.74   4
   4  -4  -2 154793. 1915.08   4
  -4  -4   2 148108. 1752.91   1
  -4  -4   3 7705.41 369.512   1
  -4  -4   4 26957.7 637.700   1
   4   4   7 52067.9 1867.55   3
   4   4   8 2310.52 438.356   3
   4   4   9 14965.3 1038.44   3
   4   4  10 21978.1 1268.82   3
  -4  -4  11 21980.2 870.833   9
   4   4  11 23443.2 905.244  13
   4   4  11 21618.3 1244.87   3
  -4  -4  12 2305.33 332.143   9
   4   4  12 1429.61 335.948   3
   4   4  12 2360.12 323.722  13
   4   4  13 20371.4 896.123  13
   4   4  14 15634.4 791.297  13
   4   4  15 406.614 189.324  13
   4   4  16 5426.33 447.240   9
   4   4  16 6118.86 475.719  13
   4  -4 -17 3265.70 264.968  12
   4   4  17 3796.56 352.636   9
   4   4  18 4168.68 316.738   9
   4  -4 -18 3795.78 224.550  12
   4   4  19 289.352 90.4557   9
  -4  -5 -19 549.827 86.1774  12
  -4   5  14 2155.94 372.993   5
  -4   5  13 1408.57 332.577   5
   4  -5  11 19280.1 1034.61   4
   4  -5  10 4949.67 521.401   4
   4  -5   9 2754.87 404.390   4
   4  -5   8 26914.6 1170.02   4
   4  -5   7 25038.1 1089.03   4
   4  -5   6 39062.9 1322.49   4
   4  -5   5 69949.7 1709.56   4
   4  -5   4 81254.1 1777.95   4
   4  -5   3 39869.2 1203.99   4
   4  -5   2 62132.0 1469.18   4
   4  -5   1 29613.0 983.058   4
   4  -5   0 213280. 2564.44   4
  -4  -5   1 32928.7 996.383   1
   4  -5  -1 33865.1 1010.36   4
  -4  -5   2 66246.7 1314.27   1
  -4  -5   3 42708.4 989.853   1
  -4  -5   4 86135.5 1324.31   1
   4   5   8 25340.7 1420.68   3
   4   5   9 4209.77 602.357   3
   4   5  10 4834.42 640.696   3
   4   5  11 19421.9 1245.23   3
   4   5  11 22560.5 904.885  13
   4   5  12 25789.4 992.544  13
   4   5  13 1620.23 275.351  13
   4   5  14 1891.93 294.731  13
   4   5  15 3616.57 385.733  13
   4  -5 -16 5484.66 372.456  12
   4   5  16 5786.96 447.380   9
   4   5  16 5687.39 434.216  13
   4  -5 -17 6586.57 350.507  12
   4   5  17 7044.32 446.704   9
   4   5  18 2519.09 240.690   9
   4  -5 -18 2274.62 169.912  12
   4   5  19 447.087 94.6262   9
  -4  -6 -18 90.4638 77.6207  12
  -4   6  14 3106.39 423.506   5
  -4   6  13 329.574 230.691   5
   4  -6  10 1247.49 293.952   4
   4  -6   9 5907.32 583.061   4
   4  -6   8 53107.6 1694.01   4
   4  -6   7 19563.1 1008.41   4
   4  -6   6 9185.50 674.450   4
   4  -6   5 3669.45 436.478   4
   4  -6   4 78620.7 1848.23   4
   4  -6   3 9073.08 616.152   4
   4  -6   2 4587.83 443.873   4
   4  -6   1 8569.55 583.105   4
   4  -6   0 2843.34 347.267   4
  -4  -6   0 3496.75 391.015   1
  -4  -6   1 7390.73 512.208   1
  -4  -6   2 3073.51 306.584   1
  -4  -6   3 10710.9 559.455   1
  -4  -6   4 81186.5 1463.12   1
   4   6   9 5986.11 756.540   3
   4   6  10 1046.37 384.469   3
   4   6  11 3477.30 533.355   3
   4   6  11 3518.03 388.474  13
   4   6  12 18012.2 826.131  13
   4   6  13 546.678 198.215  13
   4  -6 -14 3372.24 349.013  12
   4   6  14 2877.38 347.028  13
   4  -6 -15 9718.29 521.265  12
   4   6  15 10038.0 580.747  13
   4   6  16 1743.29 261.681   9
   4   6  16 2064.10 265.584  13
   4  -6 -16 1874.05 229.331  12
   4  -6 -17 4439.30 279.608  12
   4   6  17 5055.10 357.779   9
   4  -6 -18 211.064 62.1119  12
   4   6  18 60.9929 90.9021   9
  -4  -7 -17 1970.29 189.461  12
  -4   7  13 1015.94 304.779   5
  -4   7  12 2139.79 379.639   5
   4  -7  10 647.943 250.875   4
   4  -7   9-224.710 162.807   4
   4  -7   8 8497.94 717.572   4
   4  -7   7 2782.08 412.741   4
   4  -7   6 3329.65 442.306   4
   4  -7   5 26379.8 1173.62   4
   4  -7   4 33765.8 1292.59   4
   4  -7   3 124.055 146.587   4
  -4  -7  -2 22562.1 1097.11   1
   4  -7   2 24202.2 1070.63   4
   4  -7   1 18783.7 924.085   4
  -4  -7  -1 18851.8 962.544   1
  -4  -7   0 18693.5 909.999   1
  -4  -7   1 19985.8 894.281   1
  -4  -7   2 22860.2 928.984   1
  -4  -7   3-0.92172 87.8337   1
  -4  -7   4 31883.7 1024.19   1
   4  -7  -9 600.906 201.719  12
   4   7   9 1125.60 410.296   3
   4  -7 -10 1396.77 272.080  12
   4   7  10 1130.12 237.448  13
   4   7  10 829.152 298.969   3
   4  -7 -11 17060.2 762.015  12
   4   7  11 16366.2 770.465  13
   4  -7 -12 2302.98 307.558  12
   4   7  12 2031.32 298.708  13
   4   7  13 996.162 229.897  13
   4  -7 -13 1107.08 252.827  12
   4  -7 -14 14224.0 650.757  12
   4   7  14 13466.5 672.559  13
   4  -7 -15 558.575 185.064  12
   4   7  15 604.012 180.947  13
   4   7  16 10080.1 515.044   9
   4  -7 -16 8887.23 434.028  12
   4  -7 -17 2186.39 187.633  12
   4   7  17 1936.60 215.640   9
   4   7  18 1558.15 150.189   9
  -4  -8 -17 1427.75 133.913  12
  -4  -8 -16 2806.03 227.319  12
  -4  -8 -15 2395.26 245.815  12
  -4   8  12 1561.18 364.260   5
   4  -8   9 16993.0 687.936  10
   4  -8   9 15607.0 987.837   4
   4  -8   8 11414.2 848.743   4
   4  -8   8 11185.3 572.310  10
   4  -8   7 3504.35 331.594  10
   4  -8   7 3423.73 471.415   4
   4  -8   7 4389.76 400.404  12
   4  -8   6 1395.03 315.193   4
   4  -8   5 10478.8 788.771   4
   4  -8   4 40171.0 1515.84   4
  -4  -8  -4 38025.7 1587.89   1
  -4  -8  -3 2114.93 407.702   1
  -4  -8  -2 75572.3 2069.03   1
  -4  -8  -1 32434.0 1310.06   1
  -4  -8   0 8307.75 648.691   1
  -4  -8   1 35935.1 1296.62   1
  -4  -8   2 80919.1 1879.97   1
  -4  -8   3 1639.98 270.061   1
  -4  -8   4 38819.7 1242.37   1
   4  -8  -7 3235.49 328.204  12
   4  -8  -8 11760.9 627.258  12
   4  -8  -9 16371.4 748.398  12
   4  -8 -10 22020.2 875.080  12
   4   8  10 19839.6 817.428  13
   4   8  11 2579.31 309.809  13
   4  -8 -11 2898.22 348.694  12
   4  -8 -12 1168.30 249.659  12
   4   8  12 1117.31 228.134  13
   4   8  13 1428.08 243.330  13
   4  -8 -13 1387.53 256.155  12
   4  -8 -14 12401.0 587.603  12
   4   8  14 12065.5 590.066  13
   4  -8 -15 1967.05 238.114  12
   4   8  15 2238.14 251.206  13
   4  -8 -16 3140.57 246.652  12
   4   8  16 3489.24 281.722   9
   4  -8 -17 1586.85 146.170  12
   4   8  17 1481.56 159.886   9
  -4  -9 -16 104.416 70.3450  12
  -4  -9 -15 972.135 149.228  12
  -4  -9 -14 1239.29 183.415  12
  -4  -9 -13 2133.09 256.042  12
  -4  -9 -12 793.547 172.799  12
  -4  -9 -11 8463.77 492.739  12
  -4  -9 -10 19765.0 737.416  12
   4  -9   9 7360.00 474.014  10
   4  -9   8 2527.74 318.290  10
  -4  -9  -7 7908.80 509.197   8
  -4  -9  -7 7783.97 792.212   1
   4  -9   7 7379.17 498.038  10
   4  -9   7 8097.47 553.628  12
   4  -9   6 65095.8 1479.26  12
  -4  -9  -6 68316.3 2276.09   1
   4  -9   6 65202.2 1435.51  10
  -4  -9  -6 64553.1 1376.17   8
  -4  -9  -5 3152.30 343.184   8
   4  -9   5 1773.95 271.819  10
  -4  -9  -5 3774.56 579.316   1
   4  -9   5 2128.36 313.972  12
  -4  -9  -4 9165.40 807.408   1
  -4  -9  -3 13486.6 947.983   1
  -4  -9  -2 2128.21 390.339   1
  -4  -9  -1 16924.4 996.365   1
  -4  -9   0 2589.43 405.437   1
  -4  -9   1 15779.6 920.598   1
  -4  -9   2 2639.17 405.249   1
  -4  -9   3 11827.2 761.348   1
   4  -9  -5 2228.95 294.529  12
  -4  -9   5 4161.41 389.836   6
   4  -9  -6 68269.9 1476.78  12
  -4  -9   6 65198.4 1433.32   6
   4  -9  -7 7038.80 512.146  12
  -4  -9   7 7650.83 505.443   6
   4  -9  -8 2407.34 334.150  12
  -4  -9   8 3142.33 319.986   6
   4  -9  -9 7287.17 525.743  12
   4   9   9 7146.28 478.909  13
   4  -9 -10 20633.2 854.732  12
   4   9  10 17553.8 748.294  13
   4  -9 -11 9500.18 581.045  12
   4   9  11 8725.52 533.652  13
   4  -9 -12 217.913 167.741  12
   4   9  12 194.435 137.705  13
   4   9  13 1890.62 248.924  13
   4  -9 -13 1965.53 270.626  12
   4  -9 -14 978.957 192.635  12
   4   9  14 1067.96 176.203  13
   4  -9 -15 664.559 145.794  12
   4   9  15 726.276 154.233   9
   4  -9 -16 62.0495 75.2820  12
   4   9  16 25.1389 75.4860   9
  -4 -10 -15 191.262 74.3995  12
  -4 -10 -14 2537.51 209.212  12
  -4 -10 -13 1008.76 166.336  12
  -4 -10 -12 2523.85 257.306  12
  -4 -10 -11 3784.03 311.563  12
  -4 -10 -10 15975.7 636.347  12
   4 -10   9 5910.19 435.403  10
   4 -10   8 25044.1 906.534  10
   4 -10   7 11532.7 638.769  10
  -4 -10  -7 12022.3 638.270   8
  -4 -10  -6 4418.45 407.649   8
   4 -10   6 4380.96 415.880  10
   4 -10   6 4020.01 406.728  12
  -4 -10  -5 11692.6 944.325   1
  -4 -10  -5 11909.8 631.772   8
   4 -10   5 11078.3 633.087  10
   4 -10   5 12279.2 672.243  12
  -4 -10  -4 21389.8 1231.63   1
   4 -10   4 21761.9 865.313  10
  -4 -10  -4 20026.8 753.316   6
  -4 -10  -4 20411.8 808.417   8
   4 -10   4 21314.6 868.320  12
  -4 -10  -3 8754.63 782.169   1
   4 -10   3 8557.52 552.046  10
  -4 -10  -3 9407.13 550.515   6
  -4 -10  -3 9552.12 564.468   8
   4 -10   3 8282.03 546.347  12
   4 -10   2 6602.50 487.615  12
   4 -10   2 6612.64 477.335  10
  -4 -10  -2 7066.01 715.919   1
  -4 -10  -2 7011.36 487.926   6
  -4 -10  -1 4694.57 419.076   6
  -4 -10  -1 4396.95 562.521   1
   4 -10   1 3839.10 375.986  12
   4 -10   0 7189.00 512.731  12
   4 -10   0 7753.90 505.235  10
  -4 -10   0 7579.46 523.566   6
  -4 -10   0 8439.45 724.324   1
   4 -10  -1 3930.67 380.652  12
   4 -10  -1 3753.15 348.978  10
  -4 -10   1 5077.27 443.647   6
  -4 -10   1 4981.74 537.026   1
   4 -10  -2 7203.76 465.389  10
  -4 -10   2 8157.69 559.559   6
  -4 -10   2 6336.00 591.734   1
   4 -10  -2 7116.66 503.005  12
   4 -10  -3 7905.07 527.699  12
  -4 -10   3 9417.64 690.711   1
  -4 -10   3 9510.38 600.549   6
   4 -10  -4 21697.2 866.529  12
  -4 -10   4 22810.1 906.705   6
   4 -10  -5 10728.1 627.404  12
  -4 -10   5 11523.8 651.919   6
   4 -10  -6 3899.61 412.894  12
  -4 -10   6 3726.70 384.163   6
   4 -10  -7 12763.6 689.168  12
  -4 -10   7 11886.8 631.902   6
   4 -10  -8 24297.7 938.660  12
  -4 -10   8 24488.1 876.777   6
   4 -10  -9 7358.01 534.972  12
   4 -10 -10 17261.1 777.737  12
   4 -10 -11 3317.20 351.020  12
   4  10  11 2804.58 282.199  13
   4 -10 -12 3006.62 325.120  12
   4  10  12 2247.69 247.723  13
   4 -10 -13 558.600 174.151  12
   4  10  13 911.409 153.692  13
   4 -10 -14 2193.66 237.400  12
   4 -10 -15 72.6811 77.8080  14
   4 -10 -15 72.3062 90.0051  12
   4 -10 -16 983.647 112.158  12
   4 -11   9 17936.2 733.151  10
   4 -11   8 494.862 176.336  10
   4 -11   7 4029.29 397.006  10
   4 -11   7 4411.52 427.965  12
   4 -11   6 10835.2 639.186  10
  -4 -11  -6 10957.9 626.944   8
   4 -11   6 10564.4 638.528  12
   4 -11   5 1848.12 300.405  12
   4 -11   5 1661.74 272.155  10
  -4 -11  -5 2132.18 312.673   8
   4 -11   4 19168.3 852.464  12
  -4 -11  -4 19503.8 826.579   8
   4 -11   4 18955.8 845.495  10
  -4 -11  -4 19772.1 770.455   6
   4 -11   3 31919.7 1079.60  10
  -4 -11  -3 30947.1 994.019   6
  -4 -11  -3 32331.4 1053.41   8
   4 -11   3 30709.0 1071.82  12
   4 -11   2 1814.33 331.909  12
  -4 -11  -2 2117.73 329.374   8
   4 -11   2 1787.95 298.222  10
  -4 -11  -2 2214.02 319.066   6
  -4 -11  -1 4339.58 547.517   1
   4 -11   1 4723.06 437.030  10
  -4 -11  -1 4927.35 452.745   6
   4 -11   1 5093.41 441.032  12
   4 -11   0 59443.1 1458.55  12
  -4 -11   0 57096.9 1916.27   1
   4 -11   0 58934.9 1399.18  10
  -4 -11   0 59883.4 1472.61   6
   4 -11  -1 4654.79 436.603  12
  -4 -11   1 3595.24 480.616   1
   4 -11  -1 4536.94 403.082  10
  -4 -11   1 5024.84 465.024   6
   4 -11  -2 2314.40 327.674  12
   4 -11  -2 1620.50 265.836  10
  -4 -11   2 2264.71 386.801   1
  -4 -11   2 2532.34 352.165   6
  -4 -11   3 30311.2 1073.21   6
   4 -11  -3 29165.6 897.208  10
   4 -11  -3 30922.4 1064.69  12
   4 -11  -4 20039.3 864.113  12
  -4 -11   4 20323.1 895.675   6
   4 -11  -5 2337.33 343.456  12
  -4 -11   5 2374.02 339.023   6
   4 -11  -6 11457.2 662.222  12
  -4 -11   6 10264.0 623.114   6
  -4 -11   7 3978.53 394.351   6
   4 -11  -7 4127.57 418.548  12
   4 -11  -8 474.899 195.713  12
   4 -11  -9 19048.5 818.817  12
   4 -11 -10 1595.02 282.234  12
   4 -11 -11 1976.00 273.374  12
   4 -11 -12 14925.9 629.291  12
   4 -11 -13 906.686 176.879  12
   4 -11 -14-60.7091 89.8409  12
   4  11  14 158.116 70.1287   9
   4 -11 -15 773.634 109.167  12
   4 -11 -15 458.369 82.0944  14
   4 -12   8 2965.57 329.614  10
   4 -12   7 728.342 217.450  10
   4 -12   6 551.036 215.893  12
  -4 -12  -6 546.228 198.302   8
   4 -12   6 747.276 225.739  10
   4 -12   5 1661.01 298.692  10
   4 -12   5 1782.27 314.831  12
  -4 -12  -5 1172.17 247.349   8
  -4 -12  -4 4878.29 393.089   6
   4 -12   4 5171.11 458.289  10
  -4 -12  -4 4716.27 424.999   8
   4 -12   4 4992.72 463.056  12
   4 -12   3 2646.62 346.709  10
  -4 -12  -3 2271.95 300.869   6
  -4 -12  -3 2083.26 294.388   8
   4 -12   3 2651.10 351.901  12
   4 -12   2 2023.01 321.311  12
   4 -12   2 2070.65 312.059  10
  -4 -12  -2 2186.50 298.965   6
  -4 -12  -2 2161.20 307.401   8
   4 -12   1 8147.93 557.023  10
  -4 -12  -1 8054.06 555.070   6
   4 -12   1 7881.01 571.670  12
  -4 -12  -1 7565.68 527.537   8
   4 -12   0 4210.45 432.706  12
   4 -12   0 4708.53 426.318  10
  -4 -12   0 4721.44 437.303   6
  -4 -12   0 4704.45 425.780   8
   4 -12  -1 7593.66 552.311  12
   4 -12  -1 7174.76 497.852  10
  -4 -12   1 8054.56 575.422   6
   4 -12  -2 2573.38 309.807  10
  -4 -12   2 2814.32 361.933   6
   4 -12  -2 2423.14 342.500  12
   4 -12  -3 1777.32 302.539  12
   4 -12  -3 2631.46 300.041  10
  -4 -12   3 2452.75 338.362   6
   4 -12  -4 4594.61 438.953  12
  -4 -12   4 4410.75 430.273   6
   4 -12  -5 1330.39 274.457  12
  -4 -12   5 1505.11 274.558   6
   4 -12  -6 677.243 221.333  12
   4 -12  -7 689.218 213.571  12
   4 -12  -8 3065.65 347.433  12
   4 -12  -9 742.108 221.119  12
   4 -12 -10 2537.58 298.720  12
   4 -12 -11 2232.31 263.077  12
   4 -12 -12 596.675 157.615  12
   4 -12 -13 5991.11 321.339  12
   4 -12 -14 1189.05 126.627  12
   4 -12 -14 1376.25 131.788  14
   4 -13   7 7882.58 500.913  10
   4 -13   6 3095.34 348.267  10
   4 -13   6 2762.28 341.263  12
   4 -13   5 5293.18 452.506  12
   4 -13   5 5308.21 456.729  10
  -4 -13  -5 5218.52 431.672   8
  -4 -13  -4 6170.61 477.911   8
   4 -13   4 6801.04 521.967  12
   4 -13   4 6628.59 509.137  10
   4 -13   3 608.966 214.266  10
   4 -13   3 435.765 229.223  12
  -4 -13  -3 706.519 217.046   8
  -4 -13  -2 8318.09 546.471   8
   4 -13   2 8077.10 562.534  10
  -4 -13  -2 8235.71 526.868   6
   4 -13   2 8249.10 571.807  12
   4 -13   1 1139.03 254.211  12
  -4 -13  -1 1516.65 264.641   8
   4 -13   1 1661.32 286.362  10
  -4 -13  -1 1422.10 256.598   6
  -4 -13   0 2763.77 335.527   8
   4 -13   0 2713.45 338.333  10
  -4 -13   0 2260.72 308.471   6
   4 -13   0 2592.53 349.059  12
   4 -13  -1 1419.23 288.889  12
  -4 -13   1 1367.96 253.450   8
   4 -13  -1 1663.68 267.122  10
  -4 -13   1 1596.73 259.687   6
  -4 -13   2 8058.63 528.499   8
   4 -13  -2 8577.58 510.682  10
  -4 -13   2 8261.82 566.192   6
   4 -13  -2 8405.80 574.987  12
  -4 -13   3 870.794 210.332   8
   4 -13  -3 688.065 239.364  12
  -4 -13   3 491.126 195.117   6
   4 -13  -3 847.925 205.883  10
   4 -13  -4 6224.03 492.843  12
   4 -13  -5 5369.76 457.361  12
   4 -13  -6 2235.15 314.024  12
   4 -13  -7 8315.52 533.823  12
   4 -13  -8 35.2516 141.479  12
   4 -13  -9 3554.33 332.821  12
   4 -13 -10 3247.84 299.655  12
   4 -13 -11 179.475 114.070  12
   4 -13 -12 1126.34 149.184  12
   4 -13 -13 3178.33 181.612  14
   4 -13 -13 3113.69 180.829  12
   4 -14   6 1020.31 218.902  10
   4 -14   5 6441.04 461.224  10
   4 -14   5 5608.19 432.278  12
   4 -14   4 913.457 225.637  10
   4 -14   4 875.551 221.285  12
   4 -14   3 10.5587 162.910  12
   4 -14   3 47.7689 160.280  10
  -4 -14  -3 62.6129 135.168   8
   4 -14   2 3647.22 357.026  10
  -4 -14  -2 4335.58 385.892   8
   4 -14   2 4100.76 400.785  12
   4 -14   1 2093.41 296.920  10
   4 -14   1 2151.19 294.116  12
  -4 -14  -1 1929.99 269.631   8
  -4 -14   0 3073.76 328.364   8
   4 -14   0 3121.62 327.952  10
   4 -14   0 2840.83 347.342  12
   4 -14  -1 2184.47 275.409  10
  -4 -14   1 2065.89 276.971   8
   4 -14  -1 2507.64 323.173  12
   4 -14  -2 3033.10 355.434  12
  -4 -14   2 3385.11 334.714   8
   4 -14  -2 3151.57 302.805  10
  -4 -14   3-59.4838 127.782   8
   4 -14  -3-59.9972 148.151  12
   4 -14  -4 710.447 216.213  12
  -4 -14   4 853.968 191.173   8
  -4 -14   5 4946.15 357.198   8
   4 -14  -5 5728.41 443.818  12
   4 -14  -6 763.422 195.764  12
  -4 -14   6 619.639 144.700   8
   4 -14  -7 6764.37 438.782  12
  -4 -14   7 6711.72 340.917   8
   4 -14  -8 228.077 145.229  12
   4 -14  -9 970.063 175.523  12
  -4 -14   9 1122.07 140.342  10
   4 -14 -10 1097.63 167.531  12
   4 -14 -11 2594.57 193.090  12
   4 -15   4 369.619 173.110  12
   4 -15   4 359.867 156.761  10
   4 -15   3 3332.08 322.884  10
   4 -15   3 3362.99 316.704  12
   4 -15   2 2307.10 283.826  12
   4 -15   2 2444.92 276.147  10
   4 -15   1 7122.58 434.932  10
  -4 -15  -1 7580.67 450.521   8
   4 -15   1 7715.87 478.595  12
   4 -15   0 314.729 143.135  10
   4 -15   0 310.257 175.375  12
  -4 -15   0 267.200 133.506   8
  -4 -15   1 7452.68 436.866   8
   4 -15  -1 7191.59 464.552  12
  -4 -15   2 2488.68 256.973   8
   4 -15  -2 2405.29 286.365  12
  -4 -15   3 2747.27 264.513   8
   4 -15  -3 2677.92 303.741  12
   4 -15  -4 30.5196 142.482  12
  -4 -15   4 208.887 106.845   8
  -4 -15   5 1528.93 179.672   8
   4 -15  -5 1337.84 207.082  12
   4 -15  -6-40.3550 130.672  12
  -4 -15   6-23.6102 62.6071   8
   4 -15  -7 129.689 120.153  12
  -4 -15   7-22.2196 100.188  10
   4 -15  -8 813.436 151.979  12
  -4 -15   8 750.628 116.044  10
   4 -15  -9 280.968 75.4577  14
   4 -15  -9 101.213 78.6531  12
   4 -16   2 414.991 142.222  12
  -4 -16  -2 399.928 109.980  10
   4 -16   1 4837.86 322.227  12
   4 -16   0 1669.30 212.395  12
   4 -16  -1 4924.12 332.249  12
   4 -16  -2 352.663 139.590  12
   4 -16  -3 84.5934 104.351  12
   4 -16  -4 389.349 123.726  12
  -4 -16   4 382.430 132.451  10
  -4 -16   5 3029.51 234.321  10
   4 -16  -5 2971.86 229.597  12
  -4 -16   6 608.010 110.076  10
   4 -16  -6 810.028 127.036  12
   4 -16  -7 978.924 117.733  12
   4 -17   0 128.146 76.7308  12
   4 -17  -1 538.065 102.046  12
  -4 -17   1 452.834 86.9132  10
  -4 -17   2 40.2848 57.3215  10
   4 -17  -2 196.726 74.7123  12
  -4 -17   3 1482.78 128.125  10
   5   0   0-107.193 130.300   2
   5   0  -1 3157.86 330.231   2
   5   0   1 3049.67 290.868   2
   5   0  -2 149.744 64.4068   4
   5   0   2 131.078 91.5217   2
   5   0  -2 143.032 138.244   2
   5   0  -3 25410.5 976.394   2
   5   0  -3 26330.5 483.777   4
   5   0   3 26841.5 930.339   3
   5   0  -4 21254.1 935.845   2
   5   0   4 24598.3 948.030   3
   5   0  -5 34913.7 1235.30   2
   5   0  -6 10411.8 700.630   2
   5   0  -7 6892.12 594.988   2
   5   0  -8 147084. 2710.82   2
   5   0  -9 61209.0 1767.30   2
   5   0 -10 16469.3 915.855   2
  -5   0  10 16473.2 819.974   5
  -5   0  11 5641.21 508.541   5
   5   0  11 5237.48 404.330  13
  -5   0  12 199.283 137.235   9
   5   0  12 530.296 172.298  13
  -5   0  12 321.778 171.083   5
  -5   0  13 380.495 167.276   5
  -5   0  13-54.5702 162.990   9
   5   0  13-74.5990 167.667  13
  -5   0  14 349.488 170.514   5
   5   0  14 605.506 200.016  13
  -5   0  14 484.531 186.663   9
   5   0  14 510.308 194.772   9
  -5   0  15 5250.52 442.757   9
   5   0  15 5166.28 434.116   9
   5   0  15 4847.69 424.890  13
  -5   0  15 5172.39 417.207   5
   5   0  16 1124.19 223.616   9
   5   0  17 4369.87 355.264   9
   5   0  18 763.138 148.515   9
   5   0  19-86.5552 66.2340   9
   5  -1  18 5294.78 307.659   9
   5  -1  17 2605.21 269.092   9
  -5   1  16 5894.13 440.218   9
   5  -1  16 5514.92 412.477   9
  -5   1  15 4132.78 395.281   5
  -5   1  15 3644.03 374.495   9
   5  -1  15 3897.34 371.495   9
  -5   1  14 6282.75 482.851   9
   5  -1  14 6190.35 471.106   9
  -5   1  14 6159.09 507.110   5
   5  -1  14 6611.65 482.367  13
  -5   1  13 15369.0 734.230   9
   5  -1  13 15473.3 726.931  13
  -5   1  13 14615.1 805.304   5
  -5   1  12 37160.6 1102.49   9
   5  -1  12 35799.4 1464.99   4
  -5   1  12 37591.3 1316.29   5
   5  -1  12 37369.6 1090.40  13
  -5   1  11 14937.5 834.411   5
   5   1 -10 20044.5 1068.93   2
   5   1  -9 3037.03 438.962   2
   5   1  -3 32161.0 502.910   4
   5  -1   1 7281.35 427.978   2
   5   1  -1 7021.92 357.109   3
   5  -1   0 85983.0 1516.17   2
   5   1   0 87462.7 1389.27   3
   5  -1  -1 6850.28 349.395   4
   5   1   1 5818.15 409.987   2
   5   1   1 7229.08 444.140   3
   5  -1  -1 6190.13 444.982   2
   5  -1  -2 42149.1 790.369   4
   5   1   2 43011.4 985.199   2
   5  -1  -2 44845.9 1198.20   2
   5   1   2 44646.5 1168.75   3
   5  -1  -3 34743.9 1106.76   2
   5  -1  -3 33673.4 623.177   4
   5   1   3 33596.8 775.654   2
   5   1   3 35391.5 1114.99   3
   5  -1  -4 53061.8 1412.92   2
   5   1   4 56208.4 1479.70   3
   5  -1  -5 40318.1 1265.73   2
   5   1   5 39868.8 1323.98   3
   5  -1  -6 44426.4 1375.81   2
   5   1   6 47675.6 1505.51   3
   5  -1  -7 32295.6 1202.77   2
   5   1   7 33259.3 1313.37   3
   5   1   8 87534.5 2211.10   3
   5  -1  -8 92263.4 2063.69   2
  -5  -1   9 2802.13 337.309   5
   5  -1  -9 1886.92 307.579   2
  -5  -1  10 18357.0 798.985   5
   5  -1 -10 18524.8 924.080   2
   5   1  11 16851.5 737.928  13
  -5  -1  11 16065.6 729.162   9
  -5  -1  11 15734.4 755.189   5
  -5  -1  12 35300.0 1127.01   5
  -5  -1  12 37048.2 1148.84   9
   5   1  12 38284.5 1162.05  13
  -5  -1  13 16403.6 786.538   9
   5   1  13 16670.8 794.010  13
  -5  -1  13 15865.0 753.902   5
  -5  -1  14 6733.18 518.358   9
   5   1  14 7947.65 557.087  13
  -5  -1  14 7283.31 498.208   5
   5   1  15 4793.27 423.716  13
   5   1  15 4628.98 424.464   9
   5   1  16 5403.41 433.484   9
   5   1  16 5719.70 446.667  13
   5   1  17 2609.00 288.327   9
   5   1  18 4969.00 331.002   9
   5  -1 -19 314.488 87.5664   7
   5   1  19 257.963 88.4730   9
   5  -2  17 6776.79 383.952   9
  -5   2  16 13864.8 635.630   9
   5  -2  16 14634.5 616.880   9
  -5   2  15 1285.16 244.354   5
   5  -2  15 1171.77 206.766   9
  -5   2  15 1482.87 244.381   9
  -5   2  14 16418.0 741.203   9
   5  -2  14 17796.0 752.911   9
  -5   2  14 16418.2 848.090   5
  -5   2  13 6959.80 595.476   5
  -5   2  13 7403.94 508.350   9
   5  -2  13 7339.07 481.645   9
   5  -2  13 8469.25 516.762  13
   5  -2  12 3268.19 338.829  13
   5  -2  12 2651.24 438.192   4
  -5   2  12 2634.68 316.942   9
  -5   2  12 3018.35 445.234   5
   5  -2  11 9078.91 743.054   4
   5   2 -11 8880.65 750.437   2
   5  -2  10 8094.79 677.821   4
   5   2 -10 8280.18 724.006   2
   5   2  -2 133416. 1465.63   3
   5  -2   1 32842.0 904.216   4
   5   2  -1 32093.9 831.331   3
   5  -2   0 36626.4 907.368   4
   5   2   0 36069.3 981.648   3
   5  -2  -1 30880.3 787.274   4
   5  -2  -1 30641.5 957.897   2
   5   2   1 30633.0 985.760   3
   5  -2  -2 134373. 2043.93   2
   5   2   2 136403. 2213.88   3
   5  -2  -3 1163.85 150.831   4
   5   2   3 837.269 149.198   2
   5  -2  -3 1067.46 204.620   2
   5   2   3 896.544 234.454   3
   5   2   4 46852.6 1444.53   3
   5   2   4 45736.0 793.973   2
   5  -2  -4 47289.8 1293.36   2
   5   2   5 74018.1 1888.95   3
   5  -2  -5 71644.7 1633.74   2
   5   2   6 33643.1 1329.19   3
   5  -2  -6 31365.3 1120.09   2
   5   2   7 8904.75 713.899   3
   5  -2  -7 7543.63 571.845   2
  -5  -2   7 7943.20 435.306   5
  -5  -2   8 10649.2 527.382   5
   5  -2  -8 8658.00 615.539   2
   5   2   8 10591.4 805.921   3
  -5  -2   9 6956.12 444.292   5
   5   2   9 7747.54 724.252   3
  -5  -2  10 7592.36 474.605   5
   5   2  10 7351.95 718.012   3
  -5  -2  11 11246.1 622.740   9
   5   2  11 11501.3 631.272  13
  -5  -2  11 10774.9 576.601   5
  -5  -2  12 3322.70 381.864   9
   5   2  12 3834.29 397.883  13
  -5  -2  12 3360.64 331.908   5
  -5  -2  13 7958.19 563.146   9
   5   2  13 7851.55 565.395  13
   5   2  14 17082.8 817.361  13
   5   2  15 1612.51 284.194  13
   5   2  16 15782.7 726.733   9
   5   2  16 15449.9 718.046  13
   5   2  17 7110.93 456.194   9
   5   2  18 4204.71 313.576   9
   5   2  19 1775.56 168.707   9
  -5   3  16 1177.37 202.468   9
  -5   3  15 5722.68 419.709   9
  -5   3  14 4156.73 374.085   9
  -5   3  14 5071.41 505.316   5
  -5   3  13 13075.0 644.884   9
  -5   3  13 14753.5 879.866   5
   5  -3  12 5292.19 569.499   4
  -5   3  12 4816.57 387.156   9
  -5   3  12 5554.84 582.972   5
   5  -3  11 3056.74 461.557   4
   5  -3  10 5372.13 589.471   4
   5  -3   9 13041.2 856.454   4
   5  -3   8 1502.37 303.874   4
   5  -3   7 42613.4 1423.46   4
   5  -3   6 108209. 2170.96   4
   5  -3   5 11745.2 694.557   4
   5  -3   4 8021.31 548.684   4
   5  -3   3 79511.8 1637.73   4
   5   3  -3 77370.6 1090.00   3
   5   3  -2 41709.2 973.431   3
   5  -3   2 45442.7 1175.70   4
   5  -3   1 69375.7 1391.76   4
   5  -3   0 5287.16 372.259   4
   5  -3  -1 70211.5 1279.07   4
   5  -3  -2 42235.0 953.415   4
  -5  -3   3 77502.3 988.376   1
   5  -3  -3 80278.3 1268.69   4
   5   3   4 7585.60 652.445   3
   5   3   5 11661.5 817.403   3
   5   3   6 108742. 2541.12   3
   5   3   7 45451.9 1689.92   3
   5   3   8 985.663 308.247   3
   5   3   9 12835.8 941.284   3
   5   3  10 5378.68 634.553   3
   5   3  11 3990.78 554.693   3
   5   3  11 4563.15 409.329  13
   5   3  12 6115.46 497.543  13
   5   3  13 16244.6 806.233  13
   5   3  14 5795.73 490.350  13
   5   3  15 6766.05 519.603  13
   5   3  16 988.971 222.266   9
   5   3  16 923.521 229.297  13
   5   3  17 324.958 147.396   9
   5  -3 -18 8828.13 341.265   7
   5   3  18 9519.77 446.812   9
   5   3  19 4804.74 256.253   9
  -5   4  15 2505.64 271.167   9
  -5   4  14 4190.21 463.841   5
  -5   4  13 1244.39 308.248   5
   5  -4  11 34286.6 1439.41   4
   5  -4  10 20561.4 1112.41   4
   5  -4   9 403.181 223.286   4
   5  -4   8 14612.3 897.101   4
   5  -4   7 35919.3 1340.99   4
   5  -4   6 58821.4 1664.29   4
   5  -4   5 47273.4 1431.03   4
   5  -4   4 64952.0 1608.73   4
   5  -4   3 9233.37 586.968   4
   5  -4   2 83584.7 1693.83   4
   5  -4   1 26670.9 925.866   4
   5  -4   0 147873. 2090.38   4
   5  -4  -1 26285.0 859.307   4
  -5  -4   2 83821.3 1391.51   1
   5  -4  -2 86311.3 1518.65   4
  -5  -4   3 8775.63 399.798   1
   5   4   6 54399.2 1921.02   3
   5   4   7 34761.9 1570.08   3
   5   4   8 14471.0 1038.47   3
   5   4   9 666.635 269.874   3
   5   4  10 21157.0 1270.89   3
   5   4  11 38382.7 1193.71  13
   5   4  11 35602.3 1648.04   3
   5   4  12 9574.33 623.441  13
   5   4  13 990.861 247.352  13
   5   4  14 4558.01 442.327  13
   5  -4 -15 2581.89 268.965  12
   5   4  15 3189.52 373.713  13
   5   4  16 752.242 202.729   9
   5   4  16 726.285 208.782  13
   5  -4 -16 834.977 174.363   7
   5   4  17 1738.06 243.860   9
   5  -4 -17 1794.10 193.853   7
   5   4  18 2074.52 220.705   9
   5   4  19 1097.60 124.757   9
  -5   5  14 253.188 189.630   5
  -5   5  13 10627.6 767.045   5
   5  -5  11 7116.88 648.457   4
   5  -5  10 166.748 131.117   4
   5  -5   9 52550.9 1776.74   4
   5  -5   8 12361.4 839.022   4
   5  -5   7 4632.67 493.839   4
   5  -5   6 9078.75 682.104   4
   5  -5   5 7460.76 604.404   4
   5  -5   4 16546.9 855.222   4
   5  -5   3 80160.0 1808.50   4
   5  -5   2 10383.5 639.842   4
   5  -5   1 91415.2 1828.12   4
   5  -5   0 45751.5 1253.48   4
  -5  -5   1 84864.3 1674.62   1
   5  -5  -1 91052.4 1750.10   4
  -5  -5   2 10584.1 540.323   1
  -5  -5   3 82001.3 1380.67   1
   5   5   7 5710.91 698.644   3
   5   5   8 10417.8 939.404   3
   5   5   9 49363.9 2035.76   3
   5   5  10 1460.90 388.397   3
   5   5  11 7518.17 766.813   3
   5   5  11 8160.54 574.959  13
   5   5  12 6232.75 509.729  13
   5   5  13 10911.0 660.967  13
   5  -5 -14 142.805 127.504  12
   5  -5 -14 360.216 139.785   7
   5   5  14 415.876 176.850  13
   5  -5 -15 5487.42 367.009  12
   5  -5 -15 5895.01 372.749   7
   5   5  15 6361.55 484.132  13
   5  -5 -16 12787.1 490.044  12
   5   5  16 12577.6 615.609  13
   5   5  16 12662.0 625.426   9
   5   5  17 2125.79 247.803   9
   5   5  18 14.0460 88.5702   9
  -5   6  13 4297.74 497.320   5
   5  -6  10 9574.75 780.852   4
   5  -6   9 284.545 188.368   4
   5  -6   8 6675.54 644.630   4
   5  -6   7 3718.52 477.415   4
   5  -6   6 6331.46 593.981   4
   5  -6   5 28481.8 1213.53   4
   5  -6   4 28437.6 1184.96   4
   5  -6   3 38433.7 1336.80   4
   5  -6   2 9428.12 653.099   4
   5  -6   1 28775.5 1113.89   4
   5  -6   0 64660.6 1634.06   4
  -5  -6   0 60565.3 1609.54   1
  -5  -6   1 25183.4 955.372   1
  -5  -6   2 7054.61 491.812   1
  -5  -6   3 35935.1 1022.55   1
   5   6   8 6561.33 799.636   3
   5  -6  -9 361.827 141.794  12
   5   6   9 722.220 346.405   3
   5  -6 -10 8732.77 531.198  12
   5  -6 -10 8677.50 491.729   7
   5   6  10 10280.1 963.653   3
   5  -6 -11 5004.80 383.222   7
   5  -6 -11 4731.75 403.553  12
   5   6  11 5416.18 467.638  13
   5  -6 -12 1820.94 268.162  12
   5   6  12 1498.80 290.275  13
   5  -6 -13 3963.58 365.008  12
   5   6  13 3798.46 398.672  13
   5  -6 -14 4087.82 349.052  12
   5   6  14 3693.13 381.246  13
   5  -6 -15 4747.45 343.824  12
   5   6  15 3817.84 365.253  13
   5   6  16 8829.16 490.136  13
   5  -6 -16 8527.99 393.121  12
   5   6  16 9515.62 519.492   9
   5   6  17 10902.5 484.286   9
   5   6  18 263.273 86.7671   9
  -5  -7 -17 596.841 91.2590  12
  -5  -7 -16 2885.17 224.518  12
  -5   7  13 14486.5 838.164   5
   5  -7   9 13022.0 924.731   4
   5  -7   8 15896.6 987.045   4
   5  -7   8 15187.7 646.514  10
   5  -7   7 35149.0 1466.37   4
   5  -7   6 4409.30 521.006   4
   5  -7   5 8359.45 697.879   4
   5  -7   4 38085.4 1440.02   4
   5  -7   3 22292.1 1080.61   4
   5  -7   2 7318.35 630.421   4
  -5  -7  -1 33865.3 1325.85   1
   5  -7   1 32985.3 1271.75   4
  -5  -7   0 2327.24 347.037   1
  -5  -7   1 32047.8 1150.69   1
  -5  -7   2 8238.30 570.355   1
  -5  -7   3 19026.9 808.520   1
   5  -7  -8 16651.4 708.429  12
   5   7   8 16454.3 1291.44   3
   5  -7  -9 14204.1 675.975  12
   5   7   9 15949.0 1273.13   3
   5  -7 -10 17758.9 755.670  12
   5  -7 -11 3326.15 356.332  12
   5   7  11 3882.64 410.841  13
   5  -7 -12 31.8855 129.286  12
   5   7  12 17.9279 142.191  13
   5  -7 -13 16659.6 703.981  12
   5   7  13 16090.7 754.219  13
   5  -7 -14 138.090 119.953  12
   5   7  14 373.993 191.361  13
   5  -7 -15 2863.08 261.741  12
   5  -7 -15 2939.30 251.364  14
   5   7  15 2896.54 298.372  13
   5  -7 -16 2980.89 228.306  12
   5   7  16 2620.96 267.755   9
   5   7  16 2772.33 261.053  13
   5   7  17 781.798 137.852   9
  -5  -8 -16 729.289 103.321  12
  -5  -8 -15 430.156 113.492  12
  -5  -8 -14 609.786 137.107  12
   5  -8   8 1791.97 271.682  10
   5  -8   8 1014.71 289.526   4
  -5  -8  -7 19034.1 722.222   8
   5  -8   7 19793.6 774.453  10
   5  -8   7 18776.5 1136.19   4
   5  -8   7 19743.3 822.241  12
   5  -8   6 7471.83 491.441  10
   5  -8   6 6866.37 691.408   4
   5  -8   6 7992.68 532.261  12
   5  -8   5 31707.5 1430.09   4
   5  -8   4 2005.54 394.416   4
  -5  -8  -4 2775.18 512.655   1
  -5  -8  -3 2442.79 465.282   1
   5  -8   3 2093.20 391.226   4
  -5  -8  -2 4998.83 583.919   1
  -5  -8  -1 10426.8 773.827   1
  -5  -8   0 23516.3 1101.29   1
  -5  -8   1 12194.8 760.568   1
  -5  -8   2 5140.32 486.452   1
   5  -8  -6 9186.78 536.579  12
  -5  -8   6 9876.13 574.905   6
   5  -8  -7 19029.2 770.855  12
  -5  -8   7 17218.9 722.480   6
   5  -8  -8 1598.64 279.291  12
   5   8   8 1753.37 489.888   3
   5  -8  -9 4101.32 386.949  12
   5  -8 -10 11185.8 622.713  12
   5   8  10 10572.7 624.263  13
   5  -8 -11 12319.1 640.639  12
   5   8  11 12514.9 676.336  13
   5  -8 -12 5521.80 428.078  12
   5   8  12 5705.79 442.502  13
   5  -8 -13 70.9715 144.501  12
   5   8  13 275.971 163.299  13
   5  -8 -14 387.552 148.577  12
   5   8  14 509.122 152.496  13
   5  -8 -15 468.908 131.983  12
   5  -8 -15 405.045 113.083  14
   5   8  15 601.379 153.286  13
   5  -8 -16 952.454 126.580  12
   5   8  16 897.448 157.012   9
   5   8  17 1625.30 152.321   9
   5  -9   8 6216.14 462.816  10
  -5  -9  -7 7097.48 476.149   8
   5  -9   7 6762.03 517.587  12
   5  -9   7 6852.57 491.328  10
  -5  -9  -6 9131.17 535.693   8
   5  -9   6 8893.52 554.220  10
  -5  -9  -6 9781.72 870.944   1
   5  -9   6 9208.32 591.933  12
   5  -9   5 501.578 211.913  12
  -5  -9  -5 608.554 191.122   8
   5  -9   5 574.324 191.973  10
  -5  -9  -5 252.121 212.031   1
   5  -9   4 2428.69 342.427  12
   5  -9   4 2485.68 326.725  10
  -5  -9  -4 2471.03 465.172   1
  -5  -9  -4 2940.92 321.153   8
  -5  -9  -3 46029.5 1763.17   1
   5  -9   3 45025.2 1188.41  10
   5  -9   3 45163.8 1204.26  12
  -5  -9  -2 24839.1 1264.81   1
  -5  -9  -1 11551.9 836.468   1
  -5  -9   0 930.206 272.757   1
  -5  -9   1 11878.6 804.907   1
  -5  -9   2 24803.5 1096.25   1
   5  -9  -3 47182.3 1196.50  12
  -5  -9   3 46461.0 1266.10   6
   5  -9  -4 2386.87 311.183  12
  -5  -9   4 3211.78 373.357   6
   5  -9  -5 400.043 166.100  12
  -5  -9   5 386.954 170.760   6
   5  -9  -6 8967.92 558.288  12
  -5  -9   6 8749.58 560.809   6
   5  -9  -7 6488.66 482.286  12
  -5  -9   7 6083.45 460.959   6
   5  -9  -8 7134.79 511.484  12
  -5  -9   8 8523.33 520.244   6
   5  -9  -9 3938.09 383.075  12
   5  -9 -10 22326.0 867.379  12
   5   9  10 21173.8 837.763  13
   5  -9 -11 6272.94 459.429  12
   5   9  11 5717.75 436.036  13
   5  -9 -12 1746.92 259.182  12
   5   9  12 1992.71 269.584  13
   5  -9 -13 5443.27 387.307  12
   5   9  13 5152.90 383.501  13
   5  -9 -14 3973.99 302.963  12
   5   9  14 4412.82 317.016  13
   5  -9 -15 7401.50 343.757  12
   5  -9 -15 6645.97 320.104  14
   5  -9 -16 30.1022 53.2333  12
   5   9  16 40.3820 69.3976   9
   5 -10   8 1202.47 240.419  10
   5 -10   7 13253.9 687.457  10
   5 -10   7 12518.2 699.942  12
  -5 -10  -7 13114.7 655.101   8
  -5 -10  -6 7177.37 493.964   8
   5 -10   6 6951.40 512.449  10
   5 -10   6 7681.48 551.376  12
  -5 -10  -5 23942.9 886.894   8
   5 -10   5 26066.8 963.099  10
   5 -10   5 25335.9 969.777  12
  -5 -10  -4 2441.45 455.834   1
   5 -10   4 3088.74 374.209  10
  -5 -10  -4 3879.26 372.296   6
  -5 -10  -4 4029.80 390.298   8
   5 -10   4 2917.26 365.239  12
  -5 -10  -3 17872.2 1124.12   1
   5 -10   3 17454.8 790.251  10
  -5 -10  -3 17169.5 757.502   6
  -5 -10  -3 16651.7 745.957   8
   5 -10   3 16952.9 789.170  12
   5 -10   2 10651.4 634.198  12
  -5 -10  -2 10913.5 877.985   1
   5 -10   2 11745.1 643.671  10
  -5 -10  -2 11463.8 643.009   6
   5 -10   1 48889.8 1264.57  10
  -5 -10  -1 47351.1 1290.16   6
  -5 -10  -1 49423.2 1789.24   1
   5 -10   1 46670.3 1268.23  12
   5 -10   0 5177.59 455.842  12
   5 -10   0 5024.72 421.351  10
   5 -10  -1 47721.3 1274.36  12
  -5 -10   1 46710.8 1618.64   1
   5 -10  -1 49316.5 1214.84  10
  -5 -10   1 45457.8 1302.97   6
   5 -10  -2 10742.9 621.713  12
   5 -10  -2 10449.4 552.720  10
  -5 -10   2 10863.0 665.937   6
   5 -10  -3 16525.3 765.587  12
   5 -10  -3 15439.3 648.982  10
  -5 -10   3 16838.4 801.737   6
   5 -10  -4 3313.02 381.249  12
  -5 -10   4 3699.35 402.876   6
  -5 -10   5 24431.6 961.708   6
   5 -10  -5 24526.5 940.574  12
   5 -10  -6 7413.55 532.852  12
  -5 -10   6 6915.01 515.119   6
   5 -10  -7 12739.3 682.160  12
  -5 -10   7 13032.3 673.321   6
   5 -10  -8 1125.79 238.140  12
  -5 -10   8 1807.08 262.282   6
   5 -10  -9 1807.99 291.959  12
   5  10   9 1654.76 251.080  13
   5 -10 -10 4219.48 400.789  12
   5  10  10 3929.03 342.377  13
   5 -10 -11 26040.9 888.272  12
   5  10  11 21549.8 752.354  13
   5 -10 -12 494.663 182.418  12
   5  10  12 912.468 183.839  13
   5 -10 -13 3674.70 303.277  12
   5  10  13 3540.33 266.786  13
   5 -10 -14 967.522 144.365  12
   5 -10 -14 901.310 151.922  14
   5 -10 -15 653.463 105.155  12
   5  10  15 640.227 113.956   9
   5 -10 -15 673.232 105.172  14
   5 -11   7 4089.64 399.217  10
   5 -11   7 4424.51 442.089  12
   5 -11   6 2327.38 354.445  12
  -5 -11  -6 2850.33 327.032   8
   5 -11   6 2298.08 322.070  10
   5 -11   5 4171.82 415.162  10
   5 -11   5 3741.73 413.957  12
  -5 -11  -5 4313.88 404.479   8
   5 -11   4 3637.76 388.370  10
  -5 -11  -4 3405.88 346.861   6
  -5 -11  -4 4015.96 397.826   8
   5 -11   4 3910.43 414.714  12
   5 -11   3 2360.59 338.063  10
  -5 -11  -3 1643.90 275.627   6
  -5 -11  -3 1792.19 298.058   8
   5 -11   3 1701.91 304.514  12
   5 -11   2 10059.1 626.853  10
  -5 -11  -2 10269.7 611.167   6
  -5 -11  -2 9917.90 600.915   8
   5 -11   2 10392.9 645.586  12
   5 -11   1-26.2259 204.566  12
   5 -11   1 303.011 204.274  10
  -5 -11  -1 356.792 210.001   6
   5 -11   0 12112.5 654.354  10
   5 -11   0 12772.8 700.883  12
  -5 -11   0 11830.4 680.811   6
   5 -11  -1-25.7249 171.235  10
  -5 -11   1 65.7035 179.090   6
   5 -11  -1 199.435 186.787  12
   5 -11  -2 10492.3 638.673  12
   5 -11  -2 9976.14 562.202  10
  -5 -11   2 10051.6 640.652   6
   5 -11  -3 2237.38 321.009  12
   5 -11  -3 2347.57 288.943  10
  -5 -11   3 2394.54 346.351   6
   5 -11  -4 4103.79 418.763  12
  -5 -11   4 3874.72 406.360   6
   5 -11  -5 4011.09 417.727  12
  -5 -11   5 3223.91 371.492   6
   5 -11  -6 2513.61 333.833  12
  -5 -11   6 2665.85 342.766   6
   5 -11  -7 4262.99 417.639  12
  -5 -11   7 4578.36 410.590   6
   5 -11  -8 8735.80 565.625  12
   5 -11  -9 10569.1 602.128  12
   5 -11 -10 2132.37 286.818  12
   5 -11 -11 919.466 198.214  12
   5 -11 -12 7240.53 416.299  12
   5 -11 -13 525.133 131.408  12
   5  11  14 996.485 111.907   9
   5 -11 -14 1038.75 131.362  14
   5 -12   7 8622.45 544.670  10
  -5 -12  -6 2809.21 334.783   8
   5 -12   6 2823.44 348.196  10
   5 -12   6 3288.46 389.514  12
  -5 -12  -5 3268.83 352.024   8
   5 -12   5 3421.24 379.438  10
   5 -12   5 3320.33 387.565  12
  -5 -12  -4 4616.91 421.152   8
   5 -12   4 4881.64 446.827  10
  -5 -12  -4 4591.18 378.580   6
   5 -12   4 4572.53 450.952  12
   5 -12   3 104.695 184.277  12
   5 -12   3-19.5490 162.396  10
  -5 -12  -3-11.9954 133.776   6
  -5 -12  -3-4.45612 163.103   8
  -5 -12  -2 2958.97 348.960   8
   5 -12   2 3505.26 388.503  10
  -5 -12  -2 3386.40 361.485   6
   5 -12   2 3481.35 399.848  12
   5 -12   1 5095.06 444.832  10
  -5 -12  -1 4214.21 420.785   6
   5 -12   1 4467.87 439.584  12
  -5 -12  -1 4381.15 425.294   8
   5 -12   0 1759.47 310.915  12
   5 -12   0 1198.81 251.887  10
  -5 -12   0 1075.63 253.527   6
  -5 -12   0 1548.80 277.626   8
   5 -12  -1 4728.45 451.011  12
   5 -12  -1 4396.10 401.358  10
  -5 -12   1 4286.00 433.908   6
   5 -12  -2 3247.42 389.688  12
   5 -12  -2 3527.33 345.234  10
  -5 -12   2 3338.69 403.505   6
   5 -12  -3-57.2917 122.821  10
  -5 -12   3-127.039 159.882   6
   5 -12  -3 285.552 205.685  12
   5 -12  -4 4438.50 427.166  12
  -5 -12   4 4940.93 455.635   6
   5 -12  -5 3263.28 369.118  12
  -5 -12   5 3281.45 369.270   6
   5 -12  -6 2870.35 346.670  12
  -5 -12   6 2621.57 316.442   6
   5 -12  -7 8895.53 560.278  12
   5 -12  -8 8767.59 541.307  12
   5 -12  -9 1787.24 270.141  12
   5 -12 -10 596.992 172.902  12
   5 -12 -11 3742.64 303.094  12
   5 -12 -12 651.661 146.818  12
   5 -12 -13 61.6321 80.5026  12
   5 -12 -13 54.2613 70.5534  14
   5 -13   6 3617.65 371.111  12
   5 -13   5 125.606 187.046  12
   5 -13   5 356.767 188.126  10
  -5 -13  -5 196.549 157.883   8
  -5 -13  -4 5496.69 385.140   6
  -5 -13  -4 5317.16 436.203   8
   5 -13   4 5807.51 469.844  10
   5 -13   4 6204.67 487.068  12
   5 -13   3 6986.92 512.111  10
  -5 -13  -3 7166.64 468.512   6
  -5 -13  -3 6984.76 496.227   8
   5 -13   3 7216.94 530.066  12
   5 -13   2 8080.02 546.115  10
  -5 -13  -2 7618.86 509.243   6
  -5 -13  -2 7484.20 518.002   8
   5 -13   2 7649.22 557.173  12
   5 -13   1 7873.77 528.696  10
  -5 -13  -1 6873.59 495.476   6
  -5 -13  -1 6988.62 502.375   8
   5 -13   1 6955.85 531.439  12
  -5 -13   0 7996.04 528.353   8
   5 -13   0 8204.15 533.656  10
  -5 -13   0 8319.21 561.882   6
   5 -13   0 8321.96 575.702  12
   5 -13  -1 7484.55 546.637  12
   5 -13  -1 7474.17 492.730  10
  -5 -13   1 7246.99 521.263   6
  -5 -13   1 7265.21 510.371   8
   5 -13  -2 7302.85 534.794  12
  -5 -13   2 6584.54 477.414   8
  -5 -13   2 7552.26 541.359   6
   5 -13  -3 6346.61 496.046  12
  -5 -13   3 7572.38 542.453   6
   5 -13  -4 6908.09 509.089  12
  -5 -13   4 6701.65 500.433   6
   5 -13  -5 143.397 173.131  12
   5 -13  -6 3592.23 369.119  12
   5 -13  -7 547.413 185.379  12
   5 -13  -8 4648.76 375.752  12
   5 -13  -9 158.924 132.674  12
  -5 -13   9 320.350 101.602   8
   5 -13 -10 990.400 171.387  12
   5 -13 -11 1950.72 194.030  12
   5 -13 -12 530.054 104.212  14
   5 -13 -12 598.371 107.536  12
   5 -14   5 327.677 178.042  12
   5 -14   4 6236.90 456.434  12
   5 -14   3 1005.27 244.601  12
  -5 -14  -3 1007.50 210.799   8
   5 -14   3 1172.29 241.789  10
   5 -14   2 4783.85 405.248  10
   5 -14   2 4793.77 417.899  12
  -5 -14  -2 4392.16 376.660   8
  -5 -14  -1 2954.24 320.747   8
   5 -14   1 2850.81 315.511  10
   5 -14   1 3019.68 352.155  12
  -5 -14   0 4894.35 393.952   8
   5 -14   0 5088.88 432.112  12
   5 -14  -1 2240.50 314.834  12
  -5 -14   1 2788.93 316.189   8
   5 -14  -2 4603.08 405.396  12
  -5 -14   2 4318.21 362.552   8
   5 -14  -3 1184.64 254.883  12
  -5 -14   3 864.474 192.916   8
   5 -14  -4 5806.20 433.833  12
  -5 -14   4 5546.11 389.242   8
   5 -14  -5 275.417 168.001  12
  -5 -14   5 201.762 128.927   8
   5 -14  -6 1037.56 216.428  12
  -5 -14   6 653.621 155.306   8
   5 -14  -7 251.284 148.681  12
  -5 -14   7 34.2172 85.8692   8
   5 -14  -8 1565.47 205.270  12
  -5 -14   8 1507.79 151.246   8
   5 -14  -9 2047.37 213.462  12
   5 -14  -9 2149.50 193.826  14
  -5 -14   9 1661.13 143.587  10
   5 -14 -10 692.579 121.733  12
   5 -14 -10 849.213 120.694  14
   5 -14 -11 963.837 105.548  14
   5 -15   4 217.209 147.912  12
   5 -15   3 2046.49 256.364  12
  -5 -15  -2 1969.34 238.442   8
   5 -15   2 2293.66 271.907  12
  -5 -15  -1 1563.56 219.364   8
   5 -15   1 1848.91 261.654  12
   5 -15   0 541.978 188.875  12
  -5 -15   0 539.922 151.203   8
  -5 -15   1 1945.16 235.392   8
   5 -15  -1 2061.75 264.895  12
  -5 -15   2 1425.32 209.036   8
   5 -15  -2 1674.66 243.303  12
  -5 -15   3 2384.76 237.298   8
   5 -15  -3 2409.57 271.809  12
   5 -15  -4 92.1270 134.059  12
  -5 -15   4 77.4648 92.5602   8
  -5 -15   5 1006.07 147.598   8
   5 -15  -5 1644.62 220.988  12
  -5 -15   6 4186.50 234.902   8
   5 -15  -6 5166.79 331.793  12
  -5 -15   7 2008.17 182.373  10
   5 -15  -7 1502.47 132.547  14
   5 -15  -7 1768.72 190.241  12
   5 -15  -8 363.620 103.540  12
   5 -15  -9 698.678 100.242  12
  -5 -16  -2 1741.13 154.181  10
   5 -16   2 2067.33 214.584  12
   5 -16   1 291.697 125.499  12
   5 -16   0 1592.35 192.176  12
   5 -16  -1 375.292 123.576  12
   5 -16  -2 1920.92 208.630  12
   5 -16  -3-2.49355 92.6751  12
   5 -16  -4 3124.21 230.889  12
   5 -16  -5 394.073 105.695  12
  -5 -16   5 360.919 98.7596  10
   5 -16  -6 2157.63 164.940  12
   6   0   0 172056. 2422.78   2
   6   0   1 55334.9 1293.39   2
   6   0  -1 56108.1 1447.99   2
   6   0  -2 5824.67 314.398   4
   6   0  -2 5142.04 470.847   2
   6   0   2 5684.05 398.035   2
   6   0  -3 102172. 2126.56   2
   6   0  -4 28044.4 1147.94   2
   6   0  -5 94947.0 2180.92   2
   6   0  -6 1917.13 348.726   2
   6   0  -7 162753. 2992.83   2
   6   0  -8 1565.15 351.610   2
   6   0  -9 60763.5 1879.37   2
  -6   0  10 4954.25 486.656   5
   6   0 -10 4090.11 485.759   2
   6   0  11 3869.54 374.731  13
  -6   0  11 3477.42 413.474   5
  -6   0  11 3122.19 323.543   9
   6   0  12 38192.7 1147.72  13
  -6   0  12 36035.5 1110.45   9
  -6   0  12 37054.9 1226.20   5
  -6   0  13 1364.75 270.254   5
   6   0  13 1225.00 245.045  13
  -6   0  14 2888.43 321.258   5
   6   0  14 3740.27 356.489   9
   6   0  14 3605.85 367.217  13
   6   0  15 23312.6 854.408   9
   6   0  15 25649.5 904.390  13
   6   0  16 3828.23 339.820   9
   6   0  17 352.056 130.069   9
   6   0  18 1168.80 143.538   9
   6   0 -19 2141.69 159.115   7
   6   1 -19 1758.96 152.683   7
   6  -1  17 1919.45 204.872   9
   6  -1  16 10130.5 503.699   9
   6  -1  15 9838.19 532.547   9
   6  -1  14 5159.23 409.094   9
   6  -1  14 5507.21 426.030  13
  -6   1  14 4587.08 422.284   5
  -6   1  13 1877.63 310.319   5
   6  -1  13 2428.61 295.471  13
  -6   1  13 1650.57 257.191   9
  -6   1  12 176.310 202.146   5
   6  -1  12 38.8778 110.123  13
   6  -1  11 7345.29 478.261  13
   6   1 -11 6459.50 626.177   2
  -6   1  11 7608.79 627.481   5
  -6   1  11 6425.00 450.369   9
   6   1 -10 24370.0 1233.55   2
   6   1  -9 6519.80 655.510   2
   6   1  -8 40938.6 1603.84   2
   6   1  -7 36772.1 1490.04   2
   6   1  -1 7586.81 575.650   2
   6  -1   1 7399.96 478.751   2
   6  -1   0 3201.39 342.893   2
   6   1   0 3748.85 388.900   2
   6  -1  -1 9359.69 452.586   4
   6   1   1 8141.38 517.163   2
   6  -1  -1 8806.78 570.294   2
   6   1   1 8554.88 516.677   3
   6  -1  -2 5484.52 316.947   4
   6   1   2 6189.30 476.130   3
   6   1   2 5577.68 405.528   2
   6  -1  -2 5456.16 475.864   2
   6  -1  -3 49419.7 1439.24   2
   6   1   3 46732.3 1038.07   2
   6   1   3 46873.8 1362.66   3
   6  -1  -4 39164.7 1324.68   2
   6   1   4 40761.1 1340.48   3
   6  -1  -5 12149.9 770.052   2
   6   1   5 11432.4 747.977   3
   6  -1  -6 69645.2 1864.51   2
   6   1   6 71825.8 1956.30   3
   6  -1  -7 35677.1 1366.12   2
   6   1   7 39459.6 1522.35   3
   6  -1  -8 42489.7 1505.27   2
  -6  -1   9 6249.82 479.617   5
   6  -1  -9 6268.16 594.298   2
   6  -1 -10 21798.8 1068.31   2
  -6  -1  10 25175.9 939.071   5
  -6  -1  11 6876.18 502.764   5
   6   1  11 7456.64 514.100  13
  -6  -1  12-28.3072 120.528   5
   6   1  12-22.1211 147.489  13
   6   1  13 1317.80 254.937  13
   6   1  14 6084.54 484.574  13
   6   1  15 9299.06 564.431   9
   6   1  15 9430.97 573.675  13
   6   1  16 11006.1 569.615   9
   6   1  16 11339.9 589.144  13
   6   1  17 1926.26 230.507   9
   6  -1 -18 393.365 120.092   7
   6   1  18 304.025 104.230   9
   6   2 -19 1531.72 142.565   7
   6  -2  14 11129.4 569.946  13
  -6   2  14 9983.04 649.810   5
  -6   2  13 9278.23 670.929   5
  -6   2  13 8526.08 520.516   9
   6  -2  13 9812.94 539.724  13
  -6   2  12 3065.12 330.078   9
  -6   2  12 2954.01 428.443   5
   6  -2  11 20314.9 1165.04   4
   6   2 -11 17348.1 1072.02   2
   6  -2  10 21620.3 1176.36   4
   6   2 -10 19465.9 1164.47   2
   6   2  -9 14582.3 1012.39   2
   6  -2   9 14589.3 947.070   4
   6  -2   2 50580.6 1295.17   4
   6  -2   1 12542.4 620.054   4
   6   2  -1 12467.8 553.529   3
   6  -2   0 40488.3 1042.86   4
   6   2   0 39198.2 1073.29   3
   6  -2  -1 13132.5 565.107   4
   6   2   1 13420.2 688.679   3
   6   2   2 49953.8 1251.51   2
   6  -2  -2 50616.8 1038.18   4
   6   2   2 53147.7 1433.71   3
   6  -2  -2 50572.7 1389.97   2
   6   2   3 67360.5 1293.41   2
   6  -2  -3 67882.0 1105.30   4
   6  -2  -3 63880.1 1595.06   2
   6   2   3 67916.5 1720.36   3
   6  -2  -4 8612.08 613.925   2
   6   2   4 9671.60 698.759   3
   6  -2  -5 8052.49 613.985   2
   6   2   5 8738.12 688.634   3
   6  -2  -6 20869.3 988.486   2
   6   2   6 21934.5 1128.69   3
   6   2   7 15306.5 977.401   3
   6  -2  -7 13181.4 816.349   2
   6  -2  -8 1032.83 270.907   2
   6   2   8 838.073 274.174   3
   6   2   9 14890.4 1025.83   3
   6   2  11 20025.0 850.240  13
   6   2  12 2949.21 356.637  13
   6   2  13 10084.3 632.277  13
   6   2  14 10707.2 639.317  13
   6   2  15 9316.50 580.950  13
   6   2  16 67.3873 139.156   9
   6   2  16 210.634 153.300  13
   6   2  17 8847.92 465.618   9
   6  -2 -18 2466.83 200.405   7
   6   2  18 2660.13 219.848   9
   6   3 -19 761.099 98.3279   7
  -6   3  14 1051.33 261.086   5
  -6   3  13 10594.0 736.763   5
  -6   3  12 11790.6 806.330   5
   6  -3  11 3217.85 481.520   4
   6   3 -11 4415.16 586.987   2
   6  -3  10 4070.44 510.875   4
   6  -3   9 38312.1 1546.90   4
   6  -3   8 7701.24 680.645   4
   6  -3   7 25311.1 1171.02   4
   6  -3   6 413.262 192.963   4
   6  -3   5 75736.8 1871.93   4
   6  -3   4 68279.0 1708.59   4
   6  -3   3 40761.3 1262.24   4
   6   3  -2 18738.0 654.943   3
   6  -3   2 18041.2 808.909   4
   6   3  -1 672.139 170.787   3
   6  -3   1 730.582 197.872   4
   6  -3   0 170864. 2251.58   4
   6   3   0 172237. 2444.68   3
   6  -3  -1 1333.90 209.607   4
   6   3   1 1276.28 273.543   3
   6  -3  -2 17179.1 654.101   4
   6   3   2 16389.3 864.351   3
   6  -3  -3 39370.9 943.939   4
   6   3   3 37616.9 1027.38   2
   6   3   3 38413.4 1385.93   3
   6   3   4 68907.2 1940.06   3
   6   3   5 75333.0 2093.64   3
   6   3   6-180.260 199.473   3
   6   3   7 25864.3 1317.10   3
   6   3   8 8068.71 764.548   3
   6   3   9 39168.1 1698.27   3
   6   3  10 4837.59 629.827   3
   6   3  11 3352.61 380.474  13
   6  -3 -12 11447.7 559.821  14
   6   3  12 13182.1 723.308  13
   6   3  13 11460.4 676.457  13
   6   3  14 1323.58 272.065  13
   6   3  15 1005.87 224.262  13
   6   3  16 2644.85 301.125   9
   6   3  16 2719.28 311.738  13
   6  -3 -17 4594.41 301.429   7
   6   3  17 4537.30 338.181   9
   6  -3 -18 1572.60 143.703   7
   6   3  18 1670.71 178.980   9
  -6   4  14 3274.17 401.914   5
  -6   4  13 541.888 233.796   5
   6  -4  11 2206.47 408.290   4
   6  -4  10 1687.51 358.645   4
   6  -4   9 8430.30 736.101   4
   6  -4   8 30128.8 1358.03   4
   6  -4   7 5825.80 584.528   4
   6  -4   6 16661.7 944.114   4
   6  -4   5 4632.06 486.553   4
   6  -4   4 138509. 2522.46   4
   6  -4   3 18819.5 896.246   4
   6  -4   2 3425.14 386.176   4
   6   4  -2 4129.42 356.412   3
   6  -4   1 2064.62 287.959   4
   6   4  -1 1890.36 282.831   3
   6  -4   0 19789.7 817.992   4
   6   4   0 18924.8 900.736   3
   6  -4  -1 1406.58 240.190   4
   6   4   1 1473.06 316.895   3
   6  -4  -2 3397.10 324.206   4
   6   4   2 3943.30 493.530   3
   6   4   3 18365.8 1050.03   3
   6   4   4 135705. 2919.01   3
   6   4   5 4762.77 588.515   3
   6   4   6 17017.6 1110.53   3
   6   4   7 5881.62 677.276   3
   6   4   8 31917.8 1566.91   3
   6   4   9 9905.00 887.685   3
   6   4  10 1029.78 369.694   3
   6   4  12 4754.88 447.983  13
   6  -4 -13 833.465 175.776  14
   6   4  13 1041.86 257.373  13
   6   4  14 3617.52 393.742  13
   6  -4 -15 9325.85 498.763   7
   6   4  15 10947.6 618.837  13
   6  -4 -16 3168.18 271.366   7
   6   4  16 3002.96 322.077   9
   6   4  16 3526.12 340.630  13
   6   4  17 631.024 163.754   9
   6  -4 -17 423.648 110.628   7
   6   4  18 2864.43 218.568   9
  -6   5  13 1612.46 335.215   5
   6  -5  10 9174.55 794.367   4
   6  -5   9 748.333 239.144   4
   6  -5   8 4250.98 526.875   4
   6  -5   7 13682.8 913.586   4
   6  -5   6 11993.1 828.932   4
   6  -5   5 37563.7 1416.40   4
   6  -5   4 2477.00 391.341   4
   6  -5   3 12364.9 768.200   4
   6  -5   2 6965.57 559.766   4
   6  -5   1 58123.5 1543.09   4
   6  -5   0 74430.7 1684.75   4
   6  -5  -1 61758.4 1519.79   4
  -6  -5   1 60283.5 1459.59   1
  -6  -5   2 4890.57 382.402   1
   6  -5  -2 6188.28 480.958   4
   6   5   4 1266.58 358.464   3
   6   5   5 36691.2 1678.87   3
   6   5   6 10786.0 951.871   3
   6   5   7 13630.9 1071.85   3
   6   5   8 4679.14 650.833   3
   6   5   9 987.452 298.261   3
   6  -5  -9 1089.93 224.900   7
   6  -5 -10 9940.16 573.721   7
   6   5  10 8317.82 869.945   3
   6  -5 -11 2031.32 278.246   7
   6  -5 -12 4214.57 380.612   7
   6   5  12 3949.93 410.959  13
   6  -5 -13 1452.46 225.712  14
   6  -5 -13 1498.25 247.354   7
   6   5  13 1616.63 303.431  13
   6  -5 -14 784.178 176.622   7
   6  -5 -14 1004.45 191.190  14
   6   5  14 906.520 232.683  13
   6  -5 -15 14392.8 567.226   7
   6   5  15 15556.6 707.125  13
   6   5  16 2489.58 284.950  13
   6  -5 -16 2486.43 215.584   7
   6   5  16 3055.99 306.328   9
   6   5  17 6194.90 367.853   9
   6   5  18 1856.27 170.431   9
  -6   6  13 841.833 232.880   5
   6  -6   9 39251.6 1617.80   4
   6  -6   8 15415.5 1005.86   4
   6  -6   7 7121.92 684.129   4
   6  -6   6 1875.40 353.373   4
   6  -6   5 10802.3 786.826   4
   6  -6   4 8696.05 702.355   4
   6  -6   3 26546.7 1171.78   4
   6  -6   2 108146. 2296.21   4
   6  -6   1 3206.89 410.700   4
  -6  -6   0 717.349 219.294   1
   6  -6   0 1025.52 257.801   4
  -6  -6   1 2476.49 330.627   1
   6  -6  -1 2812.80 370.849   4
   6   6   6 3783.93 606.184   3
   6   6   7 7072.49 838.494   3
   6  -6  -8 13881.9 624.113   7
   6   6   8 15913.9 1215.47   3
   6  -6  -9 39631.9 1036.37  12
   6  -6  -9 43190.7 1117.93   7
   6   6   9 40354.8 1899.71   3
   6  -6 -10 19239.2 736.055  12
   6  -6 -10 20273.2 779.622   7
   6  -6 -11 748.223 189.037  12
   6  -6 -11 844.164 193.159   7
   6   6  11 518.770 201.699  13
   6  -6 -12 4095.42 346.304  12
   6  -6 -12 4829.85 380.997   7
   6   6  12 3984.87 421.285  13
   6  -6 -13 697.646 184.047  12
   6  -6 -13 743.583 175.887   7
   6   6  13 763.052 231.155  13
   6  -6 -14 31939.9 823.773  12
   6  -6 -14 31486.4 825.527   7
   6  -6 -14 31513.4 873.115  14
   6   6  14 31003.5 1020.50  13
   6  -6 -15 1902.64 200.982  14
   6   6  15 2426.09 292.202  13
   6   6  16 192.765 124.087   9
   6   6  16 29.9481 112.571  13
   6   6  17 437.746 121.304   9
   6   6  18 3995.39 203.943   9
   6  -7   8 1505.37 356.789   4
   6  -7   7 9072.89 795.234   4
   6  -7   7 8649.98 549.159  12
   6  -7   6 18842.1 1107.59   4
   6  -7   6 19915.1 796.741  12
   6  -7   5 13948.0 944.564   4
   6  -7   4 5416.59 594.861   4
   6  -7   3 4084.52 507.493   4
   6  -7   2 1030.35 280.802   4
   6  -7   1 22305.8 1088.66   4
  -6  -7  -1 22821.5 1129.46   1
  -6  -7   0 6725.79 579.433   1
  -6  -7   1 23166.6 992.232   1
   6   7   6 18110.8 1345.54   3
   6  -7  -7 8451.34 492.901  12
   6  -7  -7 8284.02 490.598   7
  -6  -7   7 8344.11 509.508   6
   6   7   7 8273.85 960.172   3
   6  -7  -8 2144.42 282.544  12
   6  -7  -8 2146.02 276.836   7
   6   7   8 2476.30 545.665   3
   6  -7  -9 12908.5 624.336  12
   6  -7  -9 13484.7 624.929   7
   6  -7 -10 7563.74 487.937  12
   6  -7 -10 8217.94 484.062   7
   6  -7 -11 6516.28 445.146  12
   6   7  11 6791.67 526.315  13
   6  -7 -12 3013.89 307.548  12
   6   7  12 2918.68 360.096  13
   6  -7 -13 39.2493 128.330  12
   6   7  13 164.978 164.494  13
   6  -7 -14 959.333 172.147  12
   6  -7 -14 855.569 169.931  14
   6   7  14 895.688 208.424  13
   6  -7 -15 4397.99 270.511  12
   6  -7 -15 4462.85 284.559  14
   6   7  15 4716.82 359.860  13
   6   7  16 1109.96 170.787   9
   6   7  16 1557.15 193.720  13
   6   7  17 1852.79 173.915   9
  -6  -8  -7 753.555 182.862   8
   6  -8   7 404.274 247.003  12
   6  -8   6 141.427 176.295  12
   6  -8   6 217.203 198.473  10
   6  -8   6 52.6969 128.451   4
  -6  -8  -6-37.7240 139.982   8
   6  -8   5-26.1676 151.399  12
   6  -8   5 625.475 199.699  10
   6  -8   5-215.635 181.475   4
  -6  -8  -5 396.447 140.341   8
   6  -8   4 17783.3 752.476  10
   6  -8   4 18401.9 1111.35   4
   6  -8   4 18303.4 762.690  12
   6  -8   3 35085.3 1505.24   4
  -6  -8  -3 39631.6 1654.76   1
  -6  -8  -2 3531.38 511.656   1
   6  -8   2 2846.33 436.486   4
  -6  -8  -1 21712.5 1120.91   1
  -6  -8   0 2223.60 356.333   1
  -6  -8   1 21740.9 1015.29   1
   6  -8  -5-95.6984 162.773  12
   6  -8  -6 267.423 166.016  12
  -6  -8   6 459.640 172.965   6
   6  -8  -7 398.015 181.813  12
  -6  -8   7 455.700 182.281   6
   6  -8  -8 26052.6 903.688  12
   6  -8  -9 31877.7 999.167  12
   6  -8 -10 179.071 142.694  12
   6  -8 -11 825.443 203.175  12
   6   8  11 989.460 238.576  13
   6  -8 -12 10633.4 541.624  12
   6   8  12 10909.6 610.877  13
   6  -8 -13 8352.54 448.002  12
   6   8  13 9301.24 533.184  13
   6  -8 -14-196.572 130.277  12
   6  -8 -14 7.23218 101.722  14
   6  -8 -15 3193.02 210.719  12
   6  -8 -15 3339.59 234.255  14
   6   8  16 1470.14 170.396   9
  -6  -9  -7 11094.6 577.570   8
   6  -9   7 10969.0 655.362  12
   6  -9   6 6569.00 499.536  10
  -6  -9  -6 6261.14 449.587   8
   6  -9   6 5799.26 486.900  12
   6  -9   5 8121.89 552.458  10
   6  -9   5 7763.03 547.050  12
  -6  -9  -5 8809.94 549.026   8
  -6  -9  -5 7647.45 797.871   1
  -6  -9  -4 41633.2 1751.79   1
   6  -9   4 43463.0 1224.02  10
  -6  -9  -4 40829.2 1106.89   8
   6  -9   4 40559.0 1184.53  12
   6  -9   3 650.621 243.341  10
  -6  -9  -3 204.338 263.110   1
   6  -9   3 509.117 223.750  12
  -6  -9  -2 10371.4 826.357   1
   6  -9   2 10834.1 610.442  10
   6  -9   2 9782.76 553.392   7
   6  -9   2 10326.0 594.872  12
   6  -9   1 15670.8 720.859  12
  -6  -9  -1 15507.9 971.463   1
   6  -9   1 16452.8 737.219  10
   6  -9   1 14964.9 670.296   7
   6  -9   0 26182.9 917.010  12
   6  -9   0 25892.8 886.000  10
  -6  -9   0 26251.9 1222.43   1
   6  -9   0 23004.5 809.035   7
   6  -9  -1 16815.9 732.789  12
  -6  -9   1 16731.9 935.774   1
   6  -9  -1 15975.7 693.427  10
   6  -9  -2 9121.96 515.053  10
   6  -9  -2 10572.6 583.597  12
   6  -9  -3 1135.98 232.274  12
   6  -9  -4 41992.1 1156.01  12
  -6  -9   4 40631.2 1234.11   6
   6  -9  -5 8337.13 540.434  12
  -6  -9   5 8781.93 603.035   6
   6  -9  -6 5764.78 460.844  12
  -6  -9   6 4746.87 428.253   6
   6  -9  -7 9649.63 574.931  12
  -6  -9   7 9996.18 587.884   6
   6  -9  -8 7539.65 508.922  12
  -6  -9   8 8175.16 506.120   6
   6  -9  -9 1947.78 276.054  12
   6  -9 -10 7374.39 487.088  12
   6   9  10 7148.25 500.148  13
   6  -9 -11 6731.79 449.289  12
   6   9  11 7185.65 484.607  13
   6  -9 -12 18368.7 683.381  12
   6   9  12 17788.6 709.065  13
   6  -9 -13 554.155 142.156  12
   6   9  13 128.336 116.631  13
   6  -9 -14 1193.53 160.225  12
   6   9  14 1428.97 182.183  13
   6  -9 -14 1288.67 175.375  14
   6  -9 -15 499.000 85.8841  12
   6  -9 -15 689.330 111.983  14
   6   9  16 1717.10 140.647   9
  -6 -10  -7 5636.17 423.341   8
   6 -10   6 788.986 259.418  12
  -6 -10  -6 1055.87 218.735   8
   6 -10   5 1997.70 325.186  12
   6 -10   5 2400.51 334.262  10
  -6 -10  -5 2561.37 291.706   6
  -6 -10  -5 1822.51 275.423   8
   6 -10   4 2231.24 333.826  12
   6 -10   4 1788.46 293.417  10
  -6 -10  -4 1544.15 264.361   6
  -6 -10  -4 1597.56 269.315   8
   6 -10   3 8373.77 575.457  12
   6 -10   3 8746.74 578.878  10
  -6 -10  -3 8216.16 550.979   6
  -6 -10  -3 8667.88 550.663   8
  -6 -10  -2 10257.8 832.094   1
   6 -10   2 10804.8 624.758  10
   6 -10   2 9635.43 611.670  12
  -6 -10  -2 9775.09 614.563   6
   6 -10   1 16585.7 779.912  12
   6 -10   1 17446.3 775.970  10
  -6 -10  -1 17810.1 1083.66   1
  -6 -10  -1 16611.1 804.421   6
   6 -10   1 16008.6 694.369   7
   6 -10   0 3083.74 357.553  12
   6 -10   0 2934.27 354.667  10
  -6 -10   0 2843.25 373.450   6
  -6 -10   0 3224.89 474.427   1
   6 -10  -1 18218.6 807.476  12
   6 -10  -1 18238.4 766.104  10
  -6 -10   1 18833.1 864.790   6
   6 -10  -2 10336.8 616.971  12
  -6 -10   2 10071.0 653.472   6
   6 -10  -3 8859.90 572.313  12
  -6 -10   3 8675.08 605.124   6
   6 -10  -4 1636.72 270.745  12
  -6 -10   4 1665.62 299.835   6
   6 -10  -5 1888.81 300.449  12
  -6 -10   5 1898.17 312.787   6
   6 -10  -6 1172.81 245.579  12
  -6 -10   6 1324.68 255.490   6
   6 -10  -7 5014.90 431.582  12
  -6 -10   7 5104.24 429.543   6
   6 -10  -8 3167.73 358.714  12
  -6 -10   8 3069.44 317.988   6
   6 -10  -9 14296.7 676.718  12
  -6 -10   9 13655.0 594.258   6
   6  10   9 13315.2 634.422  13
   6  10  10 7609.45 473.345  13
   6 -10 -10 8113.14 499.274  12
   6 -10 -11 2344.47 267.811  12
   6  10  11 1979.77 243.875  13
   6 -10 -12 2400.90 250.629  12
   6  10  12 2497.04 248.458  13
   6 -10 -13 6045.79 331.974  12
   6  10  13 5193.57 306.825  13
   6 -10 -13 6202.97 367.440  14
   6 -10 -14 1936.08 161.681  12
   6 -10 -14 2214.46 196.083  14
   6  10  14 1582.77 151.277  13
   6  10  15 661.617 96.1905   9
  -6 -11  -6 21744.9 832.838   8
   6 -11   6 21759.3 908.008  12
   6 -11   5 805.057 259.131  12
   6 -11   5 815.551 243.706  10
  -6 -11  -5 724.233 175.640   6
  -6 -11  -5 794.023 202.013   8
   6 -11   4 262.590 199.981  12
   6 -11   4 413.902 199.335  10
  -6 -11  -4 373.988 187.142   6
  -6 -11  -4 394.938 170.276   8
   6 -11   3 1086.13 268.389  12
   6 -11   3 854.230 252.058  10
  -6 -11  -3 966.774 215.356   6
  -6 -11  -3 620.999 194.616   8
   6 -11   2 8845.47 587.589  10
  -6 -11  -2 8898.09 588.475   6
  -6 -11  -2 9058.13 575.046   8
   6 -11   2 9209.76 611.573  12
   6 -11   1 2759.80 354.842  10
  -6 -11  -1 2352.39 327.826   6
   6 -11   1 2518.94 349.036  12
   6 -11   0 482.555 197.996  12
   6 -11   0 709.910 221.456  10
  -6 -11   0 890.842 230.177   6
   6 -11  -1 2918.05 364.343  12
   6 -11  -1 2616.67 319.882  10
  -6 -11   1 2502.86 351.469   6
   6 -11  -2 9706.32 610.089  12
  -6 -11   2 8674.79 606.232   6
   6 -11  -3 824.190 250.635  12
  -6 -11   3 1326.71 264.360   6
   6 -11  -4 337.439 185.354  12
  -6 -11   4 166.504 158.271   6
   6 -11  -5 936.003 238.333  12
  -6 -11   5 690.208 206.073   6
   6 -11  -6 22757.6 888.642  12
  -6 -11   6 20998.4 870.818   6
   6 -11  -7 4095.13 394.696  12
  -6 -11   7 4010.64 384.503   6
   6 -11  -8 3119.34 335.324  12
   6  11   8 2787.96 288.340  13
   6 -11  -9 1328.12 242.676  12
   6  11   9 1177.43 198.123  13
   6 -11 -10 8942.33 493.364  12
   6  11  10 6829.87 386.234  13
   6 -11 -11 564.145 156.292  12
   6  11  11 620.540 129.962  13
   6 -11 -12 178.553 103.957  12
   6 -11 -12 260.686 128.123  14
   6 -11 -13 304.753 101.467  12
   6 -11 -13 227.586 90.5207  14
   6 -11 -14 120.650 59.4914  14
   6 -12   6 682.254 225.962  12
  -6 -12  -6 377.898 164.977   8
  -6 -12  -5 2982.73 290.839   6
  -6 -12  -5 3519.47 358.501   8
   6 -12   5 3627.76 401.705  12
   6 -12   4 2001.12 321.557  12
  -6 -12  -4 2207.55 278.093   6
  -6 -12  -4 1880.31 282.565   8
  -6 -12  -3 11377.5 629.234   8
   6 -12   3 10632.7 639.820  12
   6 -12   3 11402.2 660.207  10
  -6 -12  -3 10905.0 600.537   6
   6 -12   2 8015.47 571.904  12
   6 -12   2 7966.59 554.150  10
  -6 -12  -2 7129.88 510.339   6
  -6 -12  -2 7670.63 533.891   8
   6 -12   1 1060.93 252.380  12
   6 -12   1 1659.18 283.925  10
  -6 -12  -1 1030.31 255.246   6
  -6 -12  -1 1130.96 243.333   8
  -6 -12   0 6032.14 502.867   6
   6 -12   0 6663.05 525.214  12
   6 -12  -1 1429.07 288.525  12
  -6 -12   1 1010.07 240.662   6
   6 -12  -2 8899.03 585.060  12
  -6 -12   2 8009.43 572.412   6
   6 -12  -3 10549.8 632.824  12
  -6 -12   3 10278.9 638.377   6
  -6 -12   4 2366.62 322.492   6
   6 -12  -4 2119.13 308.153  12
   6 -12  -5 3617.44 385.305  12
  -6 -12   5 3050.54 352.008   6
   6 -12  -6 418.959 193.180  12
  -6 -12   6 753.593 210.539   6
   6 -12  -7 11523.7 600.077  12
   6 -12  -8 1231.39 232.064  12
   6 -12  -9 4564.08 353.764  12
   6 -12 -10 711.888 157.216  12
   6 -12 -11 1617.14 189.117  12
   6 -12 -11 1711.92 203.728  14
   6 -12 -12 1932.38 169.398  12
   6 -12 -12 1766.89 179.999  14
   6 -12 -13 286.294 75.4885  14
   6 -13   5 163.285 187.610  12
  -6 -13  -5 80.2971 137.292   8
  -6 -13  -4 2983.89 286.601   6
  -6 -13  -4 3310.15 338.832   8
   6 -13   4 3232.72 357.098  12
  -6 -13  -3 5095.49 413.160   8
  -6 -13  -3 5145.49 386.945   6
   6 -13   3 5623.34 467.923  12
  -6 -13  -2 2253.08 281.925   6
   6 -13   2 2393.92 329.238  12
  -6 -13  -2 2078.42 294.365   8
  -6 -13  -1 5614.48 445.829   6
  -6 -13  -1 5199.86 435.032   8
   6 -13   1 5610.97 471.877  12
   6 -13   0 10284.8 620.914  12
  -6 -13   0 10908.7 618.346   6
  -6 -13   0 9842.33 579.319   8
  -6 -13   1 5464.58 450.050   6
  -6 -13   1 5304.86 440.704   8
   6 -13  -1 5166.29 447.696  12
   6 -13  -2 1677.75 299.291  12
  -6 -13   2 2194.30 307.083   6
  -6 -13   2 2056.77 301.477   8
  -6 -13   3 5272.35 444.298   6
   6 -13  -3 5371.82 448.532  12
   6 -13  -4 2580.90 319.539  12
   6 -13  -4 2747.09 264.733  14
  -6 -13   4 2978.79 337.653   6
   6 -13  -5-35.0155 149.261  12
  -6 -13   5 78.5459 149.444   6
   6 -13  -6 881.842 206.906  12
   6 -13  -7 412.945 169.409  12
   6 -13  -8 1467.98 217.597  12
   6 -13  -9 4798.53 321.738  12
   6 -13  -9 4805.18 318.690  14
   6 -13 -10 492.406 129.662  12
   6 -13 -10 533.955 122.141  14
   6 -13 -11 1115.61 131.614  12
   6 -13 -11 890.026 125.676  14
   6 -14   4 5291.23 401.117  12
  -6 -14  -3 3794.81 330.472   8
   6 -14   3 3863.14 356.435  12
  -6 -14  -2 5705.05 408.556   8
   6 -14   2 6122.26 442.314  12
   6 -14   1 3501.38 351.303  12
  -6 -14  -1 4219.99 358.912   8
   6 -14   0-113.067 170.807  12
  -6 -14   0 113.658 137.689   6
  -6 -14   0 59.3285 139.229   8
  -6 -14   1 3980.55 354.188   6
  -6 -14   1 3771.20 343.049   8
   6 -14  -1 3625.08 362.345  12
  -6 -14   2 5533.11 401.826   8
   6 -14  -2 5193.23 416.425  12
  -6 -14   3 4085.81 341.608   8
   6 -14  -3 4455.68 379.876  12
   6 -14  -4 5475.55 401.109  12
  -6 -14   4 4966.31 361.035   8
   6 -14  -5 1664.58 238.294  12
  -6 -14   5 1503.73 205.368   8
   6 -14  -5 1476.25 171.351  14
   6 -14  -6 4755.92 348.671  12
  -6 -14   6 4841.76 312.237   8
   6 -14  -6 4404.85 272.766  14
   6 -14  -7-90.1480 125.549  12
   6 -14  -7-62.0187 92.6780  14
  -6 -14   7-51.5642 97.6325   8
   6 -14  -8 3156.55 247.605  12
  -6 -14   8 2799.08 188.935   8
   6 -14  -8 2920.55 211.794  14
   6 -14  -9 561.494 115.008  12
   6 -14  -9 393.766 87.9612  14
   6 -15   3 3256.44 286.822  12
   6 -15   2 1208.38 197.513  12
  -6 -15  -2 955.578 165.905   8
   6 -15   1 43.1509 127.689  12
  -6 -15  -1 66.5033 116.555   8
   6 -15   0 715.560 176.025  12
  -6 -15   0 860.894 174.908   8
   6 -15  -1-157.809 135.973  12
  -6 -15   1-62.6338 120.557   8
   6 -15  -2 1196.64 204.143  12
  -6 -15   2 1013.10 169.945   8
  -6 -15   3 3415.22 265.026   8
   6 -15  -3 3544.31 291.380  12
   6 -15  -4 739.183 167.487  12
  -6 -15   4 666.236 137.573   8
  -6 -15   5 3357.74 223.496   8
   6 -15  -5 3542.35 267.755  12
  -6 -15   6 575.976 97.7757   8
   6 -15  -6 720.378 131.443  12
   6 -15  -7 2079.01 175.437  12
  -6 -15   7 1565.39 138.599  10
   6 -16   1 1011.82 151.068  12
   6 -16   0 3377.28 237.354  12
   6 -16  -1 964.951 144.588  12
   6 -16  -2 1014.76 145.031  12
   6 -16  -3 871.440 127.504  12
  -6 -16   4 2048.85 162.154  10
   6 -16  -4 1772.73 152.621  12
   7   0   0 170.749 138.184   2
   7   0  -1 7925.98 602.302   2
   7   0   1 8270.94 550.793   2
   7   0  -2 11559.1 748.093   2
   7   0  -3 55291.0 1679.21   2
   7   0  -4 16532.4 951.907   2
   7   0  -5 28346.6 1276.94   2
   7   0  -6 564.465 251.796   2
   7   0  -7 2196.31 402.249   2
   7   0  -8 25186.6 1269.85   2
   7   0  -9 527.691 226.009   2
  -7   0  10 4106.22 440.283   5
   7   0 -10 3876.70 499.368   2
   7   0  10 4545.27 395.260  13
  -7   0  11 26818.6 1029.23   5
   7   0  11 27128.1 952.249  13
  -7   0  12 678.123 201.308   5
   7   0  12 521.480 173.179  13
   7   0  13 3810.56 371.425  13
   7   0  14 318.812 126.313   9
   7   0  14 129.421 142.703  13
   7   0  15 13411.9 600.465   9
   7   0  15 11316.7 571.921  13
   7   0  16 3918.75 300.516   9
   7   0  17 7173.61 332.474   9
   7   0 -18 1924.32 181.701   7
   7   1 -18 2026.87 188.770   7
   7  -1  14 24327.0 838.642  13
  -7   1  13 5587.77 478.840   5
   7  -1  13 6227.23 445.811  13
  -7   1  12 3334.68 409.898   5
   7  -1  12 2828.98 304.497  13
  -7   1  11 10472.9 713.312   5
   7  -1  11 11585.3 597.776  13
   7  -1  10 20512.1 765.742  13
   7   1 -10 19208.5 1150.52   2
   7   1  -9 6801.06 705.578   2
   7   1  -8 24974.5 1305.47   2
   7   1  -7 29194.8 1402.01   2
   7   1  -6 37778.2 1560.35   2
   7   1  -5 51841.0 1785.92   2
   7   1  -4 25038.5 1215.97   2
   7   1  -3 13840.2 872.133   2
   7   1  -2 78368.4 1983.59   2
   7   1  -1 66508.2 1766.63   2
   7  -1   0 1126.71 229.722   2
   7  -1   0 974.547 173.573   4
   7   1   0 1056.21 248.643   2
   7  -1  -1 72735.1 1368.84   4
   7   1   1 69589.9 1628.01   2
   7  -1  -1 69164.6 1701.05   2
   7  -1  -2 78760.0 1317.16   4
   7   1   2 78292.0 1609.14   2
   7  -1  -2 79332.5 1881.20   2
   7  -1  -3 13813.0 826.308   2
   7   1   3 14594.8 644.369   2
   7  -1  -4 27657.6 1189.16   2
   7  -1  -5 51545.9 1663.73   2
   7  -1  -6 40823.8 1526.75   2
   7  -1  -7 28276.9 1293.87   2
   7  -1  -8 25515.9 1229.08   2
   7  -1  -9 7678.83 689.963   2
   7  -1 -10 16072.9 989.439   2
   7   1  11 11337.4 643.646  13
   7   1  12 3175.92 358.242  13
   7   1  13 6705.83 506.077  13
   7   1  14 25698.7 934.350  13
   7   1  15 1920.88 254.992   9
   7   1  15 2064.82 284.429  13
   7   1  16 1871.86 238.985   9
   7   1  16 1881.88 242.641  13
   7  -1 -17 1473.16 200.170   7
   7   1  17 1151.36 161.174   9
   7  -1 -18 1867.48 170.679   7
   7   2 -18 353.055 101.567   7
  -7   2  13 1992.48 315.171   5
  -7   2  12 4111.94 461.200   5
   7  -2  10 5401.10 615.028   4
   7   2 -10 6219.47 700.869   2
   7  -2   9 21846.7 1223.80   4
   7   2  -9 20909.2 1264.26   2
   7  -2   8 33644.1 1465.72   4
   7   2  -8 33865.4 1584.32   2
   7   2  -7 50622.2 1912.85   2
   7  -2   7 56177.3 1825.60   4
   7  -2   4 14468.3 823.545   4
   7  -2   3 22521.2 977.652   4
   7  -2   2 11623.5 676.809   4
   7  -2   1 492.982 159.499   4
   7   2   0 4263.79 465.542   2
   7  -2   0 4268.42 375.033   4
   7   2   0 4659.47 393.729   3
   7   2   1 255.507 140.357   3
   7   2   1 436.969 152.919   2
   7  -2  -2 12919.7 568.683   4
   7   2   2 11367.5 632.747   2
   7   2   2 13547.6 763.357   3
   7   2   3 20623.5 780.937   2
   7  -2  -3 21756.6 1019.78   2
   7   2   3 20812.6 1004.47   3
   7  -2  -4 15214.5 875.946   2
   7   2   4 14696.5 890.001   3
   7  -2  -5 84686.2 2103.59   2
   7   2   5 89482.0 2264.82   3
   7  -2  -6 42725.9 1533.29   2
   7   2   6 44755.4 1673.92   3
   7  -2  -7 55894.6 1786.27   2
   7   2   7 57220.9 1959.60   3
   7  -2  -9 20806.8 757.115  14
   7  -2 -10 5573.58 409.398  14
   7  -2 -11 2448.57 276.636  14
   7   2  11 2610.82 345.077  13
   7   2  12 4672.49 439.632  13
   7   2  13 2209.23 306.214  13
   7   2  14 1515.47 265.570  13
   7   2  15 199.994 156.923  13
   7  -2 -16 4932.30 364.616   7
   7   2  16 4651.95 351.279   9
   7   2  16 5038.05 373.504  13
   7  -2 -17 1294.25 182.580   7
   7   2  17 1192.35 171.894   9
   7  -2 -18 226.376 73.3339   7
   7   2  18 12.9198 56.3093   9
   7   3 -18 1160.66 140.177   7
  -7   3  13 12754.9 777.813   5
  -7   3  12 110.063 198.550   5
   7  -3  10 4757.22 595.523   4
   7   3 -10 3928.25 594.172   2
   7   3  -9 11385.6 979.717   2
   7  -3   9 12021.2 913.505   4
   7  -3   8 40344.9 1618.62   4
   7  -3   7 783.835 262.948   4
   7  -3   6 300.521 157.373   4
   7  -3   5 1657.99 340.636   4
   7  -3   4 77041.8 1939.33   4
   7  -3   3 47702.4 1462.56   4
   7  -3   2 13365.1 745.946   4
   7  -3   1 17988.4 826.263   4
   7   3  -1 18687.2 754.746   3
   7   3   0 963.958 211.910   3
   7  -3   0 1162.34 222.148   4
   7  -3  -1 17477.2 742.403   4
   7   3   1 16047.1 835.591   3
   7   3   2 11623.7 679.106   2
   7  -3  -2 11002.3 567.465   4
   7   3   2 12442.5 766.956   3
   7   3   3 44907.5 1533.85   3
   7   3   4 75556.2 2086.02   3
   7   3   5 2000.77 417.731   3
   7   3   6-310.196 234.385   3
   7   3   7 990.689 316.942   3
   7   3   8 40180.5 1735.17   3
   7  -3  -9 11964.8 596.932  14
   7   3   9 13073.9 1011.25   3
   7  -3 -10 4621.80 388.335  14
   7  -3 -11 4862.59 394.697  14
   7  -3 -12 423.553 136.087  14
   7   3  12 284.206 178.836  13
   7   3  13 14011.0 736.603  13
   7   3  14 346.235 177.645  13
   7  -3 -15 8779.15 502.603   7
   7   3  15 9092.61 545.321  13
   7  -3 -16 2239.04 252.128   7
   7   3  16 1898.82 240.739   9
   7   3  16 1745.20 239.052  13
   7  -3 -17 4226.40 266.139   7
   7   3  17 4573.08 305.133   9
   7   3  18 1069.16 124.009   9
   7   4 -18 57.9869 61.2028   7
  -7   4  13 9160.36 675.064   5
   7  -4   9 1558.70 345.205   4
   7  -4   8 6068.94 649.776   4
   7  -4   7 386.855 229.984   4
   7  -4   6 991.419 261.734   4
   7  -4   5 4632.78 525.655   4
   7  -4   4 73504.1 1950.40   4
   7  -4   3 8048.49 631.701   4
   7  -4   2 7030.91 577.741   4
   7  -4   1 12974.1 740.676   4
   7   4  -1 12851.7 682.072   3
   7   4   0 21052.9 950.994   3
   7  -4   0 20651.1 893.606   4
   7  -4  -1 14838.2 726.351   4
   7   4   1 14649.0 844.729   3
   7   4   2 8026.42 676.071   3
   7  -4  -2 7530.03 512.054   4
   7   4   3 7979.77 696.825   3
   7   4   4 74522.3 2178.91   3
   7   4   5 5212.23 608.674   3
   7   4   6 878.612 308.714   3
   7   4   7 274.578 305.039   3
   7  -4  -8 5822.65 441.362   7
   7   4   8 5832.10 696.969   3
   7   4   9 1354.70 376.409   3
   7  -4  -9 2032.64 297.512   7
   7  -4 -10 843.648 196.438  14
   7  -4 -11 4620.24 389.163  14
   7  -4 -12 1047.00 236.686   7
   7  -4 -12 770.106 189.270  14
   7   4  12 1089.90 247.842  13
   7  -4 -13 10358.9 585.991   7
   7  -4 -13 9653.79 516.970  14
   7   4  13 10236.5 628.191  13
   7  -4 -14 6172.03 436.348   7
   7   4  14 6260.25 483.365  13
   7  -4 -15 4906.96 361.941   7
   7   4  15 4844.70 403.591  13
   7  -4 -16 21386.1 631.511   7
   7   4  16 22434.2 738.854   9
   7   4  16 22399.1 744.356  13
   7  -4 -17 583.690 108.032   7
   7   4  17 722.919 140.313   9
   7   4  18 58.6956 55.3403   9
   7  -5   9 29768.4 1439.47   4
   7  -5   8 2138.15 421.836   4
   7  -5   7 16612.5 1057.58   4
   7  -5   6 1732.52 359.509   4
   7  -5   5 18110.0 1050.29   4
   7  -5   4 17379.5 993.959   4
   7  -5   3 51679.3 1642.10   4
   7  -5   2 20014.5 990.487   4
   7  -5   1 10614.0 700.700   4
   7  -5   0 25695.4 1056.09   4
   7   5   0 24398.3 1101.52   3
   7  -5  -1 10955.1 675.895   4
   7   5   1 10786.8 791.257   3
   7  -5  -2 20384.0 883.530   4
   7   5   2 21672.4 1169.87   3
   7   5   3 55610.9 1933.98   3
   7   5   4 16530.8 1106.43   3
   7   5   5 18458.4 1181.41   3
   7   5   6 1729.46 386.134   3
   7  -5  -7 15230.7 684.464   7
   7   5   7 16930.8 749.404  11
   7   5   7 16605.1 1177.43   3
   7   5   8 1474.19 386.778   3
   7  -5  -8 2044.35 284.189   7
   7  -5  -9 27117.6 940.638   7
   7   5   9 27624.0 1529.88   3
   7  -5 -10 1505.15 261.572   7
   7  -5 -11 9709.05 576.597   7
   7  -5 -11 9714.49 572.073  14
   7   5  12 569.451 199.945  13
   7  -5 -12 235.907 149.563   7
   7  -5 -12 736.562 190.121  14
   7  -5 -13 6778.07 451.642   7
   7  -5 -13 6917.13 443.070  14
   7   5  13 6952.43 523.087  13
   7  -5 -14 4271.21 346.031   7
   7  -5 -14 3946.40 306.942  14
   7   5  14 4763.81 420.065  13
   7  -5 -15 379.669 122.995   7
   7   5  15 433.752 176.943  13
   7  -5 -16 1809.20 174.591   7
   7   5  16 2093.02 240.675   9
   7   5  16 1963.43 236.788  13
   7   5  17 177.582 98.4084   9
   7  -6   8 1466.28 316.559   4
   7  -6   7 1329.38 317.491   4
   7  -6   6 32445.9 1454.75   4
   7  -6   6 31436.0 948.699  12
   7  -6   5 5096.74 575.290   4
   7  -6   4 1097.40 279.576   4
   7  -6   3 1015.15 312.538   4
   7  -6   2 16292.9 945.198   4
   7  -6   1 15480.6 902.578   4
  -7  -6   0 1697.95 336.237   1
   7   6   0 2536.40 409.021   3
   7  -6  -1 15565.7 857.354   4
   7   6   1 15193.5 999.483   3
   7   6   2 17497.4 1121.86   3
   7   6   3 1728.87 442.612   3
   7   6   4 1658.40 450.153   3
   7   6   5 6184.06 799.848   3
   7  -6  -6 33940.8 1007.14   7
   7   6   6 35623.1 1071.48  11
   7   6   6 35830.9 1759.78   3
   7   6   7 2565.09 501.362   3
   7  -6  -7 910.892 213.632   7
   7   6   8 444.181 294.749   3
   7  -6  -8 1235.70 244.590   7
   7  -6  -9 4691.30 409.484   7
   7  -6 -10 25875.2 913.297   7
   7  -6 -11 3895.51 370.947   7
   7  -6 -12 539.716 192.642   7
   7   6  12 452.297 202.011  13
   7  -6 -12 246.934 165.925  14
   7   6  13 1075.56 235.932  13
   7  -6 -13 1025.06 191.308   7
   7  -6 -13 1222.43 203.691  14
   7  -6 -14 2435.16 239.861   7
   7  -6 -14 2379.87 242.436  14
   7   6  14 2797.56 319.868  13
   7  -6 -15 1328.54 168.190   7
   7  -6 -15 1229.47 155.728  14
   7   6  15 1104.86 212.967  13
   7   6  16 114.057 100.491   9
   7   6  16 92.2364 96.4848  13
   7   6  17 1151.97 138.232   9
   7  -7   7 5071.68 607.189   4
   7  -7   6 488.389 205.576  12
   7  -7   6-241.807 178.846   4
   7  -7   5 327.646 236.148   4
   7  -7   5 203.472 155.507  12
   7  -7   4 12014.1 636.943   7
   7  -7   4 11903.7 899.326   4
   7  -7   3 41326.5 1607.10   4
   7  -7   2 59067.1 1886.12   4
   7  -7   1 13270.4 891.277   4
  -7  -7  -1 11782.1 821.806   1
  -7  -7   0 1003.06 266.973   1
   7   7   3 44634.2 1921.98   3
   7   7   4 12977.9 1089.48   3
   7  -7  -5 50.3775 124.910   7
   7   7   5-104.195 120.258  11
   7  -7  -6 368.404 130.876   7
   7   7   6 496.881 332.894   3
   7   7   7 4383.05 683.874   3
   7  -7  -7 4962.07 400.033   7
  -7  -7   7 4350.85 383.469   6
   7  -7  -8 3598.40 346.024   7
   7  -7  -9 17294.5 731.123   7
   7  -7 -10 20117.3 769.336   7
   7   7  11 1009.79 244.655  13
   7  -7 -11 870.049 187.397   7
   7  -7 -12 2632.54 275.015   7
   7  -7 -12 2876.06 317.669  14
   7   7  12 3453.20 375.844  13
   7  -7 -13 10402.2 464.831   7
   7  -7 -13 10181.2 527.638  14
   7   7  13 9175.42 552.448  13
   7  -7 -14 16602.6 586.355  14
   7   7  14 16146.1 665.943  13
   7  -7 -15 3238.74 219.634  14
   7   7  15 3727.66 297.949  13
   7   7  16 353.662 103.359   9
  -7  -8  -6 3812.89 338.276   8
   7  -8   6 4685.36 443.139  12
   7  -8   5 9317.11 830.033   4
  -7  -8  -5 9250.09 515.739   8
   7  -8   5 9639.78 597.673  12
   7  -8   4 38658.2 1642.03   4
  -7  -8  -4 36663.3 1662.09   1
   7  -8   4 36583.1 1084.34  12
  -7  -8  -4 38242.7 1032.34   8
   7  -8   3 15629.9 1035.15   4
  -7  -8  -3 15321.1 1066.67   1
   7  -8   3 15405.2 728.329   7
   7  -8   3 15625.7 707.572  12
   7  -8   2 1487.37 262.933  12
   7  -8   2 1091.05 263.412   7
   7  -8   2 2012.92 411.993   4
  -7  -8  -2 627.155 299.089   1
   7  -8   1 3880.74 384.085  12
  -7  -8  -1 4456.77 530.199   1
   7  -8   1 5113.78 420.031   7
   7  -8   0 31604.0 957.755  12
   7  -8   0 32219.9 986.253   7
   7  -8  -1 4981.51 398.167  12
   7  -8  -1 4605.04 388.850   7
   7  -8  -2 1657.21 246.154  12
   7  -8  -2 1639.09 262.562   7
   7  -8  -3 15142.2 675.709   7
   7  -8  -3 15753.1 670.025  12
   7   8   3 13411.4 624.918  11
   7  -8  -4 36492.0 1044.22   7
   7  -8  -4 36717.5 1021.59  12
   7   8   4 34178.1 1023.24  11
   7   8   4 35542.2 1823.59   3
   7  -8  -5 9052.15 527.270  12
   7  -8  -5 8162.14 506.887   7
   7   8   5 8806.46 933.306   3
   7  -8  -6 3393.54 341.119  12
   7  -8  -6 3606.74 350.783   7
  -7  -8   6 3717.09 392.684   6
   7  -8  -7 11269.4 590.301  12
   7  -8  -7 11116.4 583.939   7
  -7  -8   7 11645.3 627.496   6
   7  -8  -8 14205.1 647.873  12
   7  -8  -8 14081.0 643.352   7
  -7  -8   8 13838.8 643.068   6
   7  -8  -9 3693.09 347.115  12
   7  -8  -9 3486.10 324.544   7
   7  -8 -10 1504.84 233.131  12
   7  -8 -11 7345.09 440.821  12
   7   8  11 7225.77 514.863  13
   7  -8 -12 13695.5 547.532  12
   7  -8 -12 13683.1 632.285  14
   7   8  12 13435.6 653.260  13
   7  -8 -13 756.692 175.415  14
   7   8  13 876.867 193.027  13
   7  -8 -14 357.099 110.638  14
   7   8  14 281.296 129.297  13
   7  -8 -15 3673.18 211.564  14
   7   8  15 4240.39 275.648  13
   7   8  16 5779.66 268.440   9
  -7  -9  -7 8738.20 490.909   8
  -7  -9  -6 3906.45 352.859   8
   7  -9   6 4429.22 434.445  12
   7  -9   5 425.827 224.944  12
  -7  -9  -5 119.890 127.838   8
  -7  -9  -4 847.168 201.329   8
   7  -9   4 1083.24 243.227  12
  -7  -9  -3 8746.61 785.555   1
   7  -9   3 11395.7 643.003  12
   7  -9   2 1146.50 253.703  12
   7  -9   2 977.362 222.730   7
  -7  -9  -2 1198.82 304.282   1
  -7  -9  -1 19116.7 1058.77   1
   7  -9   1 20675.9 825.152   7
   7  -9   1 21034.0 843.061  12
   7  -9   0-112.805 178.683  12
   7  -9   0 11.3953 162.489   7
   7  -9  -1 20410.0 812.545  12
   7  -9  -1 20368.2 797.545   7
   7  -9  -2 974.068 218.819  12
   7  -9  -2 1200.17 238.487   7
   7  -9  -3 10271.2 586.982  12
   7  -9  -3 10781.6 580.100   7
   7  -9  -4 918.390 224.140  12
   7  -9  -4 581.011 182.171   7
  -7  -9   4 666.949 222.841   6
   7  -9  -5 29.8450 134.310  12
   7  -9  -5 3.23775 116.403   7
   7  -9  -6 4246.91 387.015  12
  -7  -9   6 3778.05 393.112   6
   7  -9  -7 9322.15 547.065  12
  -7  -9   7 9161.62 566.270   6
   7  -9  -8 30215.4 950.139  12
  -7  -9   8 29787.4 943.584   6
   7  -9  -9-56.0799 153.078  12
   7  -9 -10 479.557 160.676  12
   7   9  10 701.189 197.783  13
   7  -9 -11 4523.17 332.843  12
   7   9  11 3743.53 355.215  13
   7  -9 -12 5154.18 324.779  12
   7   9  12 5523.36 391.992  13
   7  -9 -12 5814.93 400.850  14
   7  -9 -13 4105.94 248.106  12
   7  -9 -13 4474.07 320.179  14
   7   9  13 4962.49 336.975  13
   7  -9 -14 153.635 95.0980  14
   7   9  14 137.773 84.4392  13
   7   9  15 892.547 124.311   9
  -7 -10  -7 14230.1 632.848   8
  -7 -10  -6 9395.24 538.759   8
   7 -10   6 9866.18 615.697  12
  -7 -10  -5 5657.43 425.838   6
  -7 -10  -5 6637.21 459.903   8
  -7 -10  -4 5294.06 447.737   6
  -7 -10  -4 5828.38 443.729   8
   7 -10   4 5456.01 469.423  12
   7 -10   3 1260.97 255.449  12
  -7 -10  -3 1201.10 250.203   6
  -7 -10  -3 1218.56 239.083   8
   7 -10   2 2324.50 333.559  12
  -7 -10  -2 2474.09 355.795   6
  -7 -10  -1 3227.84 393.890   6
   7 -10   1 2923.15 325.595   7
   7 -10   1 3473.22 394.088  12
   7 -10   0 1500.90 277.614  12
   7 -10   0 1645.10 254.933   7
  -7 -10   0 1881.43 324.947   6
   7 -10  -1 3018.32 352.291  12
  -7 -10   1 2956.87 384.713   6
   7 -10  -1 3371.37 347.116   7
   7 -10  -2 2605.42 339.349  12
   7 -10  -2 2591.58 293.804   7
  -7 -10   2 2871.83 377.778   6
   7 -10  -2 2532.65 279.394  14
   7 -10  -3 1462.18 265.970  12
  -7 -10   3 1102.94 261.795   6
   7 -10  -4 4995.42 428.036  12
  -7 -10   4 5611.80 491.473   6
   7 -10  -5 7539.85 521.087  12
  -7 -10   5 6789.77 524.591   6
   7 -10  -6 9641.72 567.534  12
  -7 -10   6 9704.04 601.992   6
   7 -10  -7 14802.1 683.329  12
  -7 -10   7 15290.0 708.344   6
   7 -10  -8 1679.19 254.025  12
  -7 -10   8 1240.89 222.937   6
   7 -10  -9 4702.77 378.612  12
   7  10   9 4173.19 365.259  13
   7  10  10 3500.01 318.520  13
   7 -10 -10 3589.59 317.938  12
   7 -10 -11 5257.07 338.440  12
   7 -10 -11 5321.39 390.799  14
   7  10  11 4807.33 345.826  13
   7 -10 -12 213.146 92.7871  12
   7 -10 -12 249.970 128.906  14
   7  10  12 113.918 98.2714  13
   7 -10 -13 76.4455 95.4473  14
   7  10  13 194.645 89.8703  13
   7 -10 -14 47.7682 59.1950  14
  -7 -11  -6 1101.55 208.751   8
   7 -11   5 869.915 245.268  12
  -7 -11  -5 1018.58 200.174   6
  -7 -11  -5 900.645 211.885   8
   7 -11   4 610.744 235.346  12
  -7 -11  -4 612.404 184.144   6
  -7 -11  -4 758.984 203.844   8
  -7 -11  -3 697.112 190.551   6
  -7 -11  -3 572.367 200.073   8
   7 -11   3 599.230 204.988  12
  -7 -11  -2 21313.1 891.016   6
  -7 -11  -2 22926.6 891.359   8
   7 -11   2 23560.4 933.752  12
   7 -11   1 1392.43 262.603  12
  -7 -11  -1 1689.10 310.589   6
   7 -11   0 666.554 235.656  12
  -7 -11   0 975.067 236.918   6
   7 -11  -1 1664.45 284.340  12
  -7 -11   1 1244.55 268.838   6
   7 -11  -2 23446.4 915.685  12
  -7 -11   2 22366.7 951.584   6
   7 -11  -3 470.239 190.561  12
  -7 -11   3 510.008 216.951   6
   7 -11  -3 447.903 147.772  14
   7 -11  -4 957.256 239.611  12
  -7 -11   4 999.842 241.212   6
   7 -11  -5 591.466 196.885  12
  -7 -11   5 661.078 196.930   6
   7 -11  -6 1255.67 249.032  12
  -7 -11   6 1148.10 221.940   6
   7 -11  -7 5535.78 421.378  12
  -7 -11   7 4944.36 401.202   6
   7 -11  -8 928.951 198.432  12
  -7 -11   8 1300.49 215.606   6
   7  11   8 1152.06 195.368  13
   7 -11  -9 493.023 146.438  12
   7  11   9 644.937 149.966  13
   7 -11 -10 5285.65 343.556  12
   7 -11 -10 5581.97 388.218  14
   7  11  10 4387.61 299.244  13
   7 -11 -11 805.483 142.470  12
   7  11  11 920.585 137.033  13
   7 -11 -12 2535.47 181.226  12
   7 -11 -12 2830.17 238.523  14
   7 -11 -13 660.620 111.939  14
  -7 -12  -5 3289.56 286.152   6
  -7 -12  -5 2807.06 305.938   8
   7 -12   5 2961.41 342.608  12
   7 -12   4 826.794 236.938  12
  -7 -12  -4 1123.90 207.827   6
  -7 -12  -4 866.878 214.381   8
  -7 -12  -3 9087.67 546.878   8
  -7 -12  -3 8432.52 527.625   6
   7 -12   3 9661.75 597.909  12
  -7 -12  -2 7177.36 503.173   6
  -7 -12  -2 6700.92 488.637   8
   7 -12   2 7695.16 544.646  12
  -7 -12  -1 13367.9 696.065   6
  -7 -12  -1 13223.5 673.090   8
   7 -12   1 13460.0 704.811  12
   7 -12   0-42.5950 202.853  12
  -7 -12   0-59.9554 165.470   6
  -7 -12   0-37.2915 160.543   8
  -7 -12   1 13373.2 718.124   6
   7 -12  -1 13309.6 696.072  12
   7 -12  -2 7349.60 524.651  12
  -7 -12   2 7476.72 550.165   6
   7 -12  -3 8939.94 560.496  12
  -7 -12   3 9152.50 596.254   6
   7 -12  -3 8218.44 448.736  14
   7 -12  -4 995.175 217.748  12
  -7 -12   4 1312.15 258.569   6
   7 -12  -4 1297.29 212.511  14
   7 -12  -5 3207.18 336.861  12
  -7 -12   5 2759.96 332.035   6
   7 -12  -5 2941.87 295.342  14
   7 -12  -6 462.094 184.648  12
   7 -12  -6 847.730 184.526  14
  -7 -12   6 811.985 202.375   6
   7 -12  -7 702.282 182.228  12
  -7 -12   7 421.482 147.203   6
   7 -12  -7 571.661 169.302  14
   7 -12  -8 440.140 142.148  12
   7 -12  -8 712.209 171.802  14
   7 -12  -9 2385.11 238.585  12
   7 -12  -9 2265.83 242.449  14
   7 -12 -10 1560.23 180.214  12
   7 -12 -10 1310.83 188.670  14
   7 -12 -11 3602.34 212.106  12
   7 -12 -11 3846.23 257.708  14
   7 -12 -12 158.329 80.1910  14
  -7 -13  -4 7165.96 399.703   6
  -7 -13  -4 6866.92 436.205   8
  -7 -13  -3 2572.24 283.617   8
  -7 -13  -3 2339.11 262.237   6
   7 -13   3 2686.54 324.066  12
   7 -13   2 354.944 187.178  12
  -7 -13  -2 673.535 164.383   6
  -7 -13  -2 414.881 168.577   8
   7 -13   1 449.048 198.588  12
  -7 -13  -1 320.524 162.244   6
  -7 -13  -1 270.239 147.533   8
  -7 -13   0 4834.43 414.464   6
  -7 -13   0 5455.54 432.192   8
   7 -13   0 5212.05 434.872  12
   7 -13  -1 614.414 224.726  12
  -7 -13   1 334.572 171.846   6
  -7 -13   1 280.605 173.699   8
   7 -13  -2 684.847 203.502  12
  -7 -13   2 714.454 197.193   6
  -7 -13   2 925.370 216.354   8
   7 -13  -3 2165.62 291.424  12
  -7 -13   3 2984.69 334.658   6
   7 -13  -4 7479.74 476.451  12
  -7 -13   4 7664.46 490.427   6
   7 -13  -4 7126.28 374.784  14
   7 -13  -5 4219.80 356.518  12
  -7 -13   5 4439.02 364.818   6
   7 -13  -5 4250.80 300.520  14
   7 -13  -6 833.509 179.176  12
   7 -13  -6 693.249 147.253  14
   7 -13  -7 3340.99 284.084  12
   7 -13  -7 3357.54 263.734  14
   7 -13  -8 5823.00 335.526  12
   7 -13  -8 5430.71 320.386  14
   7 -13  -9 2134.65 191.744  12
   7 -13  -9 2313.78 202.524  14
  -7 -13   9 2070.87 176.952   8
   7 -13 -10 66.9582 71.9634  12
   7 -13 -10 158.729 80.7039  14
   7 -13 -11 1330.41 116.682  14
   7 -14   3 2303.80 267.130  12
  -7 -14  -3 2783.97 270.518   8
   7 -14   2 777.226 194.997  12
  -7 -14  -2 805.188 180.359   8
   7 -14   1 167.065 163.793  12
  -7 -14  -1 238.319 130.700   6
  -7 -14  -1 248.323 130.761   8
   7 -14   0 1714.71 246.315  12
  -7 -14   0 1501.58 222.916   6
  -7 -14   0 1689.40 236.827   8
   7 -14  -1 275.837 164.695  12
  -7 -14   1 144.392 125.732   6
  -7 -14   1 134.669 118.466   8
   7 -14  -2 619.920 177.651  12
  -7 -14   2 571.526 164.403   8
  -7 -14   3 2509.49 257.080   8
   7 -14  -3 2351.58 263.193  12
  -7 -14   4 3184.47 278.213   8
   7 -14  -4 2897.50 279.537  12
  -7 -14   5 6872.47 375.417   8
   7 -14  -5 6762.32 380.739  12
   7 -14  -6 1535.29 144.251  14
   7 -14  -6 1691.86 200.284  12
  -7 -14   6 1444.46 173.965   8
   7 -14  -7 1858.50 155.351  14
  -7 -14   7 2341.31 189.991   8
   7 -14  -7 2254.16 201.298  12
   7 -14  -8 480.413 95.4129  12
  -7 -14   8 340.823 71.1059   8
   7 -14  -8 384.966 75.0495  14
   7 -15   2 1194.08 171.629  12
  -7 -15  -1 4105.74 280.904   8
   7 -15   1 3894.83 283.624  12
   7 -15   0 70.3473 110.214  12
  -7 -15   0-64.4652 96.3158   8
  -7 -15   1 4258.37 284.442   8
   7 -15  -1 4286.81 294.314  12
   7 -15  -2 1055.27 171.050  12
  -7 -15   2 1282.25 169.163   8
  -7 -15   3 2305.91 203.993   8
   7 -15  -3 2112.42 206.974  12
  -7 -15   4 1707.87 169.395   8
   7 -15  -4 1654.62 174.451  12
  -7 -15   5 1376.14 137.546   8
   7 -15  -5 1606.17 160.899  12
   7 -15  -6 243.720 72.8194  12
   7 -16  -1 435.941 88.7328  12
   8   0   0 96449.9 2090.65   2
   8   0  -1 1720.42 319.500   2
   8   0   1 1159.53 241.716   2
   8   0  -2 25839.1 1183.35   2
   8   0  -3 75282.6 2073.90   2
   8   0  -4 18951.2 1079.29   2
   8   0  -5 1039.83 285.323   2
   8   0  -6 33628.3 1500.57   2
   8   0  -7 11721.6 902.476   2
   8   0   8 71.3909 103.490  11
   8   0  -8-29.6807 201.456   2
   8   0  -9 13270.3 949.391   2
   8   0  -9 11426.5 565.409  14
   8   0  10 745.013 182.085  13
   8   0  11 419.279 150.401  13
   8   0  12 34127.0 1056.82  13
   8   0  13 2638.29 307.349  13
   8   0  14-166.648 110.357   9
   8   0  14 135.989 109.831  13
   8   0  15 5397.18 367.326  13
   8   0 -16 5867.96 386.720   7
   8   0 -17 1770.82 197.234   7
   8   0 -18 1970.91 147.970   7
   8   1 -18 1890.03 150.102   7
   8   1 -17 818.209 148.148   7
   8  -1  14 3710.93 313.479  13
   8  -1  13 1171.11 202.021  13
   8  -1  12 4862.15 387.869  13
  -8   1  11 222.767 146.888   5
   8  -1  11 372.107 134.541  13
   8   1  -9 9362.98 848.649   2
   8   1  -8 28864.8 1460.91   2
   8   1  -7 7360.29 764.141   2
   8   1  -6 23553.7 1296.74   2
   8   1  -5 10575.3 855.106   2
   8   1  -4 54528.9 1876.88   2
   8   1  -3 5607.18 603.072   2
   8   1  -2 38292.5 1479.79   2
   8  -1   1 769.337 222.272   4
   8   1  -1 842.849 258.701   2
   8  -1   0 10371.5 597.796   4
   8   1   0 9831.68 695.142   2
   8  -1  -1 457.726 137.690   4
   8   1   1 448.013 176.628   2
   8  -1  -1 462.684 225.616   2
   8  -1  -2 34760.8 1340.90   2
   8   1   2 35585.2 1162.67   2
   8  -1  -3 5266.08 544.092   2
   8  -1  -4 52301.6 1741.28   2
   8  -1  -5 12210.2 869.656   2
   8  -1  -6 23818.0 1234.63   2
   8  -1  -7 7112.47 691.941   2
   8   1   8 26465.9 904.223  11
   8  -1  -8 26156.2 1315.37   2
   8  -1  -8 25739.0 856.209  14
   8  -1  -9 9383.02 527.499  14
   8  -1  -9 9416.96 802.785   2
   8  -1 -10 17739.3 715.849  14
   8   1  11-34.7706 149.726  13
   8   1  12 5271.16 440.463  13
   8   1  13 796.829 200.589  13
   8   1  14 3552.03 344.706  13
   8  -1 -15 950.774 213.129   7
   8   1  15 685.448 153.542   9
   8   1  15 791.350 167.087  13
   8  -1 -16 9788.30 479.110   7
   8   1  16 9008.50 392.558   9
   8  -1 -17 577.186 126.972   7
   8  -1 -18 1741.04 133.142   7
   8   2 -18 540.240 82.3047   7
   8   2 -17 166.293 102.430   7
  -8   2  12 1189.69 258.319   5
   8  -2   9 19143.6 1175.22   4
   8   2  -9 19168.3 1214.72   2
   8  -2   8 8345.55 775.674   4
   8   2  -8 7309.00 770.847   2
   8  -2   7 9097.91 785.818   4
   8   2  -7 9570.48 887.009   2
   8  -2   6 29678.5 1361.78   4
   8   2  -6 30281.5 1531.08   2
   8  -2   5 3763.05 492.138   4
   8   2  -5 4136.38 579.852   2
   8  -2   4 7756.67 653.389   4
   8   2  -4 8332.57 773.386   2
   8  -2   3 74607.4 1912.89   4
   8   2  -3 67584.3 2092.64   2
   8  -2   2 46702.8 1440.33   4
   8   2  -2 43110.4 1625.02   2
   8  -2   1 8512.52 591.134   4
   8   2  -1 7846.50 675.679   2
   8  -2   0 1905.24 279.510   4
   8   2   0 1869.43 351.367   2
   8  -2  -1 8074.54 524.668   4
   8   2   1 7805.41 600.800   2
   8   2   2 43515.3 1317.44   2
   8   2   8 8521.35 537.368  11
   8  -2  -8 7705.37 492.525  14
   8  -2  -9 18239.2 749.788  14
   8  -2 -10 14894.7 678.409  14
   8  -2 -11 931.263 197.319  14
   8   2  11 1267.27 254.539  13
   8   2  12 1330.33 263.746  13
   8   2  13 7716.62 531.354  13
   8  -2 -14 6437.37 457.962   7
   8   2  14 6288.54 453.159  13
   8  -2 -15 3556.83 333.723   7
   8   2  15 3243.72 294.841   9
   8   2  15 3457.75 320.435  13
   8   2  16 1508.92 184.792   9
   8  -2 -16 1383.87 200.727   7
   8   2  16 1337.89 195.308  13
   8  -2 -17 139.683 95.6198   7
   8   2  17 115.119 62.0851   9
   8   3 -17 2483.93 200.694   7
  -8   3  12 1536.39 322.667   5
   8  -3   9 2940.28 493.729   4
   8   3  -9 3502.88 564.916   2
   8  -3   8 26033.5 1364.37   4
   8   3  -8 24681.4 1448.49   2
   8   3  -7 15297.2 1142.91   2
   8  -3   7 16767.6 1066.94   4
   8   3  -6 13221.2 1046.62   2
   8  -3   6 13715.6 939.290   4
   8  -3   5 28533.6 1303.46   4
   8  -3   4 24389.2 1156.79   4
   8  -3   3 9064.34 696.732   4
   8  -3   2 25989.1 1103.28   4
   8   3  -1 22778.4 1175.47   2
   8  -3   1 24980.3 1042.58   4
   8   3   0 3597.91 477.111   2
   8  -3   0 3799.81 402.245   4
   8   3   1 21953.5 1048.17   2
   8  -3  -1 21574.9 872.442   4
   8   3   1 22190.2 997.123   3
   8   3   2 24067.0 1009.06   2
   8   3   2 24495.3 1118.71   3
   8   3   3 9222.26 727.067   3
   8   3   4 24729.5 1228.17   3
   8   3   5 25316.2 1302.53   3
   8   3   6 13825.5 988.621   3
   8  -3  -7 16158.2 724.602   7
   8   3   7 16515.9 731.066  11
   8  -3  -7 15985.7 700.881  14
   8   3   7 15598.1 1099.61   3
   8  -3  -8 24726.0 917.272   7
   8   3   8 25017.3 939.636  11
   8  -3  -8 22686.9 846.109  14
   8  -3  -9 3552.66 385.203   7
   8  -3  -9 3450.21 357.326  14
   8  -3 -10 1840.14 294.965   7
   8  -3 -10 2062.64 288.649  14
   8  -3 -11 771.022 224.795   7
   8  -3 -11 695.987 180.729  14
   8  -3 -12 1004.08 191.628  14
   8  -3 -12 1003.13 255.149   7
   8   3  12 933.256 236.781  13
   8  -3 -13 3457.35 364.173   7
   8   3  13 3208.90 360.386  13
   8  -3 -14 5455.34 416.876   7
   8   3  14 5322.78 428.133  13
   8  -3 -15 7231.04 430.672   7
   8   3  15 7132.53 448.102  13
   8  -3 -16 3924.79 284.679   7
   8   3  16 3643.10 274.584   9
   8   3  16 3549.07 285.252  13
   8  -3 -17 2439.85 181.344   7
   8   3  17 2160.26 170.309   9
   8   4 -17 551.714 101.762   7
   8   4  -8 13308.8 1092.88   2
   8  -4   8 13461.5 982.934   4
   8  -4   7 2296.54 422.346   4
   8  -4   6 1935.88 399.230   4
   8  -4   5 2269.41 394.892   4
   8  -4   4 25802.2 1227.21   4
   8  -4   3 3702.63 455.868   4
   8  -4   2 14246.3 853.317   4
   8  -4   1 47274.1 1473.38   4
   8  -4   0 4043.33 414.307   4
   8   4   1 43227.9 1521.93   2
   8  -4  -1 46767.0 1356.28   4
   8   4   1 47205.7 1518.76   3
   8   4   2 12967.8 856.329   3
   8   4   3 3785.55 513.621   3
   8   4   4 25877.6 1314.71   3
   8   4   5 2648.39 469.443   3
   8   4   6 1634.06 392.233   3
   8   4   6 1928.14 280.477  11
   8  -4  -6 1678.78 258.342   7
   8  -4  -6 1524.05 250.347  14
   8   4   7 2215.51 407.964   3
   8   4   7 1881.47 284.278  11
   8  -4  -7 1914.24 276.369   7
   8  -4  -7 2260.90 288.146  14
   8  -4  -8 13784.7 695.034   7
   8  -4  -8 14189.7 693.073  14
   8   4   8 13629.1 1053.51   3
   8  -4  -9 6077.12 478.315   7
   8  -4  -9 5527.49 451.186  14
   8  -4 -10 6167.82 483.087   7
   8  -4 -10 6017.61 456.748  14
   8  -4 -11 2992.17 348.638   7
   8  -4 -11 2899.85 330.660  14
   8  -4 -12 1618.24 270.256   7
   8  -4 -12 1687.99 247.105  14
   8   4  12 1412.84 270.282  13
   8  -4 -13 4541.72 396.193   7
   8  -4 -13 3912.48 329.662  14
   8   4  13 4632.01 419.403  13
   8  -4 -14 5475.26 397.022   7
   8   4  14 5501.58 434.208  13
   8  -4 -15 2463.10 252.020   7
   8   4  15 2706.92 288.170  13
   8  -4 -16 869.029 142.325   7
   8   4  16 704.290 147.652   9
   8   4  16 986.455 163.399  13
   8   4  17 308.085 85.3331   9
   8   5 -16 154.588 83.2716   7
   8  -5   7 10044.0 851.238   4
   8  -5   6 2822.04 453.098   4
   8  -5   5 47870.5 1756.72   4
   8  -5   5 48447.8 1260.79   7
   8  -5   4 4562.74 554.669   4
   8  -5   3 1910.98 360.881   4
   8  -5   2 3953.72 478.761   4
   8  -5   1 20375.8 1020.39   4
   8  -5   0 23063.7 1049.90   4
   8  -5  -1 19833.3 949.854   4
   8   5   1 18731.6 1017.87   3
   8   5   2 3266.01 497.410   3
   8   5   3 1996.68 428.896   3
   8   5   4 5577.30 631.801   3
   8  -5  -5 47006.9 1217.34   7
   8   5   5 47590.9 1892.19   3
   8   5   5 46993.5 1233.13  11
   8  -5  -5 46867.3 1194.21  14
   8   5   6 4159.27 583.078   3
   8  -5  -6 3518.12 370.870   7
   8   5   6 4481.77 412.884  11
   8  -5  -6 3244.41 354.886  14
   8  -5  -7 9252.57 571.483   7
   8   5   7 10145.9 617.744  11
   8  -5  -7 8828.06 561.831  14
   8   5   7 10502.6 950.471   3
   8  -5  -8 984.250 247.705   7
   8  -5  -8 1194.72 245.247  14
   8  -5  -9 17482.1 789.900   7
   8  -5  -9 17771.0 791.420  14
   8  -5 -10 7176.35 512.208   7
   8  -5 -10 6698.56 491.842  14
   8  -5 -11 15800.8 733.246   7
   8  -5 -11 15415.1 709.876  14
   8  -5 -12 6138.77 453.766   7
   8  -5 -12 6417.31 448.901  14
   8   5  12 7007.63 525.035  13
   8  -5 -13 866.649 200.219   7
   8  -5 -13 844.511 178.186  14
   8   5  13 1446.66 263.916  13
   8  -5 -14 649.309 172.767   7
   8  -5 -14 399.680 123.907  14
   8   5  14 138.554 134.470  13
   8  -5 -15 6013.31 337.113   7
   8   5  15 5755.53 383.493  13
   8  -5 -16 49.7152 68.4692   7
   8   5  16 145.150 99.4867   9
   8   5  16 238.005 115.125  13
   8  -6   6 2190.19 427.136   4
   8  -6   5 965.998 227.572  12
   8  -6   5 573.638 209.868   4
   8  -6   5 908.165 245.574   7
   8  -6   4 11144.1 858.794   4
   8  -6   4 11271.6 631.235   7
   8  -6   3 39390.3 1552.19   4
   8  -6   3 39750.7 1142.65   7
   8  -6   2 15432.5 963.182   4
   8  -6   1 1043.85 305.341   4
   8  -6   0 21775.2 1083.39   4
   8   6   1 1513.98 340.850   3
   8   6   2 17931.7 1101.59   3
   8  -6  -3 38283.6 1103.88   7
   8   6   3 41848.5 1740.44   3
   8   6   3 39654.1 1102.38  11
   8  -6  -3 38989.4 1058.77  14
   8   6   4 10655.0 925.420   3
   8  -6  -4 10710.9 597.123   7
   8   6   4 10338.6 584.533  11
   8  -6  -4 11312.3 600.264  14
   8  -6  -5 534.019 181.042   7
   8   6   5 895.586 241.230  11
   8  -6  -5 481.887 185.136  14
   8   6   6 3407.51 580.919   3
   8  -6  -6 3249.01 360.491   7
   8   6   6 3288.50 369.801  11
   8  -6  -6 2654.23 326.552  14
   8  -6  -7 3811.58 387.013   7
   8  -6  -7 3524.50 377.890  14
   8  -6  -8 26608.8 958.771   7
   8  -6  -8 24916.3 940.314  14
   8  -6  -9 26602.8 954.744   7
   8  -6  -9 25840.4 958.235  14
   8  -6 -10 1287.69 244.673   7
   8  -6 -10 998.124 224.546  14
   8  -6 -11 678.930 197.389   7
   8  -6 -11 497.260 164.661  14
   8  -6 -12 10031.9 535.517   7
   8  -6 -12 9721.94 539.916  14
   8   6  12 10151.6 611.761  13
   8  -6 -13 2134.31 249.871   7
   8  -6 -13 2204.62 257.002  14
   8   6  13 2618.00 316.072  13
   8  -6 -14 4582.17 307.743   7
   8  -6 -14 4547.40 301.621  14
   8   6  14 5036.92 383.336  13
   8  -6 -15 1874.66 165.959   7
   8   6  15 2217.36 239.919  13
   8   6  16 159.496 87.3625   9
   8   6  16 334.996 101.015  13
   8  -7   5 36383.2 1605.43   4
   8  -7   5 36155.9 1051.06  12
   8  -7   4 4791.40 585.341   4
   8  -7   4 4818.40 445.016   7
   8  -7   4 4335.72 379.704  12
   8  -7   3 16957.9 1075.84   4
   8  -7   3 17335.1 800.852   7
   8  -7   3 16330.0 677.826  12
   8  -7   2 354.236 189.107   7
   8  -7   2 108.278 178.895   4
  -8  -7  -2 371.110 229.435   1
   8   7  -1 24291.1 819.336  11
   8  -7   1 26996.5 1285.05   4
   8  -7   1 26911.3 955.828   7
   8   7   0 20114.3 757.202  11
   8  -7   0 21539.8 855.192   7
   8  -7  -1 27003.7 947.179   7
   8   7   1 25854.4 870.656  11
   8  -7  -1 26004.3 832.790  14
   8  -7  -2 354.367 175.116   7
   8   7   2 309.613 156.248  11
   8  -7  -3 16805.0 754.729   7
   8   7   3 16776.7 734.116  11
   8   7   3 17299.0 1174.11   3
   8  -7  -3 17332.4 734.845  14
   8  -7  -4 3964.07 387.616   7
   8   7   4 4726.45 431.250  11
   8  -7  -4 4114.32 389.090  14
   8  -7  -5 36397.1 1104.00   7
   8   7   5 35432.5 1113.77  11
   8  -7  -5 38283.3 1134.55  14
   8   7   5 36766.2 1760.59   3
   8  -7  -6 4073.79 389.954   7
   8  -7  -7 15497.2 728.682   7
   8  -7  -8 487.236 183.660   7
   8  -7  -8 201.669 180.289  14
   8  -7  -9 3669.02 359.809   7
   8  -7  -9 3764.60 388.766  14
   8  -7 -10 3507.34 340.248   7
   8  -7 -10 2995.93 341.611  14
   8  -7 -11 17601.5 697.326   7
   8  -7 -11 17548.0 754.237  14
   8   7  11 17944.1 803.668  13
   8  -7 -12 3449.74 308.104   7
   8  -7 -12 2985.03 309.651  14
   8   7  12 3450.02 364.956  13
   8  -7 -13 4061.41 286.500   7
   8  -7 -13 3958.64 315.672  14
   8   7  13 4527.36 376.478  13
   8  -7 -14 697.829 128.574  14
   8   7  14 1066.04 185.099  13
   8  -7 -15 2078.34 146.712  14
   8   7  15 2852.88 235.387  13
   8   7  16 797.457 108.792   9
   8  -8   5 1542.55 275.334  12
   8  -8   4 686.319 220.638  12
  -8  -8  -4 144.444 141.751   8
   8  -8   3 13537.2 714.754   7
  -8  -8  -3 12052.0 925.300   1
   8  -8   3 13212.3 649.266  12
   8  -8   2 27268.2 995.308   7
   8  -8   2 25711.6 889.205  12
   8  -8   1 19593.4 840.317   7
   8  -8   1 19409.2 766.853  12
   8  -8   0 2027.60 285.280  12
   8  -8   0 1524.19 260.524   7
   8   8   0 1207.60 209.599  11
   8  -8  -1 18752.4 740.367  12
   8  -8  -1 19332.5 734.948  14
   8  -8  -1 19678.2 831.667   7
   8  -8  -2 25140.5 924.933   7
   8  -8  -2 25008.1 845.202  12
   8  -8  -2 25007.4 862.367  14
   8  -8  -3 13025.5 668.180   7
   8  -8  -3 13671.2 625.835  12
   8   8   3 11926.9 631.002  11
   8   8   3 14161.7 1067.47   3
   8  -8  -3 14091.6 672.117  14
   8  -8  -4 242.312 140.622   7
   8   8   4 389.259 164.447  11
   8  -8  -5 1684.83 265.740   7
   8  -8  -5 1626.67 275.105  14
   8  -8  -6 2543.97 308.406   7
  -8  -8   6 2349.95 323.808   6
   8  -8  -7 3904.57 370.842   7
  -8  -8   7 3107.89 344.485   6
   8  -8  -8 5129.40 405.245   7
  -8  -8   8 5523.20 421.039   6
   8  -8  -8 5415.33 459.519  14
   8  -8  -9 13311.3 623.041   7
   8  -8  -9 14133.7 707.944  14
   8  -8 -10 822.114 174.179   7
   8  -8 -10 866.361 211.844  14
   8  -8 -11 1062.61 181.688   7
   8  -8 -11 757.290 214.424  14
   8   8  11 922.147 218.184  13
   8  -8 -12 7762.92 455.787  14
   8   8  12 7500.49 471.825  13
   8  -8 -13 7547.62 400.878  14
   8   8  13 7035.74 417.848  13
   8  -8 -14 1133.60 147.859  14
   8   8  14 1309.23 175.534  13
   8   8  15 1797.08 158.808  13
  -8  -9  -6 9934.72 518.061   8
  -8  -9  -5 7190.86 460.056   8
   8  -9   5 7555.73 522.713  12
  -8  -9  -4 4944.89 389.327   8
   8  -9   4 4805.69 423.314  12
   8  -9   3 2331.77 312.384  12
   8  -9   2 828.116 227.887  12
   8  -9   2 931.493 254.375   7
   8  -9   1 6862.01 513.150   7
   8  -9   1 6878.09 498.484  12
   8  -9   0 4058.59 401.853   7
   8  -9   0 4504.61 405.316  12
   8  -9  -1 6546.70 474.466  12
   8  -9  -1 7009.06 506.746   7
   8  -9  -2 507.793 185.981  12
   8  -9  -2 432.455 167.996   7
   8   9   2 142.140 132.185  11
   8  -9  -2 458.480 160.179  14
   8  -9  -3 3460.35 355.625  12
   8   9   3 2532.49 308.083  11
   8  -9  -3 2851.70 316.538  14
   8  -9  -3 2562.73 324.947   7
   8  -9  -4 4775.52 405.061   7
   8  -9  -4 4612.62 383.110  12
   8  -9  -4 4699.69 398.000  14
   8  -9  -5 7476.22 495.168   7
   8  -9  -5 7576.33 486.402  12
  -8  -9   5 7461.87 549.645   6
   8  -9  -5 8357.09 538.934  14
   8  -9  -6 10105.1 550.325   7
   8  -9  -6 10556.6 557.897  12
  -8  -9   6 9683.87 603.396   6
   8  -9  -6 10868.3 619.444  14
   8  -9  -7 15784.0 668.935   7
   8  -9  -7 15342.0 652.777  12
  -8  -9   7 15780.6 715.953   6
   8  -9  -7 16752.3 763.503  14
   8  -9  -8 2615.47 273.915   7
   8  -9  -8 2641.94 284.097  12
  -8  -9   8 3041.64 303.688   6
   8  -9  -8 3223.19 362.191  14
   8  -9  -9 220.633 167.251  14
   8  -9 -10 5370.41 420.383  14
   8   9  10 4709.81 392.612  13
   8  -9 -11 6488.15 429.864  14
   8   9  11 6780.50 438.536  13
   8  -9 -12 134.383 110.910  14
   8   9  12 132.193 116.079  13
   8  -9 -13 142.111 86.9181  14
   8   9  13 232.061 109.784  13
   8  -9 -14 563.095 102.836  14
   8   9  14 633.814 106.052  13
  -8 -10  -6 2095.87 260.078   8
  -8 -10  -5 2650.24 293.433   8
  -8 -10  -5 2763.33 314.466   6
   8 -10   5 2874.21 343.956  12
   8 -10   4-152.034 180.685  12
  -8 -10  -4 49.8238 157.014   6
  -8 -10  -4 79.9509 134.900   8
  -8 -10  -3 5909.35 484.450   6
  -8 -10  -3 6237.99 458.316   8
   8 -10   3 6572.87 495.555  12
   8 -10   2 2330.29 313.001  12
   8 -10   1 3482.76 360.340   7
   8 -10   1 3653.91 387.957  12
   8 -10   0-20.3036 137.064  12
   8 -10   0 45.9640 146.598   7
  -8 -10   1 3561.85 413.860   6
   8 -10  -1 3668.14 363.520   7
   8 -10  -1 3320.79 364.649  12
   8 -10  -2 1930.01 282.228  12
  -8 -10   2 2179.87 352.190   6
   8 -10  -2 1703.03 236.200  14
   8 -10  -2 2637.11 303.082   7
   8 -10  -3 6367.85 471.310  12
  -8 -10   3 6278.86 518.319   6
   8 -10  -3 6467.30 455.516  14
   8 -10  -3 5675.86 422.393   7
   8 -10  -4 63.7210 127.051  12
   8 -10  -4-25.8320 129.582   7
  -8 -10   4 418.109 224.500   6
   8 -10  -4 223.243 147.313  14
   8 -10  -5 2976.03 321.880  12
   8 -10  -5 2241.27 264.800   7
  -8 -10   5 3043.14 359.607   6
   8 -10  -5 2705.67 311.659  14
   8 -10  -6 2164.80 280.955  12
  -8 -10   6 2097.58 298.238   6
   8 -10  -6 2068.14 277.586  14
   8 -10  -7 967.469 198.321  12
  -8 -10   7 934.915 203.817   6
   8 -10  -7 1154.39 236.158  14
   8 -10  -8 1262.61 199.942  12
  -8 -10   8 1668.65 231.997   6
   8 -10  -8 1942.02 272.331  14
   8 -10  -9 4010.55 306.518  12
   8 -10  -9 4995.78 396.320  14
   8  10   9 4347.73 361.041  13
   8 -10 -10 3158.08 252.364  12
   8 -10 -10 3605.94 328.520  14
   8  10  10 3328.62 300.448  13
   8  10  11 373.162 111.987  13
   8 -10 -11 417.669 143.159  14
   8 -10 -12 561.707 142.092  14
   8  10  12 551.249 116.150  13
   8 -10 -13 3058.76 206.096  14
   8  10  13 2681.75 177.079  13
  -8 -11  -6 1949.68 248.114   8
  -8 -11  -5 2065.16 255.538   6
  -8 -11  -5 2241.98 269.258   8
   8 -11   5 2421.01 318.406  12
  -8 -11  -4 6994.50 459.861   8
  -8 -11  -4 6313.46 449.916   6
   8 -11   4 6644.91 491.292  12
   8 -11   3 1678.93 288.418  12
  -8 -11  -3 1599.45 272.060   6
  -8 -11  -3 1497.70 240.483   8
  -8 -11  -2 8114.34 557.024   6
  -8 -11  -2 8787.53 537.548   8
   8 -11   2 8542.65 552.756  12
  -8 -11  -1 9039.40 598.975   6
   8 -11   1 9132.71 567.291  12
  -8 -11   0 11121.6 666.862   6
   8 -11   0 10762.9 616.569  12
  -8 -11   1 9485.16 623.819   6
   8 -11  -1 9025.56 515.510   7
   8 -11  -1 9772.07 580.711  12
  -8 -11   2 7758.67 565.706   6
   8 -11  -2 7507.09 464.771   7
   8 -11  -2 8150.30 532.069  12
   8 -11  -3 1687.95 249.636  12
  -8 -11   3 1308.63 275.530   6
   8 -11  -3 1504.50 225.107  14
   8 -11  -4 6702.24 466.494  12
  -8 -11   4 7671.65 541.542   6
   8 -11  -4 7208.06 455.951  14
   8 -11  -5 1955.70 275.659  12
  -8 -11   5 2274.22 306.170   6
   8 -11  -5 2221.22 268.169  14
   8 -11  -6 1449.49 229.339  12
  -8 -11   6 1961.76 265.210   6
   8 -11  -6 1973.76 262.762  14
   8 -11  -7 1006.23 192.886  12
  -8 -11   7 952.851 200.030   6
   8 -11  -7 610.749 171.774  14
   8 -11  -8 2909.99 266.395  12
  -8 -11   8 3313.50 278.864   6
   8 -11  -8 2916.64 300.402  14
   8  11   8 3141.98 282.360  13
   8 -11  -9 160.092 97.8426  12
   8 -11  -9 215.801 140.512  14
   8  11   9 131.390 93.0849  13
   8 -11 -10 1659.20 164.918  12
   8 -11 -10 1774.97 215.735  14
   8  11  10 1458.58 167.166  13
   8 -11 -11 2947.06 244.795  14
   8  11  11 2283.66 177.700  13
   8 -11 -12 3152.12 210.129  14
  -8 -12  -5 1891.59 218.996   6
  -8 -12  -5 1713.44 214.383   8
   8 -12   4 859.414 221.603  12
  -8 -12  -4 670.463 163.931   8
  -8 -12  -4 894.297 175.915   6
  -8 -12  -3 9538.35 524.198   8
  -8 -12  -3 9647.76 529.475   6
   8 -12   3 10090.8 570.007  12
   8 -12   2 907.705 227.352  12
  -8 -12  -2 867.755 201.500   6
  -8 -12  -2 720.914 192.581   8
   8 -12   1 542.770 199.308  12
  -8 -12  -1 702.701 204.300   6
  -8 -12  -1 636.481 176.701   8
  -8 -12   0 8721.35 561.093   6
  -8 -12   0 8844.78 535.464   8
   8 -12   0 8861.17 543.583  12
   8 -12  -1 472.899 180.904  12
  -8 -12   1 420.173 179.058   6
   8 -12  -2 624.259 194.102  12
  -8 -12   2 838.442 234.787   6
  -8 -12   3 11264.8 622.067   6
   8 -12  -3 9706.58 537.973  12
   8 -12  -4 869.374 210.333  12
  -8 -12   4 904.162 217.047   6
   8 -12  -4 913.642 166.494  14
   8 -12  -5 1819.02 244.583  12
  -8 -12   5 1837.58 263.666   6
   8 -12  -5 1986.91 240.647  14
   8 -12  -6 792.453 174.364  12
  -8 -12   6 1121.20 202.403   6
   8 -12  -6 1136.68 188.405  14
   8 -12  -7 3818.64 297.357  12
   8 -12  -7 4221.96 319.507  14
   8 -12  -8 1036.35 157.233  12
   8 -12  -8 716.746 154.854  14
   8 -12  -9 2468.89 195.609  12
   8 -12  -9 3220.38 255.940  14
   8 -12 -10 785.029 132.235  14
   8 -12 -11 826.682 113.583  14
  -8 -13  -4 9639.73 421.415   6
  -8 -13  -4 9364.06 453.764   8
   8 -13   3 316.969 165.019  12
  -8 -13  -3 212.146 113.735   6
  -8 -13  -3 538.553 152.274   8
  -8 -13  -2 2774.51 278.535   6
  -8 -13  -2 2869.20 287.051   8
   8 -13   2 2963.53 307.231  12
  -8 -13  -1 2534.74 279.947   8
  -8 -13  -1 2684.99 289.710   6
   8 -13   1 3005.40 312.133  12
   8 -13   0 223.503 159.702  12
  -8 -13   0 173.452 148.847   6
  -8 -13   0 139.873 130.132   8
  -8 -13   1 2668.64 305.311   6
  -8 -13   1 3129.52 306.677   8
   8 -13  -1 3117.06 310.237  12
  -8 -13   2 2726.59 302.661   6
  -8 -13   2 2647.53 281.122   8
   8 -13  -2 3016.28 299.899  12
   8 -13  -3 348.926 137.350  12
  -8 -13   3 345.188 150.240   6
  -8 -13   3 395.480 149.213   8
  -8 -13   4 10189.5 519.068   6
   8 -13  -4 10310.6 489.850  12
   8 -13  -5 438.643 138.682  12
  -8 -13   5 352.743 135.218   6
   8 -13  -5 414.855 108.405  14
   8 -13  -6 6997.16 334.904  14
   8 -13  -6 7763.44 382.124  12
   8 -13  -7 287.683 104.844  12
   8 -13  -7 267.971 96.4621  14
   8 -13  -8 2572.59 196.146  14
  -8 -13   8 2775.89 207.128   8
   8 -13  -8 2761.57 188.396  12
   8 -13  -9 1307.71 132.006  14
  -8 -13   9 1415.60 128.991   8
  -8 -14  -2 808.273 148.778   8
   8 -14   2 758.787 166.836  12
   8 -14   1 844.119 169.233  12
  -8 -14  -1 971.907 169.998   8
  -8 -14   0 1921.89 216.714   8
  -8 -14   0 1930.69 223.596   6
   8 -14   0 1830.83 222.546  12
   8 -14  -1 907.559 173.687  12
  -8 -14   1 955.646 179.388   6
  -8 -14   1 1216.67 179.554   8
   8 -14  -2 903.710 169.314  12
  -8 -14   2 596.301 142.149   8
   8 -14  -3 1465.37 181.652  12
  -8 -14   3 1758.34 204.916   8
   8 -14  -4 123.724 97.5008  12
  -8 -14   4 41.6273 96.8578   8
   8 -14  -5 29.7069 81.7662  12
  -8 -14   5-45.1287 88.7160   8
  -8 -14   6 2466.53 189.676   8
   8 -14  -6 2054.82 161.078  12
  -8 -14   7 962.624 108.150   8
  -8 -15   0 446.710 98.3099   8
   8 -15   0 405.750 105.631  12
  -8 -15   1 2295.46 187.137   8
   8 -15  -1 2321.08 184.081  12
  -8 -15   2 2561.76 190.514   8
   8 -15  -2 2513.67 182.452  12
   8 -15  -3 299.732 77.9596  12
  -8 -15   3 497.870 98.3280   8
  -8 -15   4 1908.07 144.474   8
   9   0   0-196.787 158.919   2
   9   0   1 25396.3 1035.78   4
   9   0  -1 23234.4 1146.49   2
   9   0  -2 4854.95 557.882   2
   9   0  -3 17511.6 1056.63   2
   9   0  -4 259.973 214.719   2
   9   0  -5 25937.8 1353.34   2
   9   0  -6 13275.6 650.561   7
   9   0   6 13333.2 623.835  11
   9   0  -6 13451.8 982.471   2
   9   0  -6 12683.6 623.930  14
   9   0  -7 44199.5 1198.19   7
   9   0   7 46168.3 1177.36  11
   9   0  -7 44270.8 1783.34   2
   9   0  -7 42664.1 1135.66  14
   9   0   8 4019.31 367.231  11
   9   0  -8 4821.95 601.220   2
   9   0  -8 4621.40 403.052  14
   9   0  -9 42026.0 1120.13  14
   9   0 -10 1847.28 253.292  14
   9   0  10 1309.15 217.483  13
   9   0  11 900.038 187.149  13
   9   0  12 522.610 155.108  13
   9   0  13-96.1825 123.201  13
   9   0 -14 485.329 183.818   7
   9   0  14 724.968 144.297  13
   9   0 -15 288.268 157.437   7
   9   0 -16 73.2198 97.6942   7
   9   0 -17 1166.30 136.838   7
   9   1 -17 4130.66 224.941   7
   9   1 -16 183.219 120.825   7
   9   1 -15 1302.98 207.031   7
   9   1 -14 1145.18 227.064   7
   9   1  -9 3864.84 335.890  14
   9  -1   8 12210.0 954.576   4
   9   1  -8 12886.6 1000.16   2
   9   1  -8 12327.1 602.159  14
   9  -1   7 3131.19 472.657   4
   9   1  -7 3008.38 325.117  14
   9   1  -7 3011.21 511.859   2
   9  -1   6 2205.19 417.335   4
   9   1  -6 1919.73 257.070  14
   9   1  -6 2003.46 281.608   7
   9   1  -6 2504.19 465.186   2
   9  -1   5 16416.5 1012.74   4
   9   1  -5 17030.9 1131.17   2
   9  -1   4 23015.8 1156.21   4
   9   1  -4 21111.2 1227.73   2
   9  -1   3 6094.66 589.765   4
   9   1  -3 6225.62 650.296   2
   9  -1   2 6534.32 570.933   4
   9   1  -2 6305.58 642.574   2
   9  -1   1 11730.2 715.099   4
   9   1  -1 13408.5 895.421   2
   9  -1   0 12843.2 704.145   4
   9   1   0 11523.6 783.204   2
   9   1   1 11992.3 765.934   2
   9  -1  -3 6044.07 638.098   2
   9  -1  -4 22883.0 1221.66   2
   9  -1  -5 16458.8 1060.15   2
   9  -1  -6 2285.65 296.786  14
   9   1   6 2069.89 275.223  11
   9  -1  -6 2294.36 311.169   7
   9  -1  -6 1254.95 324.064   2
   9  -1  -7 2946.97 364.775   7
   9   1   7 2846.36 319.731  11
   9  -1  -7 2602.90 296.659  14
   9  -1  -7 2495.50 453.158   2
   9  -1  -8 13379.2 699.215   7
   9   1   8 14105.1 685.870  11
   9  -1  -8 13127.1 654.700  14
   9  -1  -9 4670.45 443.407   7
   9  -1  -9 4690.73 402.734  14
   9  -1 -10 287.723 157.978  14
   9  -1 -11 21459.9 892.250   7
   9  -1 -11 19266.4 731.582  14
   9   1  11 20441.4 835.791  13
   9  -1 -12 5150.84 450.171   7
   9   1  12 5248.23 423.297  13
   9  -1 -13 6206.29 470.695   7
   9   1  13 6037.56 426.007  13
   9  -1 -14 974.135 216.253   7
   9   1  14 872.586 157.048   9
   9   1  14 882.883 181.869  13
   9  -1 -15 652.924 186.370   7
   9   1  15 804.528 150.651  13
   9  -1 -16 321.277 116.996   7
   9  -1 -17 4128.74 224.988   7
   9   2 -17 1605.41 139.993   7
   9   2 -16 3753.53 262.308   7
   9   2 -15 17878.5 635.340   7
   9   2  -8 884.650 186.924  14
   9  -2   7 5339.49 640.826   4
   9   2  -7 5874.28 711.516   2
   9   2  -7 5398.15 408.101  14
   9  -2   6 786.532 258.243   4
   9   2  -6 712.836 311.644   2
   9   2  -6 609.619 176.793  14
   9   2  -5 3787.14 566.029   2
   9  -2   5 2869.04 441.213   4
   9  -2   4 19535.8 1075.15   4
   9   2  -4 18345.6 1168.87   2
   9  -2   3 37768.5 1442.09   4
   9   2  -3 38966.5 1653.89   2
   9  -2   2 10771.2 744.913   4
   9   2  -2 10661.3 846.461   2
   9  -2   1 37442.3 1300.28   4
   9   2  -1 36361.9 1486.39   2
   9  -2   0 9538.16 626.300   4
   9   2   0 9832.10 754.399   2
   9   2   1 38119.7 1378.69   2
   9   2   5 2725.35 306.059  11
   9  -2  -5 2714.65 319.448   7
   9  -2  -5 3591.32 360.069  14
   9  -2  -6 757.816 193.764   7
   9  -2  -6 992.785 216.131  14
   9  -2  -7 6101.00 476.698   7
   9   2   7 6291.80 476.810  11
   9  -2  -7 6082.92 456.768  14
   9   2   8 742.214 210.607  11
   9  -2  -8 866.784 225.862  14
   9  -2  -8 961.190 239.422   7
   9  -2  -9 2807.05 355.502   7
   9  -2  -9 2769.24 333.039  14
   9  -2 -10 4216.21 422.515   7
   9  -2 -10 3822.91 365.999  14
   9  -2 -11 9980.63 619.957   7
   9   2  11 9422.88 585.158  13
   9  -2 -11 9367.80 534.007  14
   9  -2 -12 3164.22 363.223   7
   9  -2 -12 2790.75 278.001  14
   9   2  12 2685.12 323.939  13
   9  -2 -13 2935.42 330.796   7
   9   2  13 2582.85 306.044  13
   9  -2 -14 1989.76 262.474   7
   9   2  14 1741.50 234.945  13
   9  -2 -15 18688.8 653.774   7
   9   2  15 16900.5 539.297   9
   9   2  15 17784.1 607.223  13
   9  -2 -16 3739.25 263.710   7
   9  -2 -17 1849.05 146.089   7
   9   3 -16 664.992 133.369   7
   9   3 -15 1136.37 177.673   7
   9  -3   7 17510.2 1139.44   4
   9   3  -7 16190.2 1153.53   2
   9  -3   6 725.053 259.437   4
   9   3  -6 618.973 287.305   2
   9  -3   5 11470.3 860.853   4
   9   3  -5 11781.8 991.224   2
   9  -3   5 12790.5 644.942   7
   9  -3   4 329.728 181.254   4
   9   3  -4 1430.46 392.173   2
   9   3  -3 21654.1 1286.82   2
   9  -3   3 21622.1 1114.05   4
   9   3  -2 18402.3 1140.44   2
   9  -3   2 19510.5 1011.67   4
   9   3  -1 4991.37 576.463   2
   9  -3   1 5618.73 528.956   4
   9  -3   0 1005.39 237.760   4
   9   3   0 2764.37 430.846   2
   9   3   1 6120.67 566.091   2
   9  -3  -4 448.282 174.397   7
   9   3   4 566.442 200.116  11
   9  -3  -4 676.683 178.200  14
   9  -3  -5 11686.1 634.027   7
   9   3   5 12388.1 646.486  11
   9  -3  -5 11742.7 619.277  14
   9   3   6 494.582 169.262  11
   9  -3  -6 717.844 227.812   7
   9  -3  -6 416.162 184.015  14
   9  -3  -7 15517.4 750.412   7
   9   3   7 17391.5 796.786  11
   9  -3  -7 15836.5 740.854  14
   9   3   8 1524.30 272.465  11
   9  -3  -8 1879.05 301.342   7
   9  -3  -8 1177.08 238.935  14
   9  -3  -9 11137.3 659.568   7
   9  -3  -9 10694.7 610.454  14
   9  -3 -10 6704.16 513.296   7
   9  -3 -10 7028.02 484.841  14
   9  -3 -11 1885.92 302.916   7
   9  -3 -11 1846.44 261.196  14
   9   3  11 2390.30 324.169  13
   9  -3 -12 643.660 210.423   7
   9  -3 -12 467.132 163.214  14
   9   3  12 392.041 176.205  13
   9  -3 -13 928.457 213.014   7
   9  -3 -13 1024.01 173.927  14
   9   3  13 967.391 215.699  13
   9  -3 -14 12295.7 575.004   7
   9   3  14 11708.5 564.445  13
   9  -3 -15 831.735 171.979   7
   9   3  15 741.734 158.249  13
   9   3  15 764.267 145.071   9
   9  -3 -16 819.209 136.926   7
   9   3  16 716.926 110.065   9
   9   4 -16 16.6726 68.5557   7
   9   4 -15 763.194 139.582   7
   9   4  -6 32027.0 1671.79   2
   9  -4   6 29813.7 1443.23   4
   9   4  -5 20321.3 1324.98   2
   9  -4   5 20850.0 1175.39   4
   9  -4   5 21704.8 865.999   7
   9   4  -4 1635.54 438.994   2
   9  -4   4 639.287 203.763   7
   9  -4   4 1157.30 284.910   4
   9   4  -3 15674.6 1119.31   2
   9  -4   3 15461.8 952.874   4
   9  -4   3 16272.3 725.126   7
   9   4  -2 6768.54 730.349   2
   9  -4   2 6204.54 590.924   4
   9  -4   1 198.205 182.752   4
   9   4  -1 982.684 324.195   2
   9  -4   0 2015.58 329.776   4
   9   4   0 3282.56 464.644   2
   9   4   1 1281.47 262.116   2
   9   4   2 7245.21 622.400   3
   9  -4  -3 16319.5 731.659   7
   9   4   3 16209.2 722.107  11
   9  -4  -3 16350.7 709.444  14
   9   4   3 15791.8 989.840   3
   9   4   4 1687.10 419.541   3
   9  -4  -4 1104.90 222.695   7
   9   4   4 1486.91 263.010  11
   9  -4  -4 768.452 190.827  14
   9  -4  -5 21121.9 857.769   7
   9   4   5 23017.2 894.443  11
   9  -4  -5 20862.9 835.375  14
   9   4   5 22951.7 1294.99   3
   9  -4  -6 30925.4 1049.68   7
   9   4   6 31626.8 1063.80  11
   9  -4  -6 31510.1 1036.63  14
   9  -4  -7 5490.66 469.315   7
   9   4   7 5677.04 470.149  11
   9  -4  -7 5094.87 438.304  14
   9  -4  -8 3326.65 380.979   7
   9  -4  -8 2807.67 337.621  14
   9  -4  -9 13090.0 703.512   7
   9  -4  -9 12705.8 678.451  14
   9  -4 -10 27835.3 1007.39   7
   9  -4 -10 27841.8 966.166  14
   9  -4 -11 6953.21 505.543   7
   9  -4 -11 6227.40 452.689  14
   9   4  11 7060.04 528.379  13
   9  -4 -12 423.719 154.704  14
   9  -4 -12 521.833 191.616   7
   9   4  12 602.575 196.034  13
   9  -4 -13 1487.97 236.724   7
   9   4  13 1524.06 252.724  13
   9  -4 -13 1616.51 208.107  14
   9  -4 -14 535.038 162.219   7
   9   4  14 652.617 169.800  13
   9  -4 -15 589.110 138.517   7
   9   4  15 743.641 143.603   9
   9   4  15 634.586 142.634  13
   9   4  16 116.674 69.8720   9
   9  -4 -16-148.365 77.6017   7
   9   5 -15 2768.83 198.015   7
   9   5 -14 2069.15 209.158   7
   9  -5   5 3803.93 526.101   4
   9  -5   5 3235.57 393.789   7
   9  -5   4 2131.42 311.242   7
   9  -5   4 1677.61 356.425   4
   9  -5   3 20628.1 1125.00   4
   9  -5   3 20709.2 849.775   7
   9  -5   2 20154.8 1086.03   4
   9  -5   2 23014.4 884.057   7
   9  -5   1 23865.2 904.111   7
   9   5  -1 22957.2 1290.62   2
   9  -5   1 22145.6 1100.00   4
   9  -5   0 6145.07 468.580   7
   9   5   0 6227.90 455.486  11
   9  -5   0 4899.13 518.387   4
   9   5   0 5441.26 587.170   2
   9  -5  -1 24921.2 914.617   7
   9   5   1 24357.3 877.271  11
   9  -5  -1 23769.6 821.624  14
   9  -5  -2 21001.1 845.204   7
   9   5   2 21242.2 827.326  11
   9  -5  -2 21552.7 812.505  14
   9   5   2 19508.6 1069.34   3
   9  -5  -3 19597.2 827.476   7
   9   5   3 18989.9 803.352  11
   9  -5  -3 18865.6 775.545  14
   9   5   3 19366.5 1124.51   3
   9   5   4 2942.61 483.006   3
   9  -5  -4 2072.69 302.420   7
   9  -5  -4 2320.65 314.379  14
   9   5   5 4036.56 565.024   3
   9  -5  -5 4156.75 408.444   7
   9   5   5 4602.85 434.771  11
   9  -5  -5 3696.58 377.989  14
   9   5   6 1217.27 277.008  11
   9  -5  -6 1151.49 240.257   7
   9  -5  -6 1535.86 273.721  14
   9   5   7 2514.67 353.784  11
   9  -5  -7 1831.38 312.332   7
   9  -5  -7 1942.41 316.682  14
   9  -5  -8 4367.98 417.953   7
   9  -5  -8 3492.46 384.186  14
   9  -5  -9 19064.5 838.515   7
   9  -5  -9 18567.3 816.768  14
   9  -5 -10 3101.32 356.822   7
   9  -5 -10 3213.88 359.219  14
   9  -5 -11 3512.64 360.635   7
   9  -5 -11 3059.12 326.943  14
   9   5  11 3451.36 374.307  13
   9  -5 -12 3565.57 346.039   7
   9  -5 -12 2625.51 282.701  14
   9   5  12 3511.95 364.927  13
   9  -5 -13 6420.55 412.230   7
   9  -5 -13 6176.16 372.996  14
   9   5  13 6552.65 451.735  13
   9  -5 -14 1954.11 220.404   7
   9  -5 -14 1586.34 169.365  14
   9   5  14 2036.48 241.397  13
   9  -5 -15 2740.03 203.856   7
   9   5  15 3114.49 254.845  13
   9   5  16 561.325 95.4085   9
   9  -6   4 29320.2 1401.14   4
   9  -6   4 29485.2 1056.48   7
   9  -6   3 19295.6 1111.83   4
   9  -6   3 18549.4 843.234   7
   9   6  -2 12257.6 617.446  11
   9  -6   2 11324.5 862.840   4
   9  -6   2 12044.2 671.271   7
   9   6  -1 7762.80 509.621  11
   9  -6   1 7022.25 652.458   4
   9  -6   1 7129.66 530.604   7
   9  -6   0 106533. 1932.29   7
   9   6   0 104671. 1806.33  11
   9  -6   0 102934. 2377.14   4
   9  -6   0 102734. 1666.35  14
   9  -6  -1 8167.48 553.227   7
   9   6   1 8879.26 549.734  11
   9  -6  -1 8207.50 494.401  14
   9  -6  -2 13191.2 694.500   7
   9   6   2 12091.1 641.674  11
   9  -6  -2 11927.7 617.113  14
   9  -6  -3 20445.0 857.039   7
   9   6   3 18979.4 813.269  11
   9  -6  -3 18478.2 775.285  14
   9   6   3 19405.8 1161.20   3
   9  -6  -4 30429.4 1052.86   7
   9   6   4 30312.4 1039.67  11
   9  -6  -4 31274.3 1031.17  14
   9   6   4 28971.8 1472.19   3
   9  -6  -5 1364.55 270.534   7
   9  -6  -5 1391.29 256.145  14
   9  -6  -6 381.001 200.523   7
   9   6   6 407.897 218.676  11
   9  -6  -6 509.801 182.419  14
   9  -6  -7 2066.56 311.845   7
   9  -6  -7 1775.29 295.649  14
   9  -6  -8 4549.06 418.633   7
   9  -6  -8 4531.40 425.524  14
   9  -6  -9 9680.39 592.325   7
   9  -6  -9 9444.93 586.618  14
   9  -6 -10 3707.28 361.782   7
   9  -6 -10 3918.03 384.539  14
   9  -6 -11 827.964 206.961   7
   9  -6 -11 641.176 189.323  14
   9  -6 -12 20620.0 731.546   7
   9  -6 -12 20928.1 740.834  14
   9   6  12 21889.5 832.769  13
   9  -6 -13 547.084 136.512  14
   9  -6 -13 531.966 143.182   7
   9   6  13 672.033 189.468  13
   9  -6 -14 537.340 123.043   7
   9  -6 -14 189.882 89.9572  14
   9   6  14 586.702 151.341  13
   9   6  15 1366.14 162.351  13
   9   7  -4 11977.0 595.494  11
   9  -7   4 13740.5 742.665   7
   9  -7   3 283.711 202.625   7
   9   7  -3-139.913 123.300  11
   9   7  -2 15201.1 681.512  11
   9  -7   2 16259.2 802.866   7
   9   7  -1 4365.55 381.720  11
   9  -7   1 3214.39 473.992   4
   9  -7   1 4127.40 424.367   7
   9  -7   0 2105.29 320.157   7
   9   7   0 2240.48 300.836  11
   9  -7   0 2448.96 291.661  14
   9  -7  -1 4526.73 429.978   7
   9   7   1 4134.72 382.037  11
   9  -7  -1 3976.64 360.945  14
   9  -7  -2 16187.9 778.103   7
   9   7   2 16752.8 756.358  11
   9  -7  -2 16582.3 721.628  14
   9  -7  -3 111.515 165.899   7
   9   7   3 238.298 187.104  11
   9  -7  -3 249.443 163.796  14
   9  -7  -4 13159.6 703.378   7
   9   7   4 14039.7 722.640  11
   9  -7  -4 13347.2 684.373  14
   9  -7  -5 1303.77 276.116   7
   9   7   5 845.476 238.340  11
   9  -7  -5 1012.32 229.244  14
   9  -7  -6 2630.16 341.739   7
   9  -7  -6 2730.87 343.919  14
   9  -7  -7 3934.52 394.369   7
   9  -7  -7 3535.56 381.983  14
   9  -7  -8 14870.6 715.812   7
   9  -7  -8 15633.5 754.291  14
   9  -7  -9 5257.41 427.231   7
   9  -7  -9 5530.64 459.597  14
   9  -7 -10 5912.37 424.587   7
   9  -7 -10 4817.57 410.399  14
   9  -7 -11 5554.89 388.752   7
   9  -7 -11 5502.44 417.070  14
   9   7  11 5167.54 425.161  13
   9  -7 -12 3657.42 289.553   7
   9  -7 -12 3302.22 297.618  14
   9   7  12 3279.30 323.608  13
   9  -7 -13 2051.36 195.262   7
   9  -7 -13 1932.86 209.891  14
   9   7  13 2447.97 263.136  13
   9  -7 -14 1455.77 146.328  14
   9   7  14 1669.66 192.240  13
   9   7  15 160.138 73.2217   9
   9   7  15 248.531 79.7563  13
   9  -8   4 745.647 189.844  12
   9  -8   3 446.527 168.218  12
   9  -8   3 759.795 244.005   7
   9   8  -2 5863.89 420.171  11
   9  -8   2 6828.62 455.036  12
   9   8  -1 4789.61 396.080  11
   9  -8   1 6571.95 527.669   7
   9  -8   0 216.974 206.478   7
   9   8   0 79.3452 116.281  11
   9   8   1 6048.68 454.006  11
   9  -8  -1 6416.70 439.522  14
   9  -8  -1 6441.12 512.518   7
   9   8   2 6994.10 491.369  11
   9  -8  -2 7376.02 486.117  14
   9  -8  -2 7128.69 524.838   7
   9   8   3 325.072 143.954  11
   9  -8  -3 291.716 161.165  14
   9  -8  -4 712.714 214.476   7
   9   8   4 535.447 199.237  11
   9  -8  -4 566.970 197.862  14
   9  -8  -5 5330.38 441.914   7
   9  -8  -5 6517.25 486.987  14
   9  -8  -6 31667.1 1028.34   7
  -9  -8   6 29560.5 1025.75   6
   9  -8  -6 32709.9 1071.56  14
   9  -8  -7 1489.42 251.877   7
  -9  -8   7 1197.88 245.312   6
   9  -8  -7 1010.81 240.983  14
   9  -8  -8 8474.06 516.280   7
  -9  -8   8 7862.46 468.315   6
   9  -8  -8 8129.03 539.771  14
   9  -8  -9 442.411 174.402   7
   9  -8  -9 351.905 194.565  14
   9  -8 -10 7661.66 436.878   7
   9  -8 -10 8056.63 501.050  14
   9  -8 -11 2143.46 226.837   7
   9  -8 -11 2485.27 280.070  14
   9   8  11 2438.19 283.168  13
   9  -8 -12 754.741 125.189   7
   9  -8 -12 731.045 165.731  14
   9   8  12 339.008 131.009  13
   9  -8 -13 1168.01 159.309  14
   9   8  13 1126.35 167.164  13
   9  -8 -14 339.012 80.8230  14
   9   8  14 401.320 96.4658  13
   9  -9   4 166.370 175.325  12
  -9  -9  -4 226.451 154.464   8
   9  -9   3 1992.45 293.135  12
  -9  -9  -3 1991.00 259.937   8
   9  -9   2 26848.5 1003.06   7
   9  -9   2 28402.1 929.285  12
   9  -9   1 2812.86 315.949  12
   9  -9   1 2292.97 328.549   7
   9  -9   0 596.383 217.746  12
   9  -9   0 803.745 231.409   7
   9  -9  -1 2951.23 296.940  14
   9   9   1 2184.78 283.882  11
   9  -9  -1 2708.19 354.319   7
   9  -9  -1 3305.72 334.745  12
   9  -9  -2 26933.1 888.566  14
   9  -9  -2 27563.6 983.405   7
   9  -9  -2 26898.4 864.933  12
   9  -9  -3 1616.33 258.757   7
   9   9   3 1631.60 255.914  11
   9  -9  -3 1781.66 259.757  14
   9  -9  -4-17.1863 130.062   7
   9  -9  -4 28.5526 130.832  14
   9  -9  -5 725.254 185.836   7
  -9  -9   5 605.015 215.016   6
   9  -9  -5 820.567 194.508  14
   9  -9  -6 263.578 146.124   7
  -9  -9   6 297.629 177.287   6
   9  -9  -6 41.0622 146.138  14
   9  -9  -7 2413.18 280.688   7
  -9  -9   7 2168.72 275.752   6
   9  -9  -7 2635.85 318.959  14
   9  -9  -8 316.324 154.731   7
  -9  -9   8 5.91305 123.944   6
   9  -9  -8 166.895 137.511  14
   9  -9  -9 2097.66 228.125   7
   9  -9  -9 2209.10 288.595  14
   9  -9 -10 2477.77 221.203   7
   9  -9 -10 3102.31 306.970  14
   9   9  10 2718.52 293.530  13
   9  -9 -11 2701.87 264.951  14
   9   9  11 2561.22 255.312  13
   9  -9 -12 139.621 93.8275  14
   9   9  12-28.8397 100.981  13
   9  -9 -13 1603.12 153.745  14
   9   9  13 1390.88 150.348  13
  -9 -10  -5 1914.55 261.902   6
  -9 -10  -5 1849.43 227.290   8
  -9 -10  -4 9523.83 505.065   8
  -9 -10  -4 8832.80 541.962   6
   9 -10   4 9152.95 533.790  12
   9 -10   3 1521.65 266.738  12
  -9 -10  -3 1484.81 265.188   6
  -9 -10  -3 897.844 195.331   8
  -9 -10  -2 4681.52 391.432   8
   9 -10   2 4460.40 392.177  12
   9 -10   1 11872.2 648.612   7
   9 -10   1 12036.1 615.258  12
   9 -10   0 9887.19 589.584   7
   9 -10   0 9556.04 542.960  12
  -9 -10   1 12071.5 704.462   6
   9 -10  -1 12361.3 645.027   7
   9 -10  -1 12196.8 604.414  12
  -9 -10   2 5152.73 475.961   6
   9 -10  -2 4649.56 362.564  14
   9 -10  -2 4346.26 394.090   7
   9 -10  -2 4351.64 370.552  12
   9 -10  -3 1746.34 255.880  12
   9 -10  -3 981.112 197.209   7
  -9 -10   3 1529.70 296.885   6
   9 -10  -3 2089.64 262.354  14
   9 -10  -4 8467.98 481.191  12
  -9 -10   4 9856.27 619.873   6
   9 -10  -4 9348.66 534.806  14
   9 -10  -4 8699.28 506.989   7
   9 -10  -5 1967.99 254.270  12
   9 -10  -5 2004.85 256.712   7
  -9 -10   5 1843.04 282.473   6
   9 -10  -5 2045.48 270.590  14
   9 -10  -6 853.507 185.737   7
  -9 -10   6 885.361 209.030   6
   9 -10  -6 1364.48 238.491  14
   9 -10  -7 535.398 149.154   7
  -9 -10   7 302.825 141.647   6
   9 -10  -7 359.994 164.666  14
  -9 -10   8 386.103 135.765   6
   9 -10  -8 398.390 169.714  14
   9 -10  -9 1106.91 204.947  14
   9  10   9 998.847 183.732  13
   9 -10 -10 1428.91 204.209  14
   9  10  10 1388.42 187.453  13
   9 -10 -11 5710.48 328.996  14
   9  10  11 4993.27 291.687  13
   9 -10 -12 3107.91 211.238  14
   9  10  12 2812.53 187.831  13
  -9 -11  -5 2198.66 243.203   6
  -9 -11  -5 2075.87 227.439   8
  -9 -11  -4 4629.79 370.470   6
  -9 -11  -4 4608.15 346.514   8
   9 -11   3 319.287 162.404  12
  -9 -11  -3 328.393 155.533   6
  -9 -11  -3 422.430 158.681   8
   9 -11   2 1958.47 270.331  12
  -9 -11  -2 1882.38 287.485   6
  -9 -11  -2 1835.73 255.175   8
   9 -11   1 1960.08 267.239  12
  -9 -11  -1 1973.90 298.299   6
  -9 -11  -1 1951.63 262.742   8
   9 -11   0 323.498 161.276  12
  -9 -11   0 408.561 190.866   6
   9 -11  -1 1872.08 263.233  12
  -9 -11   1 2383.97 339.228   6
   9 -11  -2 1840.10 243.106  12
   9 -11  -2 1711.79 245.714   7
  -9 -11   2 1934.40 309.827   6
   9 -11  -3 496.771 155.935  12
   9 -11  -3 442.666 158.343   7
  -9 -11   3 448.682 195.079   6
   9 -11  -3 574.370 157.670  14
  -9 -11   4 4236.96 392.467   6
   9 -11  -4 4730.20 350.993  14
   9 -11  -4 4190.77 322.649   7
   9 -11  -4 4508.72 347.070  12
   9 -11  -5 1933.93 232.833  12
  -9 -11   5 1754.79 265.607   6
   9 -11  -5 2067.22 248.804  14
   9 -11  -6 1069.13 176.518  12
  -9 -11   6 957.381 193.768   6
   9 -11  -6 1249.06 212.268  14
  -9 -11   7 273.328 128.036   6
   9 -11  -7 423.588 149.990  14
   9 -11  -8 9274.41 456.017  14
   9  11   8 8147.15 407.008  13
   9 -11  -9 687.034 148.378  14
   9  11   9 721.086 133.679  13
   9 -11 -10 442.660 115.586  14
   9  11  10 185.170 76.3101  13
   9 -11 -11 816.434 122.222  14
  -9 -12  -5 8103.86 363.732   6
  -9 -12  -4 2476.80 243.584   6
  -9 -12  -4 2597.82 239.390   8
  -9 -12  -3 4319.95 341.409   6
  -9 -12  -3 4311.70 321.669   8
   9 -12   2 922.427 194.791  12
  -9 -12  -2 844.086 201.012   6
  -9 -12  -2 801.791 178.873   8
  -9 -12  -1 2066.37 280.017   6
  -9 -12  -1 2147.60 255.807   8
   9 -12   1 2352.76 270.470  12
  -9 -12   0 3323.84 341.567   6
  -9 -12   0 2936.39 300.098   8
   9 -12   0 2939.98 292.213  12
  -9 -12   1 2415.74 302.142   6
  -9 -12   1 2125.86 269.193   8
   9 -12  -1 2259.76 258.057  12
   9 -12  -2 815.948 178.100  12
  -9 -12   2 823.898 207.044   6
  -9 -12   3 4592.58 387.101   6
   9 -12  -3 4610.89 334.026  12
  -9 -12   4 2506.35 284.685   6
   9 -12  -4 2892.53 238.796  14
   9 -12  -4 2396.27 248.250  12
  -9 -12   5 9273.96 479.994   6
   9 -12  -5 8716.13 405.810  14
   9 -12  -5 8398.24 396.585  12
   9 -12  -6 1599.91 174.086  12
   9 -12  -6 1852.09 200.736  14
  -9 -12   6 1805.62 216.678   6
   9 -12  -7 6245.98 335.175  14
   9  12   7 5154.35 266.534  13
   9 -12  -8 1438.26 167.400  14
   9 -12  -9 6588.78 297.135  14
   9 -12 -10 1438.82 127.799  14
  -9 -13  -4-36.1504 79.6408   6
  -9 -13  -3 356.286 108.163   6
  -9 -13  -3 362.955 108.523   8
  -9 -13  -2 1174.08 171.207   6
  -9 -13  -2 1286.86 184.506   8
  -9 -13  -1 2033.72 231.105   6
  -9 -13  -1 1846.00 213.141   8
   9 -13   1 1888.79 212.916  12
  -9 -13   0 2391.53 259.515   6
  -9 -13   0 2270.47 236.983   8
   9 -13   0 2354.49 234.646  12
  -9 -13   1 2110.85 240.790   6
  -9 -13   1 1759.85 220.678   8
   9 -13  -1 2079.59 223.507  12
   9 -13  -2 1537.08 190.852  12
  -9 -13   2 1767.14 232.241   6
  -9 -13   2 2018.18 230.972   8
   9 -13  -3 467.614 117.449  12
  -9 -13   3 466.788 151.667   6
  -9 -13   3 157.984 114.717   8
   9 -13  -4 168.242 91.8013  12
  -9 -13   4 59.7769 113.572   6
  -9 -13   4 67.4877 100.149   8
  -9 -13   5 2591.28 232.771   8
   9 -13  -5 2371.97 183.619  12
   9 -13  -6 697.571 100.984  14
  -9 -13   6 728.992 136.737   8
   9 -13  -7 229.099 68.1235  14
  -9 -13   7 323.826 98.9002   8
  -9 -13   8-103.849 62.0268   8
  -9 -14  -1 4347.70 255.979   8
  -9 -14   0 607.427 123.838   8
  -9 -14   1 3937.20 257.719   8
   9 -14  -1 3832.51 228.566  12
   9 -14  -2 911.897 122.290  12
  -9 -14   2 894.955 137.776   8
  -9 -14   3 3472.78 230.448   8
   9 -14  -3 2959.20 177.355  12
  -9 -14   4 317.145 97.2000   8
  -9 -14   5 1025.10 120.817   8
  10   0   0 133.554 136.358  14
  10   0  -1 25087.1 885.549  14
  10   0   2 34289.6 1313.73   4
  10   0  -2 34773.3 1043.08  14
  10   0   2 33721.7 1004.78  11
  10   0  -2 33515.3 1476.48   2
  10   0   3 11159.1 789.318   4
  10   0  -3 12121.9 597.894   7
  10   0  -3 11907.7 629.833  14
  10   0   3 11720.2 602.025  11
  10   0  -3 13093.1 953.706   2
  10   0   4 325.473 232.558   4
  10   0  -4 379.109 192.877   7
  10   0   4 459.249 171.457  11
  10   0  -4 235.450 164.767  14
  10   0   5 184.345 146.632  11
  10   0  -5-124.646 161.455   7
  10   0  -5 19.4532 142.002  14
  10   0  -6 7139.95 499.807   7
  10   0   6 7712.66 513.003  11
  10   0  -6 6733.98 741.998   2
  10   0  -6 7145.96 504.244  14
  10   0   7 303.561 141.956  11
  10   0  -7 681.490 203.627   7
  10   0  -7 591.910 183.865  14
  10   0  -8 3840.20 396.142   7
  10   0  -8 3701.90 362.561  14
  10   0  -9 378.155 196.931   7
  10   0  -9 332.156 117.928  14
  10   0 -10 25173.0 951.863   7
  10   0 -10 24355.5 825.333  14
  10   0  10 25229.6 858.223  13
  10   0 -11 222.828 173.637   7
  10   0  11 343.081 123.001  13
  10   0 -12 125.012 164.350   7
  10   0  12 136.534 104.806  13
  10   0 -13 4546.30 371.931   7
  10   0 -14 937.844 192.189   7
  10   0 -15 901.735 156.941   7
  10   0 -16 1059.95 133.797   7
  10   1 -16 4114.98 229.693   7
  10   1 -15 1380.52 184.018   7
  10   1 -14 4117.72 324.283   7
  10   1 -13 418.622 180.999   7
  10   1 -12 989.024 222.627   7
  10   1 -11 1881.97 289.887   7
  10   1 -10 9821.73 594.769   7
  10   1  -9 9544.93 589.680   7
  10   1  -9 9445.72 533.413  14
  10   1  -8 5639.64 456.017   7
  10   1  -8 4867.15 393.415  14
  10   1  -7 6581.96 484.012   7
  10  -1   7 7038.94 460.562  11
  10   1  -7 6523.49 477.045  14
  10  -1   6 2116.68 263.206  11
  10   1  -6 2165.50 297.343   7
  10  -1   6 2942.21 463.171   4
  10   1  -6 2487.66 320.732  14
  10   1  -6 1854.81 375.861   2
  10   1  -5 2066.24 275.294  14
  10  -1   5 2276.32 279.899  11
  10   1  -5 2749.70 323.220   7
  10  -1   5 2512.03 393.596   4
  10   1  -5 2210.41 436.952   2
  10  -1   4 12653.7 899.461   4
  10   1  -4 12670.6 612.312   7
  10  -1   4 12663.4 608.535  11
  10   1  -4 12395.8 640.763  14
  10   1  -4 11640.7 924.646   2
  10  -1   4 12487.4 595.920   7
  10  -1   3 11176.0 798.904   4
  10   1  -3 10958.8 604.024  14
  10  -1   3 10605.9 551.268  11
  10   1  -3 12077.9 925.647   2
  10  -1   2 24257.8 1121.21   4
  10  -1   2 23959.3 831.010  11
  10   1  -2 24454.2 1273.17   2
  10   1  -2 25402.7 897.442  14
  10   1  -1 4766.11 556.298   2
  10  -1   1 5015.14 386.648  14
  10   1   0 9132.27 728.481   2
  10  -1   0 10394.1 571.578  14
  10  -1  -1 5251.45 420.921  14
  10  -1  -2 26070.4 881.555   7
  10   1   2 25991.5 905.326  11
  10  -1  -2 27011.6 922.271  14
  10  -1  -3 11636.8 610.827   7
  10   1   3 12354.1 634.297  11
  10  -1  -3 12464.1 644.269  14
  10  -1  -4 12647.7 649.251   7
  10   1   4 12279.7 640.341  11
  10  -1  -4 11190.6 618.494  14
  10   1   5 2860.50 320.614  11
  10  -1  -5 2516.27 315.893   7
  10  -1  -5 2628.35 336.436  14
  10  -1  -6 2222.15 299.999  14
  10   1   6 1964.24 295.087  11
  10  -1  -6 2139.12 325.017   7
  10  -1  -7 6764.81 510.027   7
  10   1   7 6395.01 480.327  11
  10  -1  -7 6155.49 473.167  14
  10  -1  -8 5748.40 476.195   7
  10  -1  -8 5303.64 438.051  14
  10  -1  -9 9486.26 609.240   7
  10  -1  -9 8866.13 542.706  14
  10  -1 -10 9778.32 611.072   7
  10  -1 -10 8857.69 524.484  14
  10   1  10 9312.26 551.008  13
  10  -1 -11 1742.01 281.038   7
  10  -1 -11 1966.15 249.547  14
  10   1  11 2037.36 266.328  13
  10  -1 -12 744.021 215.648   7
  10   1  12 838.550 178.690  13
  10  -1 -13-6.29405 131.962   7
  10   1  13 134.042 123.217  13
  10  -1 -14 3995.71 326.461   7
  10   1  14 3785.77 270.313  13
  10  -1 -15 1287.42 180.420   7
  10  -1 -16 4441.84 245.196   7
  10   2 -16 4111.84 211.516   7
  10   2 -15 2588.56 220.603   7
  10   2 -14 337.236 138.909   7
  10   2 -13 5575.25 390.033   7
  10   2 -12 4898.41 397.257   7
  10   2 -11 6418.42 464.001   7
  10   2 -10 1410.17 261.221   7
  10   2  -9 4941.66 422.370   7
  10   2  -8 4314.83 386.571   7
  10   2  -7 5597.26 427.349   7
  10   2  -7 4409.75 385.320  14
  10   2  -6 2625.49 308.562  14
  10   2  -6 2716.48 310.125   7
  10  -2   5 2074.56 297.638   7
  10   2  -5 2149.47 291.412  14
  10   2  -5 2110.25 272.459   7
  10  -2   5 2370.05 434.596   4
  10   2  -5 2795.77 490.787   2
  10  -2   4 12607.4 903.246   4
  10   2  -4 12485.3 994.227   2
  10  -2   4 13164.4 649.371   7
  10  -2   3 8899.20 732.545   4
  10   2  -3 10340.2 894.778   2
  10  -2   3 9984.81 556.592   7
  10  -2   2 1656.57 261.124   7
  10  -2   2 1571.79 324.471   4
  10  -2   2 1114.10 206.300  14
  10   2  -2 1822.24 382.325   2
  10  -2   1 8159.09 519.389   7
  10   2  -1 6969.58 666.984   2
  10  -2   1 7144.26 469.181  14
  10  -2   0 2876.24 334.611   7
  10  -2   0 2865.19 315.594  14
  10   2   0 2140.46 355.917   2
  10  -2  -1 8029.44 507.138   7
  10  -2  -1 7496.31 496.572  14
  10  -2  -2 1771.84 266.827   7
  10   2   2 1384.86 248.755  11
  10  -2  -2 1406.76 237.136  14
  10  -2  -3 10885.3 613.674   7
  10   2   3 10290.0 592.541  11
  10  -2  -3 10728.5 602.086  14
  10  -2  -4 12445.9 658.993   7
  10   2   4 13442.7 693.002  11
  10  -2  -5 2758.43 343.847   7
  10   2   5 2611.80 324.445  11
  10  -2  -5 2496.44 336.638  14
  10  -2  -6 3004.87 366.896   7
  10   2   6 3358.68 361.542  11
  10  -2  -6 2909.39 345.134  14
  10  -2  -7 4807.56 447.250   7
  10   2   7 4927.55 442.295  11
  10  -2  -7 4666.59 422.883  14
  10  -2  -8 4348.86 421.710   7
  10  -2  -8 4767.71 431.575  14
  10  -2  -9 5070.64 466.020   7
  10  -2  -9 5336.39 439.227  14
  10  -2 -10 1789.69 293.548   7
  10  -2 -10 1714.44 258.542  14
  10  -2 -11 6834.18 507.835   7
  10  -2 -11 5882.42 416.868  14
  10   2  11 6078.56 451.659  13
  10  -2 -12 6373.95 468.407   7
  10  -2 -12 6359.41 385.846  14
  10   2  12 5653.81 420.317  13
  10  -2 -13 5962.14 423.540   7
  10   2  13 5501.53 381.023  13
  10  -2 -14 349.680 152.940   7
  10   2  14 127.506 102.979  13
  10  -2 -15 2279.12 219.227   7
  10   2  15 2187.02 181.205  13
  10  -2 -16 4662.49 234.674   7
  10   3 -15 3549.22 229.795   7
  10   3 -14 1956.69 215.740   7
  10   3 -13 5599.58 369.123   7
  10   3 -12 2925.27 300.492   7
  10   3 -11 8009.37 493.105   7
  10   3 -10 11099.0 587.835   7
  10   3  -9 1154.49 246.596   7
  10   3  -8 22961.3 832.340   7
  10   3  -7 3900.82 363.647   7
  10  -3   5 2302.42 332.645   7
  10  -3   5 2443.85 474.953   4
  10   3  -5 2472.63 483.922   2
  10  -3   4 19889.0 1132.94   4
  10   3  -4 20433.8 1283.09   2
  10  -3   4 18772.4 802.476   7
  10  -3   3 14402.4 937.255   4
  10  -3   3 15940.8 731.372   7
  10  -3   2 547.053 207.662   7
  10  -3   2 972.601 262.460   4
  10   3  -2 1034.50 276.271   2
  10  -3   2 531.141 168.576  14
  10  -3   1 12929.6 656.761   7
  10  -3   1 12107.3 599.462  14
  10   3  -1 12773.7 924.686   2
  10  -3   0 7309.61 504.990   7
  10   3   0 6605.07 630.867   2
  10  -3   0 6435.84 452.391  14
  10  -3  -1 12960.7 663.339   7
  10   3   1 12687.7 661.517  11
  10  -3  -1 12891.8 642.628  14
  10  -3  -2 374.489 186.640   7
  10   3   2 411.741 187.790  11
  10  -3  -2 732.655 186.618  14
  10  -3  -3 15622.4 749.679   7
  10   3   3 16603.6 773.392  11
  10  -3  -3 16088.0 741.166  14
  10  -3  -4 19941.5 849.615   7
  10   3   4 20650.3 854.961  11
  10  -3  -4 21007.7 852.968  14
  10   3   5 2645.11 347.980  11
  10  -3  -5 2620.45 337.830   7
  10  -3  -5 2056.43 309.464  14
  10   3   6 1294.82 257.981  11
  10  -3  -6 1534.56 298.296   7
  10  -3  -6 1431.21 265.934  14
  10  -3  -7 3054.43 362.127   7
  10   3   7 3041.77 380.077  11
  10  -3  -7 3035.28 348.614  14
  10  -3  -8 23095.6 935.858   7
  10  -3  -8 24051.1 925.156  14
  10  -3  -9-25.3315 174.080   7
  10  -3  -9-0.87445 172.157  14
  10  -3 -10 11981.4 668.570   7
  10  -3 -10 11642.5 615.448  14
  10  -3 -11 8300.03 542.317   7
  10  -3 -11 8445.76 497.329  14
  10   3  11 7556.15 515.286  13
  10  -3 -12 2427.60 310.965   7
  10  -3 -12 2830.94 278.391  14
  10   3  12 2992.84 322.580  13
  10  -3 -13 5148.34 386.919   7
  10  -3 -13 4870.48 297.233  14
  10   3  13 5123.90 372.603  13
  10  -3 -14 1770.55 220.283   7
  10   3  14 1765.69 189.348   9
  10   3  14 1946.10 217.604  13
  10  -3 -15 3535.58 249.548   7
  10   3  15 3578.90 233.947  13
  10   4 -15 282.280 80.6997   7
  10   4 -14 6367.40 317.831   7
  10   4 -13 5170.38 325.584   7
  10   4 -12 1162.95 200.581   7
  10   4 -11 1645.55 236.990   7
  10   4 -10 6459.46 432.640   7
  10   4  -9 3390.35 327.535   7
  10  -4   5 4028.63 412.637   7
  10   4  -4 9332.15 867.987   2
  10  -4   4 10092.3 805.934   4
  10  -4   4 9381.70 598.055   7
  10   4  -3 4023.60 584.127   2
  10  -4   3 4066.20 411.382   7
  10   4  -2 25068.5 1358.03   2
  10  -4   2 22615.2 1136.66   4
  10  -4   2 24103.0 809.627  14
  10  -4   2 25801.7 961.267   7
  10  -4   1 7743.84 481.637  14
  10   4  -1 7891.14 733.928   2
  10  -4   1 8459.83 556.726   7
  10  -4   0 7576.32 545.037   7
  10   4   0 7737.87 530.570  11
  10  -4   0 7803.90 502.487  14
  10  -4  -1 8730.79 581.363   7
  10   4   1 9341.32 591.488  11
  10  -4  -1 8787.58 537.402  14
  10  -4  -2 27150.6 997.943   7
  10   4   2 27143.4 974.149  11
  10  -4  -2 26157.8 931.803  14
  10  -4  -3 3405.37 392.384   7
  10  -4  -3 3985.52 391.722  14
  10  -4  -4 9815.28 621.487   7
  10   4   4 9804.50 608.643  11
  10  -4  -4 10034.3 604.238  14
  10  -4  -5 4089.52 412.864   7
  10   4   5 4554.68 444.804  11
  10  -4  -5 4117.88 408.772  14
  10  -4  -6 10694.8 645.650   7
  10   4   6 12361.3 698.164  11
  10  -4  -6 12012.8 670.908  14
  10  -4  -7 6065.61 497.265   7
  10   4   7 6697.93 520.155  11
  10  -4  -7 6439.62 500.585  14
  10  -4  -8 10467.4 636.970   7
  10  -4  -8 10343.1 619.494  14
  10  -4  -9 4124.02 417.900   7
  10  -4  -9 4107.34 397.093  14
  10  -4 -10 6946.94 508.613   7
  10  -4 -10 7020.89 491.103  14
  10  -4 -11 1681.38 270.580   7
  10  -4 -11 1536.34 238.039  14
  10   4  11 1818.15 274.346  13
  10  -4 -12 636.700 185.576   7
  10  -4 -12 583.253 159.716  14
  10  -4 -13 5039.07 366.260   7
  10  -4 -13 4545.24 294.102  14
  10   4  13 5067.89 368.591  13
  10  -4 -14 6305.48 354.524   7
  10   4  14 5978.76 351.039  13
  10  -4 -15 34.6160 73.9756   7
  10   4  15 245.845 65.4969   9
  10   4  15 276.433 94.1944  13
  10   5 -14 3715.42 202.977   7
  10   5 -13 1721.01 173.583   7
  10   5 -12 2589.77 236.715   7
  10  -5   4 14278.4 748.830   7
  10  -5   3 266.807 177.710   7
  10   5  -2 26340.8 1414.01   2
  10  -5   2 25061.5 1218.19   4
  10  -5   2 25552.6 976.261   7
  10   5  -1 20451.0 1194.34   2
  10   5  -1 21444.9 864.834  11
  10  -5   1 20826.9 770.586  14
  10  -5   1 20914.0 883.974   7
  10  -5   0 15600.5 769.569   7
  10   5   0 16797.7 773.637  11
  10  -5   0 16180.2 701.931  14
  10  -5  -1 21295.6 898.318   7
  10   5   1 21261.5 867.473  11
  10  -5  -1 21559.4 834.161  14
  10  -5  -2 28440.7 1028.96   7
  10   5   2 27934.1 999.326  11
  10  -5  -2 26713.0 945.110  14
  10  -5  -3 324.997 190.522   7
  10  -5  -3 521.553 205.530  14
  10  -5  -4 13694.2 727.370   7
  10   5   4 15146.5 765.617  11
  10  -5  -4 13193.8 692.225  14
  10  -5  -5 16154.2 796.875   7
  10   5   5 16444.2 804.376  11
  10  -5  -5 16590.9 780.264  14
  10  -5  -6 658.733 233.243   7
  10   5   6 1274.27 275.839  11
  10  -5  -6 895.995 226.863  14
  10  -5  -7 12517.4 694.647   7
  10   5   7 12956.5 720.307  11
  10  -5  -7 12345.7 682.673  14
  10  -5  -8 6014.75 490.557   7
  10  -5  -8 5613.43 467.458  14
  10  -5  -9 3368.70 373.179   7
  10  -5  -9 3516.55 376.910  14
  10  -5 -10 7712.08 516.873   7
  10  -5 -10 7694.39 503.981  14
  10  -5 -11 9201.27 538.587   7
  10  -5 -11 8428.27 493.687  14
  10   5  11 7988.09 524.221  13
  10  -5 -12 2765.22 293.177   7
  10  -5 -12 2452.60 259.136  14
  10   5  12 2961.33 314.142  13
  10  -5 -13 2236.69 236.101   7
  10  -5 -13 2335.21 217.632  14
  10   5  13 2790.52 274.237  13
  10  -5 -14 4066.12 260.015   7
  10   5  14 4391.41 292.943  13
  10   5  15 850.330 119.155  13
  10  -6   4 4257.35 441.604   7
  10   6  -3 3604.70 370.746  11
  10  -6   3 3681.57 418.944   7
  10  -6   2 480.732 234.677   7
  10   6  -2 648.881 195.516  11
  10   6  -1 10567.3 610.951  11
  10  -6   1 10921.9 553.589  14
  10  -6   1 10550.7 651.264   7
  10  -6   0 2093.69 326.218   7
  10   6   0 2121.46 315.768  11
  10  -6   0 1866.73 253.093  14
  10  -6  -1 11038.6 660.450   7
  10   6   1 10964.4 635.165  11
  10  -6  -1 11506.2 610.197  14
  10  -6  -2 1006.08 260.612   7
  10   6   2 678.553 179.883  11
  10  -6  -2 785.492 202.793  14
  10  -6  -3 3807.85 418.276   7
  10   6   3 3609.12 385.029  11
  10  -6  -3 3361.24 365.517  14
  10  -6  -4 3896.53 400.340   7
  10   6   4 4385.79 421.634  11
  10  -6  -4 4615.18 418.476  14
  10  -6  -5 283.368 178.489   7
  10   6   5 189.598 177.289  11
  10  -6  -5 250.219 161.348  14
  10  -6  -6 312.142 171.502   7
  10   6   6 622.034 212.200  11
  10  -6  -6 328.017 155.427  14
  10  -6  -7 193.175 167.440   7
  10  -6  -7 84.2593 156.752  14
  10  -6  -8 14253.4 719.948   7
  10  -6  -8 13203.1 689.913  14
  10  -6  -9 970.369 215.920   7
  10  -6  -9 1266.46 257.589  14
  10  -6 -10 2587.96 305.793   7
  10  -6 -10 3335.43 341.403  14
  10  -6 -11 4233.27 354.092   7
  10  -6 -11 3852.87 336.309  14
  10   6  11 4186.70 369.731  13
  10  -6 -12 2494.20 249.989   7
  10  -6 -12 2250.18 239.583  14
  10   6  12 2510.59 282.521  13
  10  -6 -13 3749.36 261.718   7
  10  -6 -13 4264.13 268.593  14
  10   6  13 4218.48 312.578  13
  10  -6 -14 53.5450 68.0480   7
  10   6  14 27.7292 80.4704  13
  10   7  -6 915.360 203.826  11
  10   7  -5 3384.62 324.655  11
  10   7  -4 5002.00 401.368  11
  10  -7   3-46.1171 184.348   7
  10   7  -3 153.473 162.622  11
  10  -7   2 2331.03 341.406   7
  10   7  -2 2645.83 308.307  11
  10   7  -1 10227.8 594.855  11
  10  -7   1 11197.1 674.055   7
  10  -7   0 2124.96 314.664   7
  10   7   0 1928.14 288.867  11
  10  -7   0 1838.89 258.549  14
  10   7   1 10426.1 601.755  11
  10  -7  -1 10827.6 582.741  14
  10  -7  -1 10409.2 647.109   7
  10  -7  -2 2231.22 321.202   7
  10   7   2 2807.66 340.651  11
  10  -7  -2 2692.37 322.734  14
  10  -7  -3 262.249 164.554   7
  10  -7  -3 138.250 141.917  14
  10   7   3 115.376 155.554  11
  10  -7  -4 4553.49 429.715   7
  10   7   4 4626.35 434.273  11
  10  -7  -4 5106.16 443.229  14
  10  -7  -5 4231.66 422.928   7
  10   7   5 4175.04 412.364  11
  10  -7  -5 4760.01 430.992  14
  10  -7  -6 723.648 233.552   7
  10  -7  -6 959.741 236.529  14
  10  -7  -7 11440.4 636.064   7
 -10  -7   7 10407.6 565.924   6
  10  -7  -7 11770.0 650.375  14
  10  -7  -8 6328.72 466.529   7
  10  -7  -8 6259.15 477.282  14
  10  -7  -9 1981.04 266.864   7
  10  -7  -9 2973.32 330.182  14
  10  -7 -10 165.904 126.521   7
  10  -7 -10 124.120 130.715  14
  10  -7 -11 7381.47 410.174   7
  10  -7 -11 8244.66 454.879  14
  10   7  11 8336.76 486.696  13
  10  -7 -12 510.720 128.554   7
  10  -7 -12 689.504 146.902  14
  10   7  12 411.640 146.243  13
  10  -7 -13 505.015 94.0227   7
  10  -7 -13 532.403 113.688  14
  10   7  13 563.104 123.671  13
  10   7  14 405.481 90.5738  13
  10   8  -3 10529.5 553.393  11
  10  -8   3 12054.5 698.676   7
  10   8  -2 8165.94 496.136  11
  10  -8   2 8956.65 607.989   7
  10   8  -1 3447.94 341.780  11
  10  -8   1 3948.28 421.660   7
  10  -8   0 1495.06 277.860   7
  10   8   0 1736.84 264.419  11
  10   8   1 3402.32 350.928  11
  10  -8  -1 4128.42 358.600  14
  10  -8  -1 3816.27 400.162   7
  10   8   2 9405.20 568.480  11
  10  -8  -2 9699.26 552.135  14
  10  -8  -2 9255.05 593.826   7
  10   8   3 12126.7 646.978  11
  10  -8  -3 11896.8 626.998  14
  10  -8  -3 11867.8 669.058   7
  10  -8  -4 927.995 244.680   7
  10   8   4 680.297 202.279  11
  10  -8  -4 651.721 203.533  14
  10  -8  -5 1960.67 290.825   7
  10  -8  -5 1626.20 260.775  14
  10  -8  -6 3608.84 368.245   7
 -10  -8   6 3142.78 350.965   6
  10  -8  -6 3789.29 381.451  14
  10  -8  -7 2424.29 297.895   7
 -10  -8   7 2106.49 258.448   6
  10  -8  -7 2760.30 324.938  14
  10  -8  -8 127.946 140.720   7
  10  -8  -8 309.058 173.809  14
  10  -8  -9 5210.79 366.376   7
  10  -8  -9 4741.06 389.331  14
  10  -8 -10 2668.41 249.701   7
  10  -8 -10 2935.93 294.194  14
  10   8  10 2971.96 307.559  13
  10  -8 -11 310.195 103.939   7
  10  -8 -11 158.647 117.710  14
  10   8  11 317.401 125.645  13
  10  -8 -12 246.784 76.0017   7
  10  -8 -12 569.592 127.130  14
  10   8  12 397.361 113.695  13
  10  -8 -13 897.050 110.820  14
  10   8  13 771.485 121.223  13
 -10  -9  -6 4679.95 352.197   6
 -10  -9  -3 7481.68 429.813   8
 -10  -9  -2 8797.88 493.390   8
  10  -9   2 9056.19 591.935   7
  10  -9   1 7231.21 535.263   7
  10  -9   0 1799.21 292.184   7
  10   9   0 1276.39 213.957  11
  10   9   1 6698.26 451.253  11
  10  -9  -1 7682.75 450.551  14
  10  -9  -1 7464.79 534.106   7
  10   9   2 8230.93 504.098  11
  10  -9  -2 9086.33 506.425  14
  10  -9  -2 8507.78 558.099   7
  10  -9  -3 8984.89 518.409  14
  10  -9  -3 8350.24 535.858   7
  10  -9  -4 1985.55 276.219   7
 -10  -9   4 1774.67 293.476   6
  10  -9  -4 2024.34 269.941  14
  10  -9  -5 1442.62 247.223   7
 -10  -9   5 1682.67 273.309   6
  10  -9  -5 1614.74 258.019  14
 -10  -9   6 4704.26 390.644   6
  10  -9  -6 5131.65 407.548  14
  10  -9  -6 4621.16 376.285   7
  10  -9  -7 481.895 159.166   7
 -10  -9   7 603.271 169.360   6
  10  -9  -7 788.443 189.048  14
 -10  -9   8 2493.11 230.317   6
  10  -9  -8 2953.78 305.034  14
  10  -9  -8 2492.43 251.943   7
  10  -9  -9 188.626 96.1392   7
  10  -9  -9 792.478 179.021  14
  10  -9 -10 2652.67 257.898  14
  10   9  10 2525.24 253.655  13
  10  -9 -10 2165.07 187.236   7
  10  -9 -11 6216.65 331.675  14
  10   9  11 5683.57 322.332  13
  10  -9 -12 369.135 91.3966  14
  10   9  12 392.454 94.3225  13
 -10 -10  -5 2669.88 284.420   6
 -10 -10  -4 1946.32 266.305   6
 -10 -10  -4 1561.29 196.185   8
 -10 -10  -3 8427.91 529.347   6
 -10 -10  -3 8149.65 439.758   8
 -10 -10  -2 219.549 161.786   6
 -10 -10  -2 99.3802 113.609   8
  10 -10   2 149.847 125.840  12
  10 -10   1 542.211 155.730  12
 -10 -10  -1 499.808 152.613   8
 -10 -10  -1 739.930 229.571   6
 -10 -10   0 5303.54 467.657   6
  10 -10   0 5213.99 429.627   7
  10 -10  -1 747.198 206.890   7
 -10 -10   1 366.187 215.819   6
  10 -10  -2 148.928 159.338   7
 -10 -10   2 179.216 165.681   6
  10 -10  -2 273.033 124.842  14
 -10 -10   3 9139.48 575.808   6
  10 -10  -3 9799.30 498.520  14
 -10 -10   4 1799.55 278.213   6
  10 -10  -4 2602.89 280.074  14
  10 -10  -4 2275.18 277.052   7
 -10 -10   5 2551.91 301.888   6
  10 -10  -5 2851.87 297.734  14
  10 -10  -5 2187.45 260.436   7
  10 -10  -6 302.638 117.663   7
 -10 -10   6 746.165 179.522   6
  10 -10  -6 769.363 176.261  14
 -10 -10   7 3568.96 286.646   6
  10 -10  -7 3958.88 323.034  14
  10 -10  -7 3544.58 271.268   7
  10 -10  -8 1421.47 157.850   7
 -10 -10   8 1917.99 180.660   6
  10 -10  -8 2033.93 236.677  14
  10 -10  -9 3030.49 261.280  14
  10  10   9 2816.49 246.758  13
  10 -10 -10 375.088 113.910  14
  10  10  10 304.085 99.0062  13
  10 -10 -11 570.060 108.977  14
  10  10  11 624.179 97.9422  13
 -10 -11  -5 6450.01 347.806   6
 -10 -11  -4 2719.74 261.462   6
 -10 -11  -4 2265.82 214.005   8
 -10 -11  -3 7158.05 381.647   8
 -10 -11  -3 7700.59 455.898   6
 -10 -11  -2 2419.61 289.529   6
 -10 -11  -2 2024.17 232.576   8
  10 -11   1 747.559 165.450  12
 -10 -11  -1 855.277 206.985   6
 -10 -11  -1 808.079 169.947   8
 -10 -11   0 11227.2 603.032   6
 -10 -11   0 9738.34 499.789   8
  10 -11   0 9698.07 454.352  12
  10 -11  -1 816.286 159.759  12
 -10 -11   1 879.090 217.960   6
 -10 -11   2 2505.58 308.423   6
 -10 -11   3 7503.26 489.258   6
  10 -11  -3 7532.81 378.905  14
  10 -11  -3 7701.99 418.872   7
 -10 -11   4 3172.98 309.679   6
  10 -11  -4 3444.31 274.903  14
  10 -11  -4 2930.00 259.762   7
 -10 -11   5 6853.10 419.659   6
  10 -11  -5 7022.81 381.884  14
  10 -11  -5 6147.81 325.118   7
 -10 -11   6 1616.58 204.955   6
  10 -11  -6 1778.04 209.628  14
 -10 -11   7 4290.36 265.161   6
  10 -11  -7 4845.78 306.824  14
  10 -11  -8 1914.98 192.277  14
  10  11   8 1783.24 179.733  13
  10 -11  -9 6470.39 302.796  14
  10  11   9 5125.89 244.635  13
  10 -11 -10 1866.64 149.994  14
 -10 -12  -4 57.1900 73.7647   6
 -10 -12  -3 377.550 124.254   6
 -10 -12  -3 571.975 120.254   8
 -10 -12  -2 1458.58 198.715   6
 -10 -12  -2 1585.55 187.849   8
 -10 -12  -1 1683.66 229.110   6
 -10 -12  -1 1555.05 196.785   8
 -10 -12   0 32.1217 125.297   6
 -10 -12   0-119.697 114.006   8
  10 -12   0 40.5131 95.1990  12
  10 -12  -1 1621.81 180.276  12
 -10 -12   1 1936.39 244.314   6
 -10 -12   1 1902.36 221.779   8
 -10 -12   2 1731.51 227.672   6
 -10 -12   2 1793.92 217.415   8
 -10 -12   3 750.854 169.181   6
 -10 -12   3 801.908 160.002   8
 -10 -12   4 48.8319 110.450   6
 -10 -12   5 95.2676 104.199   6
  10 -12  -5-71.2208 70.2583  14
  10 -12  -6-4.33600 65.1201  14
  10  12   6 12.8690 52.2312  13
  10 -12  -7 679.011 106.180  14
  10 -12  -8 453.917 80.7255  14
 -10 -13  -3 832.149 114.398   6
 -10 -13  -2 2602.57 205.704   6
 -10 -13  -2 2450.03 184.853   8
 -10 -13  -1 1663.98 178.944   6
 -10 -13  -1 1671.93 169.745   8
 -10 -13   0 5453.19 315.343   6
 -10 -13   0 5311.60 290.023   8
 -10 -13   1 1534.09 170.980   8
 -10 -13   1 1715.22 191.074   6
 -10 -13   2 2767.30 232.826   6
 -10 -13   2 2753.35 217.443   8
 -10 -13   3 1016.66 151.084   6
 -10 -13   3 777.195 135.499   8
 -10 -13   4 2134.04 184.862   8
 -10 -13   5 1120.18 132.040   8
 -10 -13   6 985.347 114.162   8
  11   0   0-23.2457 144.195   7
  11   0  -1 9400.02 545.373   7
  11   0   1 10322.4 600.715  11
  11   0  -2 19712.8 773.555   7
  11   0   2 19111.6 808.475  11
  11   0  -2 20603.3 854.806  14
  11   0  -3 4631.99 408.646   7
  11   0   3 5123.68 431.449  11
  11   0  -3 4989.55 444.455  14
  11   0  -4 817.962 229.524  14
  11   0  -4 884.813 215.273   7
  11   0   4 370.363 163.389  11
  11   0  -5 816.359 193.501   7
  11   0   5 1102.75 226.888  11
  11   0  -5 960.908 233.127  14
  11   0   6 54.3087 115.611  11
  11   0  -6 63.5806 165.502   7
  11   0  -6 331.796 152.803  14
  11   0   7 917.201 194.451  11
  11   0  -7 1006.51 251.626   7
  11   0  -7 731.239 212.336  14
  11   0  -8 375.808 178.509   7
  11   0  -8 56.8254 141.909  14
  11   0  -9 466.638 158.182  14
  11   0  -9 559.243 196.680   7
  11   0 -10 438.495 157.832  14
  11   0 -10 605.517 183.999   7
  11   0 -11 5402.44 419.173   7
  11   0 -12 156.167 144.631   7
  11   0 -13 59.1421 119.030   7
  11   0 -14 7540.75 368.893   7
  11   0 -15 4159.04 231.070   7
  11   1 -15 1975.27 157.590   7
  11   1 -14 822.646 141.922   7
  11   1 -13 2518.30 253.869   7
  11   1 -12 1620.25 224.476   7
  11   1 -11 1313.39 233.802   7
  11   1 -10 8096.46 509.270   7
  11   1  -9 936.479 215.549   7
  11   1  -8 4542.00 407.488   7
  11   1  -7 6533.35 476.508   7
  11  -1   7 7138.04 463.610  11
  11   1  -7 7217.12 493.273  14
  11   1  -6 4195.88 385.202   7
  11  -1   6 3899.85 351.780  11
  11   1  -6 3713.83 374.680  14
  11   1  -5 6557.97 467.117   7
  11  -1   5 7058.97 477.682  11
  11   1  -5 7156.70 514.546  14
  11   1  -4 2746.60 323.269   7
  11  -1   4 2733.49 306.935  11
  11   1  -4 2442.21 336.398  14
  11  -1   4 2941.00 316.335   7
  11   1  -3 4745.14 385.322   7
  11  -1   3 5391.47 424.773  11
  11  -1   3 4529.53 379.793   7
  11  -1   2 31367.3 1002.44  11
  11  -1   2 30154.8 950.308   7
  11  -1   1 12732.6 652.010  11
  11  -1   1 12412.5 620.055   7
  11  -1   0 2373.92 315.409   7
  11  -1   0 2456.50 324.702  14
  11  -1  -1 12927.2 644.091   7
  11   1   1 14357.2 719.108  11
  11  -1  -1 14148.2 704.753  14
  11  -1  -2 29926.5 991.569   7
  11   1   2 31399.1 1049.21  11
  11  -1  -2 31795.0 1055.10  14
  11  -1  -3 4934.48 438.820   7
  11   1   3 5352.45 446.072  11
  11  -1  -3 5020.54 447.187  14
  11  -1  -4 2171.56 310.678  14
  11  -1  -4 2378.86 317.702   7
  11   1   4 2389.93 301.970  11
  11  -1  -5 7440.68 531.798   7
  11   1   5 6880.51 504.689  11
  11  -1  -5 7301.88 532.149  14
  11  -1  -6 3806.85 391.961   7
  11   1   6 3118.19 343.873  11
  11  -1  -6 3819.83 399.897  14
  11  -1  -7 6737.20 503.939   7
  11   1   7 6534.51 490.480  11
  11  -1  -7 5924.29 473.362  14
  11  -1  -8 5161.13 453.228   7
  11  -1  -8 5561.59 443.359  14
  11  -1  -9 800.336 233.726   7
  11  -1  -9 770.129 198.989  14
  11  -1 -10 7253.12 508.500   7
  11  -1 -10 7809.32 472.942  14
  11   1  10 7908.59 474.299  13
  11  -1 -11 1045.28 224.914   7
  11  -1 -11 1283.94 192.885  14
  11   1  11 1400.52 209.400  13
  11  -1 -12 2074.30 266.582   7
  11   1  12 1820.09 216.910  13
  11  -1 -13 2664.24 265.973   7
  11   1  13 2199.91 192.683  13
  11  -1 -14 753.053 147.282   7
  11  -1 -15 1932.18 165.946   7
  11   2 -14 41.7771 84.0028   7
  11   2 -13 399.311 138.961   7
  11   2 -12 1603.16 216.349   7
  11   2 -11 3334.65 313.011   7
  11   2 -10 759.808 193.052   7
  11   2  -9 12626.8 619.546   7
  11   2  -8 21934.8 814.142   7
  11   2  -7 756.709 206.447   7
  11   2  -6 2686.63 295.581   7
  11   2  -5 272.503 151.874   7
  11  -2   4 16266.2 731.564   7
  11  -2   3 17007.1 708.720  11
  11  -2   3 16519.0 741.424   7
  11  -2   2 687.021 208.097   7
  11  -2   2 618.647 171.716  11
  11  -2   1 1581.79 284.171   7
  11  -2   1 1177.17 214.793  11
  11   2  -1 1257.47 286.839   2
  11  -2   0-48.4366 140.513   7
  11  -2   0-54.9412 186.633  14
  11  -2  -1 1186.56 252.104   7
  11   2   1 1046.78 230.652  11
  11  -2  -1 1314.46 261.046  14
  11  -2  -2 803.543 237.468   7
  11   2   2 682.461 217.373  11
  11  -2  -2 971.023 232.297  14
  11  -2  -3 16879.9 787.000   7
  11   2   3 17703.9 809.834  11
  11  -2  -3 18249.2 813.121  14
  11  -2  -4 16699.0 789.394   7
  11   2   4 16532.0 783.720  11
  11  -2  -4 14831.0 741.042  14
  11  -2  -5 411.597 203.406   7
  11   2   5 275.643 199.264  11
  11  -2  -5 349.432 199.686  14
  11  -2  -6 2180.32 311.438   7
  11   2   6 2282.58 304.317  11
  11  -2  -6 2040.19 294.963  14
  11   2   7 753.785 224.237  11
  11  -2  -7 1049.45 237.168   7
  11  -2  -7 886.794 234.010  14
  11  -2  -8 21569.5 894.768   7
  11  -2  -8 21757.8 864.294  14
  11  -2  -9 13191.9 689.261   7
  11  -2  -9 12931.1 654.313  14
  11  -2 -10 780.300 227.874   7
  11  -2 -10 457.932 155.515  14
  11   2  10 711.455 183.177  13
  11  -2 -11 4615.92 395.707   7
  11  -2 -11 3592.44 306.070  14
  11   2  11 3759.09 332.872  13
  11  -2 -12 1552.52 240.001   7
  11  -2 -12 1375.81 171.389  14
  11   2  12 1730.85 219.105  13
  11  -2 -13 399.386 145.443   7
  11   2  13 381.370 119.887  13
  11  -2 -14 118.348 94.9386   7
  11   2  14 14.2745 60.7066  13
  11  -2 -15 627.273 101.790   7
  11   3 -14 658.979 105.419   7
  11   3 -13 1979.51 191.783   7
  11   3 -12 7466.69 396.972   7
  11   3 -11 2338.95 255.878   7
  11   3 -10 984.889 194.391   7
  11   3  -9 5604.86 393.204   7
  11   3  -8 11718.7 567.527   7
  11   3  -7 2278.46 279.693   7
  11  -3   4 21196.3 860.270   7
  11  -3   3 10275.9 618.870   7
  11  -3   2 4149.89 407.777   7
  11  -3   1 6189.77 456.969  14
  11  -3   1 7202.99 525.791   7
  11  -3   0 11172.5 648.758   7
  11   3   0 11980.9 677.034  11
  11  -3   0 12418.0 645.887  14
  11  -3  -1 6625.35 511.820   7
  11   3   1 7748.47 548.355  11
  11  -3  -1 6913.92 502.316  14
  11  -3  -2 3793.08 394.736   7
  11   3   2 4555.86 435.322  11
  11  -3  -2 4343.18 412.211  14
  11  -3  -3 10392.9 634.364   7
  11   3   3 11616.4 668.298  11
  11  -3  -3 10959.1 642.655  14
  11  -3  -4 22659.3 926.928   7
  11   3   4 22843.3 930.791  11
  11  -3  -4 21963.1 900.298  14
  11  -3  -5 5958.74 491.839   7
  11   3   5 6995.35 528.015  11
  11  -3  -5 6121.85 495.059  14
  11  -3  -6 1447.45 284.635   7
  11  -3  -6 981.378 248.075  14
  11   3   7 2086.49 316.555  11
  11  -3  -7 1366.29 280.640   7
  11  -3  -7 1554.13 272.434  14
  11  -3  -8 12858.1 700.209   7
  11  -3  -8 12256.6 664.888  14
  11  -3  -9 5969.40 484.652   7
  11  -3  -9 5666.44 443.067  14
  11  -3 -10 540.080 190.975   7
  11  -3 -10 412.314 157.892  14
  11  -3 -11 2046.92 278.652   7
  11  -3 -11 1938.31 233.660  14
  11   3  11 1946.58 258.993  13
  11  -3 -12 8211.18 468.166   7
  11  -3 -12 7778.43 386.324  14
  11   3  12 7813.42 432.655  13
  11  -3 -13 2355.98 250.244   7
  11   3  13 2091.04 208.588  13
  11  -3 -14 693.505 130.820   7
  11   3  14 904.223 124.195  13
  11  -3 -15 484.731 85.8701   7
  11   4 -13 4620.39 240.547   7
  11   4 -12 7146.39 340.862   7
  11   4 -11 3673.97 277.225   7
  11   4 -10 7371.79 405.840   7
  11  -4   4 932.620 258.104   7
  11  -4   3 20158.6 870.552   7
  11  -4   2 7079.17 536.336   7
  11   4  -1 18936.6 846.347  11
  11  -4   1 18311.6 752.661  14
  11  -4   1 18157.8 832.713   7
  11  -4   0 13516.4 727.205   7
  11   4   0 13154.6 706.934  11
  11  -4   0 13727.3 677.353  14
  11  -4  -1 18272.9 837.853   7
  11   4   1 18760.6 842.179  11
  11  -4  -1 17786.6 777.000  14
  11  -4  -2 7051.24 535.404   7
  11   4   2 8495.47 584.601  11
  11  -4  -2 8309.69 552.029  14
  11  -4  -3 19929.2 881.487   7
  11   4   3 20916.9 892.987  11
  11  -4  -3 20439.9 860.552  14
  11  -4  -4 272.452 195.686   7
  11   4   4 431.640 175.991  11
  11  -4  -4 681.874 209.569  14
  11  -4  -5 7556.76 553.700   7
  11   4   5 8262.34 579.669  11
  11  -4  -5 7666.78 547.012  14
  11   4   6 2801.18 355.111  11
  11  -4  -6 2515.71 351.141   7
  11  -4  -6 2453.87 325.304  14
  11   4   7 587.232 207.457  11
  11  -4  -7 345.034 203.314   7
  11  -4  -7 487.061 194.471  14
  11  -4  -8 2328.17 327.471   7
  11  -4  -8 2091.13 301.405  14
  11  -4  -9 9265.84 572.599   7
  11  -4  -9 8936.45 547.464  14
  11  -4 -10 7385.34 494.855   7
  11  -4 -10 7560.01 469.326  14
  11  -4 -11 3918.79 350.508   7
  11  -4 -11 3816.94 316.798  14
  11   4  11 3527.65 333.116  13
  11  -4 -12 7368.68 428.190   7
  11  -4 -12 7175.91 370.836  14
  11   4  12 7462.03 426.690  13
  11  -4 -13 4836.22 311.974   7
  11  -4 -13 4305.29 230.923  14
  11   4  13 5033.64 307.960  13
  11  -4 -14 2163.10 180.629   7
  11   4  14 1932.95 163.061  13
  11  -5   4 1755.25 304.916   7
  11  -5   3 4973.67 462.164   7
  11   5  -2 3796.51 391.529  11
  11  -5   2 4221.62 346.995  14
  11  -5   2 4140.14 431.848   7
  11   5  -1 4399.98 414.517  11
  11  -5   1 4378.87 363.744  14
  11  -5   1 4732.62 458.084   7
  11  -5   0 1211.97 258.567   7
  11   5   0 1418.85 271.582  11
  11  -5   0 1412.03 237.051  14
  11  -5  -1 4361.35 439.368   7
  11   5   1 4361.40 423.861  11
  11  -5  -1 4483.97 405.737  14
  11  -5  -2 3610.99 409.505   7
  11   5   2 4203.52 417.877  11
  11  -5  -2 3779.65 388.440  14
  11  -5  -3 5486.85 489.456   7
  11   5   3 5030.87 461.505  11
  11  -5  -3 4899.57 442.821  14
  11  -5  -4 2090.87 337.878   7
  11   5   4 1800.51 298.479  11
  11  -5  -4 1642.64 272.614  14
  11  -5  -5 1655.27 288.756   7
  11   5   5 1715.85 293.694  11
  11  -5  -5 2050.12 301.828  14
  11  -5  -6 11909.6 681.101   7
  11   5   6 11053.9 661.275  11
  11  -5  -6 11318.4 645.820  14
  11  -5  -7 4229.17 422.603   7
  11  -5  -7 4314.97 415.433  14
  11  -5  -8 650.199 219.187   7
  11  -5  -8 578.612 207.523  14
  11  -5  -9 7540.34 510.111   7
  11  -5  -9 7412.12 488.973  14
  11  -5 -10 6258.22 441.704   7
  11  -5 -10 6275.37 426.417  14
  11  -5 -11 1218.88 209.225   7
  11  -5 -11 1281.57 198.185  14
  11   5  11 1251.11 206.347  13
  11  -5 -12 725.596 160.294   7
  11  -5 -12 618.117 131.993  14
  11   5  12 641.982 160.736  13
  11  -5 -13 1763.11 184.603   7
  11  -5 -13 1359.35 135.065  14
  11   5  13 1729.51 187.098  13
  11  -5 -14 545.282 91.1125   7
  11   5  14 528.102 92.7280  13
  11   6  -5 7103.87 486.306  11
  11   6  -4 1427.27 247.552  11
  11  -6   3 1218.97 284.388   7
  11   6  -3 785.195 218.018  11
  11  -6   2 982.753 254.781   7
  11   6  -2 1354.50 248.549  11
  11  -6   1 489.949 229.048   7
  11  -6   1 183.608 122.143  14
  11  -6   0-148.027 166.806   7
  11   6   0-73.1037 139.057  11
  11  -6   0-31.4929 105.295  14
  11  -6  -1 390.789 218.167   7
  11   6   1 333.424 166.520  11
  11  -6  -1 301.063 137.042  14
  11  -6  -2 1406.96 290.080   7
  11   6   2 1616.92 288.246  11
  11  -6  -2 1478.43 257.874  14
  11  -6  -3 798.638 236.269   7
  11   6   3 807.568 225.994  11
  11  -6  -3 1058.72 247.539  14
  11  -6  -4 1408.24 274.017   7
  11   6   4 1215.14 254.820  11
  11  -6  -4 1888.61 286.583  14
  11  -6  -5 7748.93 550.364   7
  11   6   5 7387.38 535.192  11
  11  -6  -5 7489.17 526.539  14
  11  -6  -6 5099.19 455.265   7
  11   6   6 5078.80 455.763  11
  11  -6  -6 5278.45 447.293  14
  11  -6  -7 17532.6 785.341   7
  11  -6  -7 17433.5 771.945  14
  11  -6  -8 434.385 182.699  14
  11  -6  -8 351.857 171.218   7
  11  -6  -9 2389.65 296.021   7
  11  -6  -9 2176.33 287.963  14
  11  -6 -10 6082.40 409.422   7
  11  -6 -10 6014.62 404.339  14
  11  -6 -11 848.089 182.832   7
  11  -6 -11 793.976 159.218  14
  11   6  11 874.193 180.543  13
  11  -6 -12 764.695 140.170   7
  11  -6 -12 638.736 127.295  14
  11   6  12 755.099 141.735  13
  11  -6 -13 97.7851 70.8548   7
  11  -6 -13 299.254 65.1448  14
  11   6  13 207.112 88.5963  13
  11   7  -7 3263.33 283.198  11
  11   7  -6 3418.00 298.424  11
  11   7  -5 426.907 147.055  11
  11   7  -4 1229.15 220.817  11
  11   7  -3 11635.1 608.512  11
  11  -7   3 12232.2 700.859   7
  11   7  -2 4269.64 385.669  11
  11  -7   2 4079.30 443.317   7
  11   7  -1 9951.48 583.651  11
  11  -7   1 9547.06 623.741   7
  11   7   0 3182.13 354.138  11
  11  -7   0 3397.65 315.989  14
  11  -7   0 2936.35 375.735   7
  11   7   1 8933.91 569.200  11
  11  -7  -1 9344.25 533.753  14
  11  -7  -1 8886.40 591.533   7
  11   7   2 4374.58 410.412  11
  11  -7  -2 5019.20 411.314  14
  11  -7  -2 4000.81 425.178   7
  11   7   3 13313.7 693.438  11
  11  -7  -3 11668.0 624.141  14
  11  -7  -3 11449.8 662.030   7
  11  -7  -4 1076.89 262.337   7
  11   7   4 1028.26 220.048  11
  11  -7  -4 1244.54 231.832  14
  11   7   5 594.365 199.134  11
  11  -7  -5 318.665 190.256   7
  11  -7  -5 510.590 180.874  14
  11  -7  -6 4297.80 394.376   7
  11  -7  -6 3977.97 381.718  14
  11  -7  -7 3666.39 360.459   7
 -11  -7   7 4364.36 346.248   6
  11  -7  -7 4253.78 381.898  14
  11  -7  -8 892.834 204.737   7
  11  -7  -8 1235.99 234.047  14
  11  -7  -9 3112.05 299.461   7
  11  -7  -9 3062.04 312.139  14
  11  -7 -10 1262.76 197.108   7
  11  -7 -10 936.349 178.799  14
  11   7  10 1361.56 218.542  13
  11  -7 -11 976.651 152.303   7
  11  -7 -11 1377.45 180.222  14
  11   7  11 1198.15 187.715  13
  11  -7 -12 143.380 75.2071   7
  11  -7 -12 226.236 90.8490  14
  11   7  12 163.218 84.9847  13
  11   7  13 2241.17 160.731  13
  11   8  -4 1315.57 193.875  11
  11   8  -3 4937.71 370.364  11
  11  -8   2 949.046 250.119   7
  11   8  -2 989.328 198.369  11
  11   8  -1 5495.73 418.455  11
  11  -8   1 5676.57 484.622   7
  11   8   0 11271.1 589.203  11
  11  -8   0 11732.8 669.817   7
  11   8   1 5448.24 428.539  11
  11  -8  -1 5284.21 384.617  14
  11  -8  -1 5097.37 453.467   7
  11  -8  -2 1216.25 260.540   7
  11   8   2 1353.34 230.955  11
  11  -8  -2 1839.53 254.230  14
  11   8   3 5527.31 435.205  11
  11  -8  -3 5344.54 407.236  14
  11  -8  -3 5515.87 458.342   7
  11  -8  -4 3391.35 340.880  14
  11  -8  -4 2779.69 336.451   7
  11  -8  -5 464.872 189.368   7
  11  -8  -5 333.707 169.883  14
  11  -8  -6 1113.14 227.070   7
 -11  -8   6 990.735 200.743   6
  11  -8  -6 1184.90 235.191  14
  11  -8  -7 156.537 138.400   7
 -11  -8   7 488.471 130.072   6
  11  -8  -7 338.300 172.052  14
  11  -8  -8 363.663 146.014   7
  11  -8  -8 179.257 137.364  14
  11  -8  -9 2633.98 250.397   7
  11  -8  -9 2684.51 268.409  14
  11  -8 -10 125.757 97.3836   7
  11  -8 -10 160.294 99.5745  14
  11   8  10 295.832 126.480  13
  11  -8 -11 2712.80 214.695  14
  11   8  11 2514.30 218.630  13
  11  -8 -11 2135.13 162.033   7
  11  -8 -12 3799.64 196.069  14
  11   8  12 4041.38 223.638  13
 -11  -9  -6 146.560 105.255   6
 -11  -9  -5 4330.76 341.274   6
  11   9  -1 294.589 138.612  11
 -11  -9  -1 452.493 143.545   8
  11  -9   1 388.615 169.622   7
  11  -9   0 966.328 228.601   7
  11   9   0 868.669 174.874  11
  11  -9  -1 336.012 177.444   7
  11   9   1 595.893 162.162  11
  11  -9  -2 1845.59 279.577   7
  11   9   2 1728.97 242.372  11
  11  -9  -2 1777.55 221.265  14
 -11  -9   3 5167.03 434.907   6
  11  -9  -3 6025.00 401.099  14
  11  -9  -3 6444.11 458.364   7
 -11  -9   4 6077.47 446.964   6
  11  -9  -4 6112.55 412.919  14
  11  -9  -4 5859.56 427.591   7
 -11  -9   5 5240.67 395.955   6
  11  -9  -5 5422.04 386.951  14
  11  -9  -5 5612.70 401.313   7
  11  -9  -6 130.544 126.892   7
 -11  -9   6 270.042 136.368   6
  11  -9  -6 342.713 140.243  14
 -11  -9   7 2608.19 229.217   6
  11  -9  -7 2873.21 277.769  14
  11  -9  -7 2826.46 265.270   7
  11  -9  -8 2286.23 242.872  14
  11  -9  -8 1793.37 198.674   7
  11  -9  -9 2751.83 243.886  14
  11   9   9 2728.29 244.852  13
  11  -9  -9 2314.86 189.768   7
  11  -9 -10 169.994 93.5070  14
  11   9  10 97.4726 81.3880  13
  11  -9 -11 162.947 72.3593  14
  11   9  11 304.691 80.2256  13
 -11 -10  -5 1699.45 200.939   6
 -11 -10  -4 11813.8 527.943   6
 -11 -10  -3 859.398 186.147   6
 -11 -10  -2 1361.58 232.485   6
 -11 -10  -2 1427.44 180.828   8
 -11 -10  -1 4100.13 373.726   6
 -11 -10  -1 4565.58 318.366   8
 -11 -10   0 598.958 198.516   6
 -11 -10   0 604.719 141.611   8
 -11 -10   1 4693.61 403.032   6
  11 -10  -1 4644.15 378.984   7
  11 -10  -2 1587.70 232.083   7
 -11 -10   2 1802.29 271.627   6
  11 -10  -3 903.375 192.420   7
 -11 -10   3 467.565 174.624   6
  11 -10  -3 769.248 161.616  14
 -11 -10   4 12381.5 578.274   6
  11 -10  -4 12207.2 501.873  14
  11 -10  -4 11653.5 518.883   7
  11 -10  -5 1708.78 211.495   7
 -11 -10   5 1698.61 222.724   6
  11 -10  -5 1783.00 212.808  14
 -11 -10   6 4874.76 313.377   6
  11 -10  -6 5172.19 329.454  14
  11 -10  -6 5004.43 304.653   7
  11 -10  -7 574.001 122.896   7
 -11 -10   7 588.552 115.284   6
  11 -10  -7 276.782 119.302  14
  11 -10  -8 8433.34 373.061  14
  11  10   8 7943.53 366.063  13
  11 -10  -9 4676.69 255.872  14
  11  10   9 4184.57 240.463  13
  11 -10 -10 1154.67 118.236  14
 -11 -11  -5 401.245 90.3331   6
 -11 -11  -4 225.946 95.7257   6
 -11 -11  -3 340.677 134.616   6
 -11 -11  -2 3818.18 308.298   6
 -11 -11  -2 3332.76 226.733   8
 -11 -11  -1 1127.57 201.881   6
 -11 -11  -1 1235.61 162.210   8
 -11 -11   0 2171.94 259.848   6
 -11 -11   0 2003.72 208.251   8
 -11 -11   1 1578.81 226.817   6
 -11 -11   1 1392.48 177.717   8
 -11 -11   2 3969.39 329.322   6
 -11 -11   2 3359.53 269.405   8
 -11 -11   3 339.598 145.536   6
 -11 -11   4 232.993 120.997   6
  11 -11  -4 411.667 106.960  14
 -11 -11   5 513.982 131.056   6
  11 -11  -5 551.378 108.460  14
 -11 -11   6 354.668 97.0792   6
  11 -11  -6 230.025 82.5580  14
  11 -11  -7 92.0778 62.8273  14
  11  11   7 27.2303 62.5494  13
  11 -11  -8 90.2119 56.9595  14
 -11 -12  -3 1058.52 131.198   6
 -11 -12  -2 6115.97 311.362   6
 -11 -12  -2 4912.43 221.027   8
 -11 -12  -1 1657.90 190.426   6
 -11 -12  -1 1414.03 142.736   8
 -11 -12   0 2077.48 215.845   6
 -11 -12   0 1962.90 169.701   8
 -11 -12   1 1543.59 191.379   6
 -11 -12   1 1167.32 144.323   8
 -11 -12   2 6040.37 336.568   6
 -11 -12   2 6537.55 310.490   8
 -11 -12   3 1195.05 163.147   6
 -11 -12   3 1275.90 153.120   8
 -11 -12   4 482.083 105.545   6
 -11 -12   4 412.846 102.324   8
 -11 -12   5 1169.23 133.242   8
 -11 -12   6 760.403 102.970   8
 -11 -13   0 288.639 76.9266   6
 -11 -13   1 537.265 94.0378   6
  12   0   0 22173.0 886.336  11
  12   0  -1 635.877 205.220   7
  12   0   1 651.626 201.706  11
  12   0  -2 1651.61 259.925   7
  12   0   2 1834.86 276.266  11
  12   0  -3 8514.75 530.102   7
  12   0   3 8547.82 558.949  11
  12   0  -4 14035.8 678.360   7
  12   0   4 13963.5 695.786  11
  12   0  -5 8122.24 524.916   7
  12   0   5 8566.33 533.244  11
  12   0  -6 3753.53 369.870   7
  12   0   6 3117.54 326.808  11
  12   0  -6 3417.71 366.684  14
  12   0  -7 5433.88 430.446   7
  12   0  -8 8736.89 528.897   7
  12   0  -9 8882.60 518.411   7
  12   0 -10 1447.31 240.597   7
  12   0 -11 2997.28 288.370   7
  12   0 -12 593.659 141.453   7
  12   0 -13-159.280 103.432   7
  12   0 -14 591.822 91.5657   7
  12   1 -13 2437.32 195.635   7
  12   1 -12 1041.40 168.480   7
  12   1 -11 895.156 170.105   7
  12   1 -10 950.470 189.802   7
  12   1  -9 6929.62 445.897   7
  12   1  -8 2041.79 286.663   7
  12   1  -7 3749.18 362.712   7
  12   1  -6 492.310 189.663   7
  12  -1   6 504.586 151.591  11
  12   1  -5 1009.75 214.012   7
  12  -1   5 678.696 164.505  11
  12   1  -4 1084.40 221.475   7
  12  -1   4 953.287 189.431  11
  12   1  -3 11735.8 578.084   7
  12  -1   3 12123.9 630.879  11
  12  -1   3 11248.5 577.552   7
  12  -1   2 404.280 166.889   7
  12  -1   2 79.6458 123.562  11
  12  -1   1 2224.15 290.246   7
  12  -1   1 2317.86 312.374  11
  12   1   0 6263.17 487.083  11
  12  -1   0 6295.86 477.165  11
  12  -1   0 6068.30 454.799   7
  12  -1  -1 2271.92 292.433   7
  12   1   1 2387.72 337.450  11
  12  -1  -2 445.045 197.589   7
  12   1   2 300.449 171.970  11
  12  -1  -2 408.395 185.895  14
  12  -1  -3 12786.7 663.087   7
  12   1   3 12209.3 671.421  11
  12  -1  -3 12350.0 685.466  14
  12  -1  -4 979.599 226.072   7
  12   1   4 1795.76 281.520  11
  12  -1  -4 1397.25 272.318  14
  12  -1  -5 425.442 198.363   7
  12   1   5 597.705 177.955  11
  12  -1  -5 308.201 174.707  14
  12  -1  -6 342.908 182.165   7
  12   1   6 415.583 160.526  11
  12  -1  -6 757.759 213.843  14
  12  -1  -7 3564.26 375.012   7
  12   1   7 3865.69 368.175  11
  12  -1  -7 3743.03 373.159  14
  12  -1  -8 1461.79 250.705   7
  12  -1  -8 1508.48 253.166  14
  12  -1  -9 6822.80 461.407   7
  12  -1  -9 7238.74 456.999  14
  12   1   9 6791.87 400.047  13
  12  -1 -10 838.627 209.174   7
  12  -1 -11 901.091 189.695   7
  12  -1 -12 1055.94 175.768   7
  12  -1 -13 2696.00 220.030   7
  12  -1 -14 388.360 87.0545   7
  12   2 -13 3200.81 196.762   7
  12   2 -12 692.808 129.268   7
  12   2 -11 3528.16 273.623   7
  12   2 -10 3592.86 295.312   7
  12   2  -9 375.168 146.717   7
  12   2  -8 450.251 155.472   7
  12   2  -7 6146.14 417.514   7
  12   2  -6 7016.44 444.736   7
  12  -2   4 2537.15 315.004   7
  12  -2   3 2395.45 271.801  11
  12  -2   3 2516.31 315.863   7
  12  -2   2 6951.49 464.096  11
  12  -2   2 6696.75 479.280   7
  12  -2   1 17573.1 739.902  11
  12   2  -1 18102.3 830.980  11
  12  -2   1 17176.9 763.161   7
  12   2   0 6283.24 497.650  11
  12  -2   0 5982.80 445.645  11
  12  -2   0 5870.95 460.921   7
  12  -2  -1 17911.8 788.460   7
  12   2   1 17680.0 821.092  11
  12  -2  -1 18441.7 807.232  14
  12  -2  -2 6877.29 511.905   7
  12   2   2 7669.27 541.356  11
  12  -2  -2 7229.22 520.371  14
  12   2   3 2581.13 332.868  11
  12  -2  -3 2296.84 316.729   7
  12  -2  -3 2459.96 324.637  14
  12   2   4 3089.51 364.834  11
  12  -2  -4 2361.11 331.724   7
  12  -2  -4 3239.79 370.971  14
  12  -2  -5 10974.0 635.100   7
  12   2   5 12068.5 666.552  11
  12  -2  -5 10690.7 630.355  14
  12  -2  -6 7246.96 522.227   7
  12   2   6 7093.69 516.366  11
  12  -2  -6 7041.01 513.047  14
  12  -2  -7 5782.90 470.531   7
  12   2   7 5863.59 461.427  11
  12  -2  -7 5812.44 456.928  14
  12  -2  -8 180.410 178.073   7
  12  -2  -8 49.6551 154.667  14
  12  -2  -9 345.482 167.792   7
  12  -2  -9 252.890 149.273  14
  12  -2 -10 3292.82 327.065   7
  12  -2 -10 3268.12 287.535  14
  12   2  10 2947.26 273.225  13
  12  -2 -11 3570.69 312.105   7
  12   2  11 3721.64 272.356  13
  12  -2 -12 319.133 123.665   7
  12   2  12 561.069 100.332  13
  12  -2 -13 3742.77 251.021   7
  12  -2 -14 1371.98 126.165   7
  12   3 -12 1674.81 150.903   7
  12   3 -11 739.949 130.982   7
  12   3 -10 2759.38 239.563   7
  12   3  -9 10462.3 466.044   7
  12  -3   4 5547.89 453.650   7
  12  -3   3 15593.4 740.064   7
  12  -3   2 6964.16 508.921   7
  12  -3   1 625.512 216.565   7
  12   3  -1 777.780 235.701  11
  12   3   0 18828.4 844.197  11
  12  -3   0 18823.5 738.102  11
  12  -3   0 18342.2 812.065   7
  12  -3  -1 876.851 238.513   7
  12   3   1 946.174 246.725  11
  12  -3  -1 947.132 244.221  14
  12  -3  -2 6793.04 507.201   7
  12   3   2 7222.42 543.551  11
  12  -3  -2 7415.12 530.125  14
  12  -3  -3 16238.5 778.304   7
  12   3   3 16228.1 789.599  11
  12  -3  -3 15936.3 759.364  14
  12  -3  -4 4137.72 411.579   7
  12   3   4 4832.27 442.740  11
  12  -3  -4 4894.46 442.473  14
  12  -3  -5 1680.40 298.740   7
  12   3   5 1347.02 269.024  11
  12  -3  -5 1468.82 267.516  14
  12  -3  -6 788.234 227.739   7
  12   3   6 1260.29 249.026  11
  12  -3  -6 885.662 229.350  14
  12  -3  -7 1981.02 302.107   7
  12  -3  -7 1704.88 278.340  14
  12  -3  -8 2473.71 323.922   7
  12  -3  -8 2395.85 306.028  14
  12  -3  -9 11739.0 604.272   7
  12  -3  -9 11350.4 568.679  14
  12  -3 -10 2679.90 293.146   7
  12  -3 -10 2585.69 263.902  14
  12   3  10 2763.39 273.313  13
  12  -3 -11 578.414 167.013   7
  12  -3 -11 483.918 126.731  14
  12   3  11 839.329 158.179  13
  12  -3 -12 1985.21 215.888   7
  12   3  12 2440.04 201.506  13
  12  -3 -13 1599.92 163.924   7
  12   4  -3 4795.13 440.502  11
  12  -4   3 5057.82 447.472   7
  12  -4   2-52.8959 168.076   7
  12   4  -2 195.928 145.943  11
  12   4  -1 3305.85 373.537  11
  12  -4   1 3660.74 402.494   7
  12  -4   0 1965.97 297.151   7
  12   4   0 1842.78 298.546  11
  12  -4   0 1728.12 263.329  14
  12   4   1 3504.01 389.784  11
  12  -4  -1 3758.28 376.668  14
  12  -4  -1 3181.75 382.811   7
  12  -4  -2 170.628 188.849   7
  12   4   2 187.826 148.272  11
  12  -4  -2 232.829 174.249  14
  12  -4  -3 4098.32 417.409   7
  12   4   3 4853.06 447.216  11
  12  -4  -3 4544.51 414.473  14
  12  -4  -4 5834.32 487.873   7
  12   4   4 5662.37 476.900  11
  12  -4  -4 6426.12 494.222  14
  12  -4  -5 5260.10 466.710   7
  12   4   5 5657.98 478.370  11
  12  -4  -5 5694.46 465.983  14
  12  -4  -6 2785.28 345.851   7
  12   4   6 2642.45 329.339  11
  12  -4  -6 3155.67 359.069  14
  12  -4  -7 1842.03 296.524   7
  12  -4  -7 2121.91 294.153  14
  12  -4  -8 4003.25 385.581   7
  12  -4  -8 3898.33 361.846  14
  12  -4  -9 792.303 205.791   7
  12  -4  -9 982.910 195.364  14
  12  -4 -10 1330.96 224.931   7
  12  -4 -10 1073.87 188.553  14
  12   4  10 1210.35 202.245  13
  12  -4 -11 4115.22 315.368   7
  12  -4 -11 4223.63 284.737  14
  12   4  11 3940.90 289.972  13
  12  -4 -12 929.931 154.604   7
  12   4  12 915.770 136.406  13
  12  -4 -13 310.569 94.3668   7
  12   5 -11 1491.07 149.659  11
  12   5 -10 2717.69 226.979  11
  12   5  -5 344.584 175.787  11
  12   5  -4 1856.69 284.099  11
  12  -5   3 624.546 216.386   7
  12   5  -3 361.351 167.668  11
  12  -5   2 1011.00 258.330   7
  12   5  -2 867.135 213.519  11
  12   5  -1 3622.94 384.978  11
  12  -5   1 3513.14 399.584   7
  12   5   0 4267.28 424.328  11
  12  -5   0 4868.15 398.312  14
  12  -5   0 4428.29 436.259   7
  12   5   1 3851.27 391.592  11
  12  -5  -1 4165.99 386.098  14
  12  -5  -1 3473.58 381.589   7
  12  -5  -2 713.810 245.023   7
  12   5   2 951.686 243.151  11
  12  -5  -2 841.390 219.985  14
  12  -5  -3 432.285 222.125   7
  12   5   3 360.149 181.362  11
  12  -5  -3 219.288 163.752  14
  12  -5  -4 2143.82 320.541   7
  12   5   4 2028.31 298.441  11
  12  -5  -4 1713.91 268.359  14
  12  -5  -5 491.813 196.712   7
  12   5   5 118.046 157.053  11
  12  -5  -5 456.381 191.560  14
  12  -5  -6 7984.76 539.296   7
  12   5   6 8609.69 559.220  11
  12  -5  -6 8740.00 547.119  14
  12  -5  -7 313.497 173.409   7
  12  -5  -7 223.567 169.294  14
  12  -5  -8 8067.89 506.749   7
  12  -5  -8 7627.61 479.712  14
  12  -5  -9 112.729 146.233   7
  12  -5  -9 136.292 124.059  14
  12  -5 -10 2757.53 277.781   7
  12  -5 -10 2492.23 245.519  14
  12   5  10 2716.28 269.031  13
  12  -5 -11 1708.07 202.741   7
  12  -5 -11 1842.23 188.214  14
  12   5  11 1717.00 199.805  13
  12  -5 -12 4783.27 264.751   7
  12   5  12 4710.33 257.816  13
  12   6  -9 783.195 126.554  11
  12   6  -8 357.235 121.924  11
  12   6  -7 5269.75 362.178  11
  12   6  -6 933.365 183.043  11
  12   6  -5 8461.96 503.635  11
  12   6  -4 652.031 172.085  11
  12   6  -3 1087.10 238.469  11
  12  -6   3 1446.47 286.883   7
  12   6  -2 12247.2 649.234  11
  12  -6   2 11893.3 679.578   7
  12  -6   1 912.625 245.725   7
  12   6  -1 1239.85 247.722  11
  12  -6   0 23.0880 174.814   7
  12   6   0-66.3141 165.539  11
  12  -6   0 102.867 112.339  14
  12  -6  -1 1313.72 288.038   7
  12   6   1 963.175 235.108  11
  12  -6  -1 1287.22 229.544  14
  12   6   2 13604.0 702.239  11
  12  -6  -2 12291.0 625.427  14
  12  -6  -2 13798.7 717.675   7
  12  -6  -3 1427.71 283.093   7
  12   6   3 1411.79 275.230  11
  12  -6  -3 1139.81 231.966  14
  12  -6  -4 762.280 215.075   7
  12   6   4 706.629 209.178  11
  12  -6  -4 996.369 215.483  14
  12  -6  -5 9115.82 573.732   7
  12   6   5 8652.81 554.700  11
  12  -6  -5 8909.17 537.236  14
  12  -6  -6 1191.24 247.128   7
  12  -6  -6 1053.89 231.018  14
  12  -6  -7 5434.61 429.433   7
 -12  -6   7 5133.74 340.470   6
  12  -6  -7 5548.48 415.762  14
  12  -6  -8 318.610 158.559   7
  12  -6  -8 449.441 167.090  14
  12  -6  -9 612.309 163.279   7
  12  -6  -9 641.499 167.499  14
  12  -6 -10 3196.85 269.011   7
  12  -6 -10 3453.67 269.791  14
  12   6  10 3510.60 284.305  13
  12  -6 -11 1453.76 166.833   7
  12  -6 -11 1539.87 166.264  14
  12   6  11 1547.21 180.145  13
  12  -6 -12 29.7252 59.7442   7
  12   6  12 64.9159 67.4895  13
  12   7  -7 370.939 119.328  11
  12   7  -6 2065.89 229.334  11
  12   7  -5 885.817 162.510  11
  12   7  -4 4761.11 367.001  11
  12   7  -3 162.161 149.495  11
  12   7  -2 3407.95 330.368  11
  12  -7   2 3591.42 395.321   7
  12  -7   1 1147.52 269.639   7
  12   7  -1 792.107 201.962  11
  12   7   0 2450.46 299.534  11
  12  -7   0 1807.18 232.986  14
  12  -7   0 2403.41 339.324   7
  12  -7  -1 1148.63 259.682   7
  12   7   1 1110.66 223.539  11
  12  -7  -1 1193.81 189.672  14
  12   7   2 3504.99 353.230  11
  12  -7  -2 3242.23 319.251  14
  12  -7  -2 3735.87 385.121   7
  12  -7  -3 137.367 156.962   7
  12   7   3 315.037 178.070  11
  12  -7  -3 392.433 160.854  14
  12   7   4 4867.57 408.288  11
  12  -7  -4 5305.66 408.095  14
  12  -7  -4 4613.58 403.774   7
  12  -7  -5 1003.77 230.068   7
  12  -7  -5 853.038 205.470  14
  12  -7  -6 2739.18 320.044   7
 -12  -7   6 2747.86 280.220   6
  12  -7  -6 2624.29 292.355  14
  12  -7  -7 136.700 125.963   7
 -12  -7   7 233.993 100.491   6
  12  -7  -7 269.126 141.840  14
  12  -7  -8 1434.04 214.999   7
  12  -7  -8 1630.50 220.256  14
  12  -7  -9 1016.12 170.972   7
  12  -7  -9 953.771 166.183  14
  12   7   9 1044.74 181.928  13
  12  -7 -10 2149.82 199.447  14
  12   7  10 1716.36 190.548  13
  12  -7 -10 1601.90 175.382   7
  12  -7 -11 366.008 86.5100   7
  12  -7 -11 423.527 93.6908  14
  12   7  11 343.029 94.7703  13
  12   8  -4 6359.56 368.853  11
  12   8  -3 1160.56 182.084  11
  12   8  -2 4413.86 339.762  11
  12  -8   1 1246.57 276.334   7
  12   8  -1 808.122 176.737  11
  12  -8   0 277.646 180.992   7
  12   8   0 356.611 133.124  11
  12  -8  -1 1149.18 259.288   7
  12   8   1 913.890 192.875  11
  12  -8  -1 1216.49 190.954  14
  12   8   2 4950.84 382.964  11
  12  -8  -2 5212.21 361.297  14
  12  -8  -2 4760.81 410.250   7
  12  -8  -3 1536.88 257.805   7
  12   8   3 1430.54 226.459  11
  12  -8  -3 1283.75 203.174  14
  12  -8  -4 7203.66 428.774  14
  12  -8  -4 7480.35 472.921   7
 -12  -8   5 2950.42 295.846   6
  12  -8  -5 3112.23 296.820  14
  12  -8  -5 3746.52 334.157   7
 -12  -8   6 4570.19 318.209   6
  12  -8  -6 4714.98 344.724  14
  12  -8  -6 4926.99 358.110   7
  12  -8  -7 1329.36 197.450   7
 -12  -8   7 1098.50 143.259   6
  12  -8  -7 1144.73 190.954  14
  12  -8  -8 4606.82 309.414  14
  12  -8  -8 4327.93 289.893   7
  12  -8  -9 277.934 100.841   7
  12  -8  -9 200.857 98.9823  14
  12   8   9 54.2541 87.1002  13
  12  -8 -10 661.220 112.551  14
  12   8  10 445.196 101.699  13
 -12  -9  -5 4305.55 290.996   6
 -12  -9  -4 1926.89 234.787   6
  12   9  -2 278.638 117.326  11
  12   9  -1 1542.91 187.652  11
  12   9   0 4378.99 308.622  11
 -12  -9   0 4380.00 280.091   8
  12  -9  -1 1814.86 266.646   7
  12  -9  -2 804.950 196.378   7
 -12  -9   2 939.602 212.582   6
  12  -9  -2 1019.95 159.016  14
 -12  -9   3 2210.21 268.008   6
  12  -9  -3 2193.87 223.307  14
  12  -9  -3 2389.39 270.078   7
  12  -9  -4 1705.34 227.567   7
 -12  -9   4 1712.26 232.170   6
  12  -9  -4 2129.95 221.652  14
 -12  -9   5 4180.23 310.036   6
  12  -9  -5 4273.43 298.420  14
  12  -9  -5 4266.01 317.464   7
 -12  -9   6 3431.79 245.521   6
  12  -9  -6 4085.04 283.826  14
  12  -9  -6 3722.38 276.044   7
 -12  -9   7 4294.73 216.853   6
  12  -9  -7 5273.64 306.090  14
  12  -9  -7 5042.29 284.732   7
  12  -9  -8 1636.77 172.632  14
  12   9   8 1375.83 165.145  13
  12  -9  -8 1394.66 139.446   7
  12  -9  -9 1270.51 135.057  14
  12   9   9 1261.75 137.770  13
 -12 -10  -5 408.436 88.7990   6
 -12 -10  -4 227.551 96.9102   6
 -12 -10  -3 322.406 119.324   6
 -12 -10  -2 1254.79 191.807   6
 -12 -10  -1 3225.41 292.985   6
 -12 -10   0 1693.18 234.350   6
 -12 -10   0 1540.04 149.970   8
 -12 -10   1 3725.09 314.033   6
 -12 -10   1 3372.30 233.969   8
 -12 -10   2 1193.43 203.003   6
 -12 -10   2 1064.69 143.209   8
 -12 -10   3 124.573 125.551   6
  12 -10  -3 309.192 87.2869  14
 -12 -10   4 410.948 127.351   6
  12 -10  -4 363.490 96.4476  14
  12 -10  -4 255.498 114.147   7
 -12 -10   5 56.2632 88.1217   6
  12 -10  -5 19.4164 70.7431  14
  12 -10  -5 257.614 95.8568   7
 -12 -10   6 1726.20 148.585   6
  12 -10  -6 2048.04 171.981  14
  12 -10  -6 1882.20 157.445   7
  12 -10  -7 843.966 108.997  14
  12  10   7 585.790 107.512  13
 -12 -11  -3 4880.51 251.556   6
 -12 -11  -2 608.515 122.068   6
 -12 -11  -1 2725.80 226.162   6
 -12 -11   0 821.251 150.512   6
 -12 -11   1 3057.32 242.241   6
 -12 -11   1 2486.41 168.827   8
 -12 -11   2 233.919 95.8950   6
 -12 -11   2 434.341 94.5330   8
 -12 -11   3 4896.90 281.281   6
 -12 -11   3 4522.46 231.597   8
 -12 -11   4 660.646 111.408   6
 -12 -11   4 548.409 96.6528   8
 -12 -11   5 84.8777 53.3825   8
 -12 -12  -1 180.202 65.1225   6
 -12 -12   0 1245.89 124.441   6
 -12 -12   1 252.714 73.8042   6
 -12 -12   2 93.3584 65.5020   6
  13   0   0-42.0903 141.844  11
  13   0   1 586.925 201.017  11
  13   0  -1 462.305 172.565  11
  13   0  -2 495.530 165.677   7
  13   0   2-360.615 164.214  11
  13   0  -3 612.984 205.471   7
  13   0   3 144.862 128.078  11
  13   0  -4 9045.15 509.873   7
  13   0   4 9034.80 541.089  11
  13   0  -5 279.939 154.452   7
  13   0   5 387.127 146.166  11
  13   0   6 184.872 137.933  11
  13   0  -6 103.295 134.070   7
  13   0  -7 485.902 164.432   7
  13   0  -8 7722.09 446.616   7
  13   0  -9 328.567 144.108   7
  13   0 -10 305.417 126.624   7
  13   0 -11 2205.31 198.483   7
  13   0 -12 2189.89 167.052   7
  13   1 -11 3699.85 231.745   7
  13   1 -10 2719.25 229.966   7
  13   1  -9 300.267 123.362   7
  13   1  -8 1897.43 228.558   7
  13   1  -7 4559.73 341.893   7
  13   1  -6 2389.63 264.462   7
  13   1  -5 8184.54 454.572   7
  13  -1   5 7938.55 459.548  11
  13   1  -4 3796.22 326.980   7
  13  -1   4 4272.78 360.665  11
  13  -1   3-159.253 129.500  11
  13  -1   2 5662.54 429.658  11
  13   1  -2 5936.21 477.762  11
  13  -1   2 5736.98 405.762   7
  13  -1   1 4820.57 407.885  11
  13   1  -1 4642.86 416.542  11
  13  -1   1 3934.87 348.355   7
  13   1   0 12675.1 675.403  11
  13  -1   0 11394.7 615.762  11
  13  -1   0 11635.7 585.473   7
  13   1   1 4526.49 417.719  11
  13  -1  -1 4194.62 387.611  11
  13  -1  -1 4122.02 368.230   7
  13  -1  -2 6007.13 437.282   7
  13   1   2 6373.79 485.676  11
  13  -1  -3 163.973 156.003   7
  13   1   3 27.6033 144.842  11
  13  -1  -4 4132.84 374.989   7
  13   1   4 4438.08 397.149  11
  13  -1  -5 9167.10 531.609   7
  13   1   5 9506.60 550.850  11
  13  -1  -6 888.453 204.225   7
  13   1   6 1990.64 269.634  11
  13  -1  -7 4595.76 375.956   7
  13  -1  -8 1994.60 258.013   7
  13  -1  -9 33.6326 115.468   7
  13  -1 -10 2509.92 244.869   7
  13  -1 -11 4002.96 266.001   7
  13  -1 -12 1927.08 164.216   7
  13   2 -11 120.829 60.6324   7
  13   2 -10 2847.04 206.160   7
  13   2  -9 1544.31 180.689   7
  13   2  -8 1296.02 176.374   7
  13  -2   3 366.145 141.774  11
  13   2  -3 484.446 193.341  11
  13  -2   3 345.093 171.765   7
  13  -2   2 18731.4 720.916  11
  13   2  -2 19766.3 849.081  11
  13  -2   2 18876.6 749.205   7
  13  -2   1 3780.24 343.580  11
  13   2  -1 3564.47 384.323  11
  13  -2   1 3581.95 362.706   7
  13  -2   0 89.1369 151.130   7
  13   2   0-124.529 154.133  11
  13  -2   0-211.642 138.701  11
  13   2   1 4033.10 402.165  11
  13  -2  -1 3274.01 325.182  11
  13  -2  -1 3382.22 351.451   7
  13   2   2 20020.7 842.243  11
  13  -2  -2 20035.2 804.381   7
  13  -2  -3 347.846 182.212   7
  13   2   3 510.895 209.339  11
  13  -2  -4 3034.65 338.821   7
  13   2   4 2693.46 328.772  11
  13  -2  -5 2632.53 322.302   7
  13   2   5 2738.11 318.715  11
  13  -2  -5 2926.60 341.043  14
  13  -2  -6 867.282 210.717   7
  13   2   6 722.706 191.924  11
  13  -2  -6 878.613 217.728  14
  13  -2  -7 755.763 192.765   7
  13  -2  -8 1372.19 222.724   7
  13  -2  -9 1505.80 219.659   7
  13   2   9 1824.68 190.206  13
  13  -2 -10 2540.22 248.779   7
  13  -2 -11 331.996 118.586   7
  13  -2 -12 968.643 126.305   7
  13   3  -4 565.219 200.546  11
  13   3  -3 3768.51 389.758  11
  13  -3   3 3594.06 355.566   7
  13  -3   2 303.842 190.788   7
  13   3  -2 626.989 201.874  11
  13   3  -1 3500.90 387.372  11
  13  -3   1 3146.43 347.052   7
  13  -3   0 1758.10 281.340   7
  13   3   0 1889.24 295.197  11
  13  -3   0 1645.87 221.012  11
  13   3   1 3726.71 388.161  11
  13  -3  -1 3169.66 306.028  11
  13  -3  -1 3554.58 373.988   7
  13  -3  -2 416.456 183.788   7
  13   3   2 524.636 198.836  11
  13  -3  -2 554.536 154.225  11
  13  -3  -3 4506.81 413.177   7
  13   3   3 5155.29 440.515  11
  13  -3  -3 4634.10 415.270  14
  13  -3  -4 210.487 179.764   7
  13   3   4 300.866 166.151  11
  13  -3  -4 206.838 138.803  14
  13  -3  -5 201.843 171.683   7
  13   3   5 142.367 156.275  11
  13  -3  -5 48.6245 152.623  14
  13  -3  -6 8067.75 505.963   7
  13   3   6 7556.40 496.757  11
  13  -3  -6 7311.59 483.467  14
  13  -3  -7 949.563 202.531   7
  13  -3  -7 738.945 194.882  14
  13  -3  -8 41.5501 130.942   7
  13  -3  -8 151.370 122.729  14
  13  -3  -9 635.985 159.651   7
  13   3   9 406.113 125.120  13
  13  -3 -10 4321.94 306.558   7
  13   3  10 3948.47 246.821  13
  13  -3 -11 1958.24 193.097   7
  13  -3 -12 114.653 72.4685   7
  13   4 -11 1836.77 140.930  11
  13   4 -10 876.270 136.536  11
  13   4  -9 3067.41 251.790  11
  13   4  -8 4969.08 344.376  11
  13   4  -7 7067.76 437.322  11
  13   4  -6 45.2370 115.849  11
  13   4  -5 1536.20 244.736  11
  13   4  -4 3148.65 342.486  11
  13   4  -3-38.7478 154.256  11
  13  -4   2 718.356 204.107   7
  13   4  -2 485.172 191.938  11
  13  -4   1 2101.03 302.801   7
  13   4  -1 2064.30 298.983  11
  13  -4   0 1326.92 249.722   7
  13   4   0 1221.85 261.673  11
  13  -4  -1 1925.70 297.738   7
  13   4   1 2211.29 305.817  11
  13  -4  -2 614.010 210.356   7
  13   4   2 698.954 210.403  11
  13  -4  -2 720.235 199.417  14
  13  -4  -3 163.832 169.623   7
  13   4   3 87.6794 158.198  11
  13  -4  -3 197.567 147.846  14
  13  -4  -4 2750.21 334.197   7
  13   4   4 3088.05 344.904  11
  13  -4  -4 3457.69 353.992  14
  13  -4  -5 1491.67 246.337   7
  13   4   5 1302.72 252.768  11
  13  -4  -5 1642.25 257.116  14
  13  -4  -6 117.235 144.300   7
  13  -4  -6-58.1888 131.033  14
  13  -4  -7 7883.01 483.335   7
  13  -4  -7 7606.33 457.974  14
  13  -4  -8 5798.95 397.165   7
  13  -4  -8 5455.81 368.750  14
  13  -4  -9 3427.62 290.494   7
  13  -4  -9 3076.14 262.092  14
  13   4   9 2978.14 251.751  13
  13  -4 -10 1093.21 164.482   7
  13   4  10 1005.33 138.654  13
  13  -4 -11 2427.47 197.173   7
  13   4  11 1887.18 145.559  13
  13   5 -10-16.2632 51.1591  11
  13   5  -9 1876.03 177.343  11
  13   5  -8 368.791 118.812  11
  13   5  -7 1559.92 214.468  11
  13   5  -6 3712.59 321.682  11
  13   5  -5 818.629 194.893  11
  13   5  -4 9686.35 539.457  11
  13   5  -3 999.784 219.850  11
  13  -5   2 27.2481 172.608   7
  13   5  -2 111.609 141.214  11
  13  -5   1 1710.55 289.089   7
  13   5  -1 1556.76 255.597  11
  13   5   0 5427.44 440.969  11
  13  -5   0 5571.63 447.256   7
  13  -5  -1 1623.22 288.532   7
  13   5   1 1787.58 286.582  11
  13  -5  -2 175.029 173.763   7
  13   5   2-1.64386 138.866  11
  13  -5  -2 210.618 140.892  14
  13  -5  -3 1596.80 278.100   7
  13   5   3 1771.91 273.243  11
  13  -5  -3 1548.79 249.325  14
  13   5   4 9745.23 565.209  11
  13  -5  -4 9903.67 543.662  14
  13  -5  -4 9577.29 563.600   7
  13   5   5 604.889 192.567  11
  13  -5  -5 487.430 198.579   7
  13  -5  -5 316.463 171.948  14
  13  -5  -6 4133.76 364.256   7
  13  -5  -6 4042.45 344.887  14
  13  -5  -7 1591.75 240.557   7
  13  -5  -7 1753.22 233.604  14
  13  -5  -8 419.880 149.385   7
  13  -5  -8 413.447 141.634  14
  13  -5  -9 1881.32 219.278   7
  13  -5  -9 2274.30 219.091  14
  13   5   9 2020.05 205.193  13
  13  -5 -10 111.273 100.015   7
  13   5  10 159.005 80.4173  13
  13  -5 -11 187.959 77.5943   7
  13   6  -8 1283.42 144.852  11
  13   6  -7-15.3099 84.7459  11
  13   6  -6 1321.73 192.850  11
  13   6  -5 1508.48 208.823  11
  13   6  -4 292.903 145.407  11
  13   6  -3 4558.14 366.252  11
  13   6  -2 151.102 152.099  11
  13  -6   2 172.123 161.204   7
  13   6  -1 4622.27 385.685  11
  13  -6   1 5146.03 431.648   7
  13  -6   0 445.272 187.773   7
  13   6   0 145.276 128.697  11
  13   6   1 4347.18 378.508  11
  13  -6  -1 4904.86 421.835   7
  13  -6  -2 63.9910 152.953   7
  13   6   2 84.7883 134.221  11
  13  -6  -2 241.651 145.243  14
  13   6   3 4466.36 383.084  11
  13  -6  -3 4776.64 370.076  14
  13  -6  -3 4204.52 375.161   7
  13  -6  -4 84.5236 149.425   7
  13   6   4 296.691 141.895  11
  13  -6  -4 438.626 173.515  14
  13  -6  -5 1500.73 240.257   7
  13  -6  -5 1955.82 249.702  14
  13  -6  -6 1032.37 204.169   7
 -13  -6   6 1082.08 161.533   6
  13  -6  -6 1589.34 230.553  14
  13  -6  -7-95.2903 137.768   7
  13  -6  -7 94.5725 112.459  14
  13  -6  -8 1611.37 206.436   7
  13  -6  -8 1585.49 192.167  14
  13  -6  -9 230.321 91.3946   7
  13  -6  -9 304.050 104.676  14
  13   6   9 332.086 110.892  13
  13  -6 -10 136.940 82.3037   7
  13   6  10 93.2767 71.3624  13
  13   7  -6 3749.10 241.532  11
  13   7  -5 3967.15 277.039  11
  13   7  -4 1184.47 177.963  11
  13   7  -3 2650.67 258.923  11
  13   7  -2 1101.11 181.472  11
  13   7  -1 374.367 145.754  11
  13  -7   1 392.003 188.313   7
  13  -7   0 184.842 152.619   7
  13   7   0 177.829 130.199  11
  13  -7  -1 430.160 182.624   7
  13   7   1 133.522 124.639  11
  13  -7  -2 1844.80 268.891   7
  13   7   2 1333.80 219.861  11
  13   7   3 3004.23 293.000  11
  13  -7  -3 3194.04 279.828  14
  13  -7  -3 3106.00 317.646   7
  13  -7  -4 1556.29 245.756   7
  13  -7  -4 1606.47 215.757  14
 -13  -7   5 3768.31 293.605   6
  13  -7  -5 4476.11 324.272  14
  13  -7  -5 3935.91 327.788   7
 -13  -7   6 4011.93 258.495   6
  13  -7  -6 4222.50 306.668  14
  13  -7  -6 4189.70 320.249   7
  13  -7  -7 5573.49 328.078  14
  13  -7  -7 5123.15 325.123   7
  13  -7  -8 585.315 125.819   7
  13  -7  -8 577.204 124.184  14
  13   7   8 634.742 133.878  13
  13  -7  -9 1802.84 163.238  14
  13   7   9 1554.20 158.179  13
  13  -7  -9 1799.92 160.781   7
 -13  -8  -6 404.094 88.4672   6
 -13  -8  -5 4205.25 268.216   6
  13   8  -4 628.733 108.720  11
  13   8  -3 1619.93 174.903  11
  13   8  -2 660.494 123.804  11
  13   8  -1-157.994 99.2604  11
  13   8   0 686.754 149.120  11
  13  -8  -1 66.9337 150.606   7
  13   8   1-93.4045 95.5529  11
  13  -8  -2 384.141 159.274   7
 -13  -8   3 2029.63 237.893   6
  13  -8  -3 2307.76 255.872   7
  13  -8  -4 862.063 176.592   7
 -13  -8   4 970.096 167.741   6
  13  -8  -4 912.187 149.797  14
 -13  -8   5 4207.87 271.450   6
  13  -8  -5 4630.84 290.745  14
  13  -8  -5 4422.93 307.211   7
  13  -8  -6 901.720 155.462   7
 -13  -8   6 813.518 118.079   6
  13  -8  -6 926.237 145.359  14
  13  -8  -7 7976.10 336.225  14
  13  -8  -7 7233.81 324.877   7
  13  -8  -8 553.637 96.1012   7
  13  -8  -8 639.272 105.730  14
  13   8   8 613.058 113.663  13
 -13  -9  -5 953.538 106.435   6
 -13  -9  -4 177.322 88.2760   6
 -13  -9  -3 1422.40 179.345   6
 -13  -9  -2 168.327 124.539   6
 -13  -9  -1 4947.09 334.282   6
 -13  -9   0 121.511 121.134   6
 -13  -9   1 5212.91 349.376   6
 -13  -9   2 249.028 132.893   6
 -13  -9   3 1257.43 177.957   6
 -13  -9   3 1013.51 111.823   8
  13  -9  -3 1473.65 191.366   7
  13  -9  -4 259.349 105.447   7
 -13  -9   4 218.771 93.3695   6
 -13  -9   5 1278.42 134.789   6
  13  -9  -5 1420.04 161.674   7
  13  -9  -6 964.298 122.025   7
  13   9   7 117.005 65.0023  13
 -13 -10  -3 391.985 87.5201   6
 -13 -10  -2 1370.71 152.475   6
 -13 -10  -1 3639.89 245.106   6
 -13 -10   0 494.760 116.583   6
 -13 -10   1 4088.82 258.945   6
 -13 -10   2 1579.73 166.771   6
 -13 -10   3 215.637 75.7594   6
 -13 -10   4 1411.65 127.398   6
  14   0   0 25344.6 863.452  11
  14   0   1 5184.22 402.063  11
  14   0  -1 4647.12 391.187  11
  14   0   2 355.683 174.957  11
  14   0  -2 357.502 176.821  11
  14   0  -3 743.248 150.410   7
  14   0   3 704.372 171.590  11
  14   0  -3 627.719 178.846  11
  14   0   4 5223.57 368.084  11
  14   0  -4 5644.15 420.110  11
  14   0  -4 5180.61 333.072   7
  14   0  -5 4188.81 307.292   7
  14   0   5 3898.11 306.758  11
  14   0  -6 1299.32 178.819   7
  14   0  -7 675.208 135.762   7
  14   0  -8 1671.11 184.730   7
  14   0  -9-12.7099 74.6549   7
  14   0 -10 201.136 70.5915   7
  14   0 -11 301.990 72.8673  11
  14   1 -10 192.053 79.8865  11
  14   1  -8 1243.86 141.397   7
  14   1  -7 127.136 86.0180   7
  14   1  -5-25.9993 131.474  11
  14  -1   4 994.097 189.568  11
  14   1  -4 947.799 215.481  11
  14  -1   3 8580.49 452.121  11
  14   1  -3 8831.53 525.318  11
  14  -1   2 974.735 187.753  11
  14   1  -2 865.362 208.628  11
  14  -1   1 3630.65 320.782  11
  14   1  -1 3263.08 339.709  11
  14  -1   0-94.8085 99.6090   7
  14   1   0-136.292 155.201  11
  14  -1   0 27.4373 118.955  11
  14   1   1 3478.88 343.978  11
  14  -1  -1 3340.13 320.254  11
  14  -1  -1 3280.17 297.810   7
  14  -1  -2 757.753 165.921   7
  14   1   2 817.822 205.177  11
  14  -1  -2 884.156 198.536  11
  14   1   3 8320.28 492.769  11
  14  -1  -3 8179.19 489.334  11
  14  -1  -3 7967.64 442.241   7
  14  -1  -4 1248.34 195.781   7
  14   1   4 964.691 190.392  11
  14  -1  -4 1345.08 230.452  11
  14  -1  -5 308.589 145.586   7
  14   1   5 261.560 139.090  11
  14  -1  -6 306.118 126.983   7
  14  -1  -7 320.290 123.522   7
  14  -1  -8 1849.02 194.041   7
  14  -1  -9 6095.64 300.594   7
  14  -1 -10 208.249 79.0507   7
  14   2 -10 2180.77 170.999  11
  14   2  -9 880.645 145.389  11
  14   2  -8 183.935 114.333  11
  14   2  -7 2053.43 236.814  11
  14   2  -6 2688.22 280.055  11
  14   2  -5 2886.07 299.562  11
  14   2  -4 2114.82 276.476  11
  14   2  -3 478.441 183.753  11
  14  -2   2 1486.41 201.642  11
  14   2  -2 1587.04 256.317  11
  14  -2   1 676.042 174.027   7
  14  -2   1 925.400 173.231  11
  14   2  -1 1074.15 233.879  11
  14   2   0 2796.23 328.137  11
  14  -2   0 2878.66 280.076  11
  14  -2   0 3086.80 299.364   7
  14  -2  -1 1064.01 201.522   7
  14   2   1 800.059 196.962  11
  14  -2  -1 830.386 191.896  11
  14  -2  -2 1000.05 179.033   7
  14  -2  -2 1094.60 185.826  11
  14  -2  -3 267.684 127.223   7
  14   2   3 164.915 132.213  11
  14  -2  -3 389.236 138.419  11
  14  -2  -4 1813.84 237.100   7
  14  -2  -4 2015.22 242.736  11
  14   2   4 1771.13 249.229  11
  14  -2  -5 2258.48 253.000   7
  14   2   5 2464.37 282.926  11
  14  -2  -6 3423.26 291.523   7
  14  -2  -7 2494.97 244.078   7
  14  -2  -8 210.171 116.742   7
  14  -2  -9 764.038 131.385   7
  14  -2 -10 1947.10 158.042   7
  14   3 -10 311.999 72.8561  11
  14   3  -9 2799.88 208.703  11
  14   3  -8 74.2248 97.1129  11
  14   3  -7 2816.56 258.077  11
  14   3  -6 3698.93 312.838  11
  14   3  -5 877.199 192.327  11
  14   3  -4 491.133 166.508  11
  14   3  -3 2983.84 313.984  11
  14   3  -2 1352.43 232.707  11
  14  -3   1 1448.07 226.483   7
  14   3  -1 1044.66 222.464  11
  14   3   0 2643.64 313.656  11
  14  -3   0 2481.03 285.859   7
  14  -3  -1 1024.27 215.634   7
  14   3   1 999.239 223.208  11
  14  -3  -1 1068.59 171.893  11
  14  -3  -2 1574.07 236.245   7
  14   3   2 1482.49 239.130  11
  14  -3  -2 1246.71 192.674  11
  14   3   3 3500.23 335.724  11
  14  -3  -3 3124.29 270.987  11
  14  -3  -3 3479.40 321.113   7
  14  -3  -4 354.395 161.947   7
  14   3   4 458.113 167.528  11
  14  -3  -4 440.895 124.335  11
  14   3   5 1044.68 200.978  11
  14  -3  -5 753.360 164.560   7
  14  -3  -5 963.831 171.760  11
  14  -3  -6 3538.71 297.952   7
  14  -3  -7 2781.09 258.844   7
  14  -3  -8 23.3447 96.8312   7
  14   3   8 4.23310 63.5112  13
  14  -3  -9 2698.94 211.447   7
  14  -3 -10 399.567 90.5836   7
  14   4  -9 398.047 85.2402  11
  14   4  -8 2535.69 206.655  11
  14   4  -7 1699.59 195.231  11
  14   4  -6 49.1839 98.1584  11
  14   4  -5 4378.83 331.522  11
  14   4  -4 445.490 156.588  11
  14   4  -3 1506.92 235.282  11
  14   4  -2 257.781 130.110  11
  14   4  -1 3253.60 330.433  11
  14  -4   1 3358.06 308.086   7
  14  -4   0 64.8760 132.307   7
  14   4   0-38.8040 127.953  11
  14   4   1 3835.84 351.309  11
  14  -4  -1 3802.57 340.485   7
  14  -4  -2 388.952 171.897   7
  14   4   2 164.730 134.455  11
  14  -4  -3 1719.72 250.342   7
  14   4   3 1561.36 236.885  11
  14  -4  -4 565.307 174.358   7
  14   4   4 618.188 178.081  11
  14  -4  -4 795.182 133.236  11
  14  -4  -5 4652.53 279.978  11
  14  -4  -5 4796.13 348.624   7
  14  -4  -6 60.7240 120.380   7
  14  -4  -6 95.6447 90.0904  11
  14  -4  -7 1428.79 148.125  11
  14  -4  -7 1475.51 190.146   7
  14  -4  -8 2165.81 163.428  11
  14   4   8 2252.53 176.789  13
  14  -4  -8 2671.06 223.232   7
  14  -4  -9 476.233 108.768   7
  14   5  -8 2289.41 167.206  11
  14   5  -7 376.480 105.041  11
  14   5  -6 532.016 130.169  11
  14   5  -5 733.614 155.385  11
  14   5  -4 1959.55 233.314  11
  14   5  -3 2044.15 252.060  11
  14   5  -2 2437.28 269.207  11
  14   5  -1 1306.63 212.969  11
  14  -5   1 1197.14 221.118   7
  14  -5   0 598.447 179.769   7
  14   5   0 687.269 175.665  11
  14  -5  -1 1207.64 223.756   7
  14   5   1 1244.40 214.792  11
  14   5   2 2322.48 272.415  11
  14  -5  -2 2196.82 275.270   7
  14   5   3 1841.78 240.869  11
  14  -5  -3 2100.24 258.276   7
  14  -5  -4 1827.97 234.151   7
  14   5   4 2432.95 264.474  11
  14  -5  -5 569.777 167.909   7
  14  -5  -6 758.888 161.945   7
  14  -5  -7 336.279 125.366   7
  14   5   8 2494.63 180.956  13
  14  -5  -8 2667.74 210.269   7
  14  -5  -9 557.788 98.3170   7
  14   6  -7 1687.27 131.109  11
  14   6  -6-25.7661 66.6529  11
  14   6  -5 4192.95 265.586  11
  14   6  -4 1560.92 188.663  11
  14   6  -3 678.615 141.412  11
  14   6  -2 1010.95 171.210  11
  14   6  -1 1247.80 196.322  11
  14   6   0 767.821 167.928  11
  14  -6   0 679.590 171.827   7
  14   6   1 1341.75 202.135  11
  14  -6  -1 1791.94 242.000   7
  14  -6  -2 1272.75 223.183   7
  14   6   2 1228.04 197.659  11
  14  -6  -3 530.358 159.073   7
  14   6   3 587.910 156.248  11
  14  -6  -4 1651.56 227.546   7
 -14  -6   5 3944.90 246.374   6
  14  -6  -5 4381.55 310.000   7
  14  -6  -6-21.8175 101.564   7
  14   6   7 2404.67 188.273  13
  14  -6  -7 2716.48 211.097   7
  14  -6  -8 1113.01 128.540   7
  14   7  -5-58.5598 55.9386  11
 -14  -7  -5-206.366 79.7078   6
  14   7  -4 3270.94 212.236  11
  14   7  -3 178.548 88.7434  11
  14   7  -2 2190.25 206.175  11
  14   7  -1 217.822 103.196  11
  14   7   0 2317.78 228.076  11
  14   7   1 104.839 86.4920  11
  14  -7  -1 61.8049 121.608   7
  14  -7  -2 2035.25 230.700   7
  14  -7  -3 283.519 130.543   7
 -14  -7   3 438.745 132.855   6
 -14  -7   4 3331.52 234.948   6
  14  -7  -4 3839.20 274.557   7
  14  -7  -5 179.870 108.269   7
 -14  -7   5-69.9835 71.4458   6
  14  -7  -6 3171.73 218.875   7
  14  -7  -7 19.5099 68.6132   7
  14   7   7 102.959 60.2464  13
 -14  -8  -4 1298.74 129.478   6
 -14  -8  -3 209.454 88.8736   6
 -14  -8  -2 1697.15 180.734   6
 -14  -8  -1 1246.93 167.254   6
 -14  -8   0 3317.77 257.923   6
 -14  -8   1 1597.57 189.927   6
 -14  -8   2 1581.19 179.704   6
 -14  -8   3 375.655 106.826   6
 -14  -8   4 1103.10 122.854   6
  14  -8  -4 1350.00 159.355   7
  14  -8  -5 623.930 103.485   7
 -14  -9  -2 1015.92 113.219   6
 -14  -9  -1 122.809 70.8628   6
 -14  -9   0 1548.24 153.057   6
 -14  -9   1 158.060 76.5216   6
 -14  -9   2 1234.33 127.558   6
  15   0   0-45.3587 100.111  11
  15   0   1 1032.62 172.792  11
  15   0  -1 1142.77 188.377  11
  15   0   2 6629.75 367.067  11
  15   0  -2 6247.25 377.934  11
  15   0   3 1036.55 160.647  11
  15   0  -3 870.516 166.347  11
  15   0  -4 126.243 109.513  11
  15   0  -5 5.24276 100.492  11
  15   0  -6 422.211 116.008  11
  15   0  -7 13.9012 78.7841  11
  15   0  -8 544.203 98.2972  11
  15   1  -8 221.076 83.4569  11
  15   1  -7 1575.36 167.196  11
  15   1  -6 492.106 126.700  11
  15   1  -5 2913.03 249.831  11
  15   1  -4 395.198 140.708  11
  15  -1   3 1020.75 144.928  11
  15   1  -3 978.416 177.604  11
  15  -1   2 2181.76 202.173  11
  15   1  -2 2648.90 264.518  11
  15  -1   1 3782.88 272.164  11
  15   1  -1 3666.70 307.065  11
  15  -1   0 369.256 126.813  11
  15   1   0 316.672 137.226  11
  15   1   1 4442.04 332.613  11
  15  -1  -1 3973.34 290.777  11
  15   1   2 2693.81 255.277  11
  15  -1  -2 2892.37 252.704  11
  15  -1  -3 973.739 138.582   7
  15   1   3 1190.93 183.304  11
  15  -1  -3 1198.72 182.036  11
  15  -1  -4 392.353 101.369   7
  15  -1  -4 313.368 120.940  11
  15  -1  -5 3266.73 249.606  11
  15  -1  -5 2550.69 193.864   7
  15  -1  -6 646.592 102.404   7
  15  -1  -6 428.018 114.406  11
  15  -1  -7 1538.26 155.357  11
  15  -1  -8 324.390 75.6416  11
  15   2  -8 3469.96 197.726  11
  15   2  -7 1271.00 152.473  11
  15   2  -6 868.814 147.721  11
  15   2  -5 71.4031 106.934  11
  15   2  -4 3415.11 279.002  11
  15   2  -3 2222.00 241.426  11
  15   2  -2 287.768 130.548  11
  15   2  -1 84.2184 116.044  11
  15  -2   0 719.095 128.824  11
  15   2   0 639.842 151.645  11
  15  -2  -1 238.813 108.098   7
  15   2   1 75.3981 115.568  11
  15  -2  -1 58.4788 85.1057  11
  15  -2  -2 258.365 100.666   7
  15   2   2 84.5633 108.238  11
  15  -2  -2 239.919 109.848  11
  15   2   3 2223.28 232.669  11
  15  -2  -3 1713.27 189.017  11
  15  -2  -3 1757.95 190.293   7
  15  -2  -4 3554.07 250.313  11
  15  -2  -4 2776.99 220.652   7
  15  -2  -5 66.3927 95.0237   7
  15  -2  -5-16.0697 77.4310  11
  15  -2  -6 784.485 117.373   7
  15  -2  -6 1002.42 134.887  11
  15  -2  -7 1145.76 124.011   7
  15  -2  -7 1072.35 122.794  11
  15   3  -7 908.382 118.682  11
  15   3  -6 173.615 85.6299  11
  15   3  -5 1988.37 204.527  11
  15   3  -4 3068.82 258.951  11
  15   3  -3 51.3373 102.342  11
  15   3  -2 286.440 125.414  11
  15   3  -1 1018.74 188.156  11
  15   3   0 3554.22 299.037  11
  15  -3  -1 1127.13 162.113   7
  15   3   1 1399.16 200.210  11
  15  -3  -2 105.074 104.809   7
  15   3   2 287.651 124.547  11
  15  -3  -3 124.049 97.0495   7
  15   3   3 113.934 106.175  11
  15  -3  -3 2.74389 66.7325  11
  15  -3  -4 3013.96 196.420  11
  15  -3  -4 3014.96 232.669   7
  15  -3  -5 2069.43 160.523  11
  15  -3  -5 2161.31 199.590   7
  15  -3  -6 224.506 87.6150   7
  15  -3  -6 191.375 64.2350  11
  15  -3  -7 827.193 108.608   7
  15   4  -6 530.392 105.050  11
  15   4  -5 603.081 122.421  11
  15   4  -4 501.663 113.556  11
  15   4  -3 2234.13 222.403  11
  15   4  -2 1975.26 214.088  11
  15   4  -1 1692.18 211.842  11
  15   4   0 604.986 153.238  11
  15   4   1 1937.33 221.381  11
  15  -4  -1 1705.38 198.506   7
  15   4   2 2409.76 239.618  11
  15  -4  -2 2326.35 217.660   7
  15   4   3 2769.19 243.461  11
  15  -4  -3 2656.27 224.910   7
  15  -4  -4 520.396 125.540   7
  15  -4  -5 444.708 105.509   7
  15  -4  -6 477.841 98.7032   7
  15   5  -5 254.394 78.3654  11
  15   5  -4 993.357 133.767  11
  15   5  -3 272.435 103.744  11
  15   5  -2 1516.70 178.976  11
  15   5  -1 152.245 99.0688  11
  15   5   0 993.415 157.405  11
  15   5   1 221.336 105.788  11
  15   5   2 1544.88 183.297  11
  15  -5  -2 1631.38 183.944   7
  15  -5  -3 286.574 106.230   7
  15  -5  -4 1208.16 153.519   7
 -15  -5   4 1124.49 125.697   6
  15  -5  -5 138.729 81.6391   7
  15  -5  -6 4161.00 212.867   7
  15   6  -3 1621.68 145.570  11
  15   6  -2 468.781 98.8949  11
  15   6  -1-78.9718 81.1784  11
  15   6   0 663.434 119.523  11
 -15  -6   3 1804.45 153.359   6
  15  -6  -4 604.504 105.838   7
  15  -6  -5 2593.42 166.562   7
 -15  -7  -2 1712.10 145.435   6
 -15  -7  -1 391.263 92.2707   6
 -15  -7   0 3122.87 205.344   6
 -15  -7   1 278.550 82.5728   6
  16   0   0 301.240 83.5403  11
  16   0   1 1214.34 122.261  11
  16   0  -1 1295.70 138.310  11
  16   0  -2 796.595 110.017  11
  16   0  -3 544.987 99.2184  11
  16   0  -4 139.791 63.7120  11
  16   1  -4 125.757 72.6578  11
  16   1  -3 1223.57 134.295  11
  16   1  -2 2171.11 174.441  11
  16   1  -1 324.510 90.5345  11
  16   1   0 162.091 73.1653  11
  16   1   1 504.654 100.205  11
  16   2  -4 1304.19 127.761  11
  16   2  -3 375.086 95.9095  11
  16   2  -2 93.7422 75.7460  11
  16   2  -1 1076.61 138.645  11
  16   2   0 2225.01 179.496  11
  16   2   1 1206.13 138.548  11
  16   3  -3 1311.02 131.375  11
  16   3  -2 83.6956 69.9408  11
  16   3  -1 1442.98 144.496  11
  16   3   0 179.862 80.5367  11
  16   3   1 1290.09 139.485  11
  16   4  -2 341.942 76.4391  11
  16   4  -1 365.873 82.2456  11
  16   4   0 52.2376 61.8351  11
   0   0   0    0.00    0.00   0
TITL 071405 in P2(1)2(1)2(1)
REM P2(1)2(1)2(1) (#19 in standard setting)
CELL 1.54184  13.084367  14.074068  16.450736  90.0000  90.0000  90.0000
ZERR   43.00   0.000236   0.000245   0.000287   0.0000   0.0000   0.0000
LATT -1
SYMM -x+1/2,-y, z+1/2
SYMM -x, y+1/2,-z+1/2
SYMM  x+1/2,-y+1/2,-z
SFAC C H N O Cu
UNIT 43.00 43.00 43.00 43.00 43.00
TREF
HKLF 4
END
;
_shelx_hkl_checksum              17669
#END Tags that were not found in dictionaries
loop_
_space_group_symop_operation_xyz
'x, y, z'
'-x+1/2, -y, z+1/2'
'x+1/2, -y+1/2, -z'
'-x, y+1/2, -z+1/2'
loop_
_atom_site_label
_atom_site_type_symbol
_atom_site_fract_x
_atom_site_fract_y
_atom_site_fract_z
_atom_site_U_iso_or_equiv
_atom_site_adp_type
_atom_site_occupancy
_atom_site_site_symmetry_order
_atom_site_calc_flag
_atom_site_refinement_flags_posn
_atom_site_refinement_flags_adp
Cu1 Cu 0.71444(7) 0.20566(6) 0.34215(5) 0.0359(2) Uani 1 1 d . .
Cu2 Cu 0.44125(6) 0.46650(6) 0.41206(5) 0.0371(2) Uani 1 1 d . .
O6 O 0.7955(4) 0.1441(3) 0.4311(3) 0.0419(9) Uani 1 1 d . .
O4 O 0.6285(4) 0.3015(4) 0.2817(3) 0.0520(12) Uani 1 1 d . .
N4 N 0.4039(5) 0.5216(4) 0.5789(3) 0.0455(12) Uani 1 1 d . .
O1 O 0.3866(3) 0.5541(3) 0.3268(3) 0.0425(9) Uani 1 1 d . .
O3 O 0.5230(4) 0.3655(4) 0.4719(3) 0.0476(11) Uani 1 1 d . .
N5 N 0.7856(4) 0.1631(4) 0.1801(3) 0.0404(11) Uani 1 1 d . .
H5A H 0.7249 0.1442 0.1684 0.048 Uiso 1 1 calc R U
C5 C 0.5748(5) 0.3170(4) 0.4218(4) 0.0393(12) Uani 1 1 d . .
N6 N 0.8170(4) 0.1899(4) 0.2551(3) 0.0385(10) Uani 1 1 d . .
C16 C 0.9464(5) 0.2071(4) 0.1663(4) 0.0385(11) Uani 1 1 d . .
C4 C 0.5697(5) 0.3439(4) 0.3325(4) 0.0421(12) Uani 1 1 d . .
O5 O 0.2925(4) 0.3901(4) 0.4364(3) 0.0546(12) Uani 1 1 d . .
O2 O 0.6237(5) 0.0759(4) 0.3067(3) 0.0588(14) Uani 1 1 d . .
N1 N 0.5025(5) 0.4095(4) 0.3191(3) 0.0460(13) Uani 1 1 d . .
N3 N 0.4267(4) 0.5548(4) 0.5054(3) 0.0387(10) Uani 1 1 d . .
N2 N 0.6340(4) 0.2457(4) 0.4322(3) 0.0418(11) Uani 1 1 d . .
C8 C 0.7551(5) 0.1475(4) 0.5026(4) 0.0388(12) Uani 1 1 d . .
C1 C 0.4087(5) 0.5327(5) 0.2537(4) 0.0406(12) Uani 1 1 d . .
C15 C 0.9140(5) 0.2152(5) 0.2489(4) 0.0409(12) Uani 1 1 d . .
C11 C 0.4352(4) 0.6719(4) 0.5985(4) 0.0382(12) Uani 1 1 d . .
C6 C 0.6517(5) 0.1980(5) 0.5091(4) 0.0423(13) Uani 1 1 d . .
H6 H 0.6528 0.2442 0.5537 0.051 Uiso 1 1 calc R U
C12 C 0.4447(6) 0.6473(4) 0.5164(4) 0.0442(13) Uani 1 1 d . .
C18 C 0.8634(5) 0.1702(5) 0.1257(4) 0.0421(13) Uani 1 1 d . .
C2 C 0.4797(8) 0.4488(7) 0.2395(4) 0.064(2) Uani 1 1 d . .
H2A H 0.5422 0.4686 0.2115 0.077 Uiso 1 1 calc R U
C7 C 0.5686(6) 0.1250(7) 0.5231(5) 0.0616(19) Uani 1 1 d . .
H7A H 0.5030 0.1554 0.5203 0.092 Uiso 1 1 calc R U
H7B H 0.5772 0.0968 0.5758 0.092 Uiso 1 1 calc R U
H7C H 0.5728 0.0766 0.4822 0.092 Uiso 1 1 calc R U
C10 C 0.4070(6) 0.5899(5) 0.6355(4) 0.0486(15) Uani 1 1 d . .
C17 C 1.0522(5) 0.2291(4) 0.1333(4) 0.0442(14) Uani 1 1 d . .
H17A H 1.1015 0.2207 0.1767 0.053 Uiso 1 1 calc R U
H17B H 1.0682 0.1833 0.0911 0.053 Uiso 1 1 calc R U
C13 C 0.4638(13) 0.7118(7) 0.4471(5) 0.101(5) Uani 1 1 d . .
H13A H 0.5350 0.7103 0.4333 0.151 Uiso 1 1 calc R U
H13B H 0.4447 0.7753 0.4619 0.151 Uiso 1 1 calc R U
H13C H 0.4240 0.6916 0.4012 0.151 Uiso 1 1 calc R U
C9 C 0.3797(14) 0.5660(9) 0.7217(6) 0.105(5) Uani 1 1 d . .
H9A H 0.3597 0.5004 0.7249 0.157 Uiso 1 1 calc R U
H9B H 0.3242 0.6055 0.7392 0.157 Uiso 1 1 calc R U
H9C H 0.4379 0.5766 0.7561 0.157 Uiso 1 1 calc R U
C19 C 0.8474(8) 0.1364(8) 0.0406(5) 0.068(2) Uani 1 1 d . .
H19A H 0.7803 0.1094 0.0356 0.102 Uiso 1 1 calc R U
H19B H 0.8977 0.0890 0.0276 0.102 Uiso 1 1 calc R U
H19C H 0.8540 0.1889 0.0038 0.102 Uiso 1 1 calc R U
C14 C 0.9741(8) 0.2449(9) 0.3209(5) 0.077(3) Uani 1 1 d . .
H14A H 0.9324 0.2839 0.3555 0.115 Uiso 1 1 calc R U
H14B H 1.0328 0.2805 0.3035 0.115 Uiso 1 1 calc R U
H14C H 0.9961 0.1897 0.3504 0.115 Uiso 1 1 calc R U
H4 H 0.380(5) 0.459(5) 0.591(4) 0.034(17) Uiso 1 1 d . .
C3 C 0.4164(17) 0.3756(10) 0.1864(8) 0.146(9) Uani 1 1 d . .
H3A H 0.4578 0.3208 0.1752 0.219 Uiso 1 1 calc R U
H3B H 0.3969 0.4051 0.1361 0.219 Uiso 1 1 calc R U
H3C H 0.3563 0.3565 0.2156 0.219 Uiso 1 1 calc R U
loop_
_atom_site_aniso_label
_atom_site_aniso_U_11
_atom_site_aniso_U_22
_atom_site_aniso_U_33
_atom_site_aniso_U_23
_atom_site_aniso_U_13
_atom_site_aniso_U_12
Cu1 0.0407(4) 0.0381(4) 0.0290(4) 0.0013(3) 0.0049(3) 0.0085(3)
Cu2 0.0418(4) 0.0408(4) 0.0288(4) -0.0026(3) 0.0000(3) 0.0103(3)
O6 0.047(2) 0.046(2) 0.0334(19) 0.0004(17) 0.0007(18) 0.0130(19)
O4 0.065(3) 0.058(3) 0.033(2) 0.005(2) 0.012(2) 0.029(2)
N4 0.064(3) 0.043(3) 0.029(2) -0.002(2) 0.001(2) -0.015(2)
O1 0.050(2) 0.042(2) 0.036(2) 0.0035(17) -0.0016(18) 0.0145(18)
O3 0.057(2) 0.056(3) 0.0297(19) -0.0005(19) 0.0040(19) 0.023(2)
N5 0.038(2) 0.054(3) 0.029(2) -0.002(2) 0.005(2) -0.009(2)
C5 0.046(3) 0.040(3) 0.031(3) 0.001(2) -0.001(2) 0.009(2)
N6 0.043(2) 0.040(3) 0.033(2) -0.004(2) 0.006(2) -0.004(2)
C16 0.039(3) 0.032(2) 0.045(3) 0.006(2) 0.011(3) -0.003(2)
C4 0.053(3) 0.044(3) 0.030(3) 0.001(2) 0.007(3) 0.013(3)
O5 0.062(3) 0.065(3) 0.037(2) 0.006(2) 0.005(2) -0.024(3)
O2 0.073(3) 0.064(3) 0.039(2) -0.016(2) 0.003(3) -0.029(3)
N1 0.058(3) 0.049(3) 0.031(2) 0.005(2) 0.006(2) 0.021(2)
N3 0.041(2) 0.039(2) 0.035(2) -0.0011(19) -0.001(2) -0.004(2)
N2 0.050(3) 0.047(3) 0.028(2) 0.000(2) 0.001(2) 0.017(2)
C8 0.048(3) 0.036(3) 0.033(3) 0.000(2) -0.001(2) 0.008(2)
C1 0.042(3) 0.043(3) 0.037(3) 0.006(2) 0.005(2) 0.010(2)
C15 0.042(3) 0.041(3) 0.039(3) 0.001(2) 0.005(2) -0.005(2)
C11 0.034(2) 0.042(3) 0.038(3) -0.008(2) -0.004(2) -0.005(2)
C6 0.051(3) 0.049(3) 0.027(2) 0.001(3) 0.006(2) 0.014(3)
C12 0.056(3) 0.041(3) 0.036(3) 0.000(2) -0.002(3) -0.011(3)
C18 0.047(3) 0.049(3) 0.030(3) -0.001(2) 0.007(2) -0.006(3)
C2 0.087(5) 0.076(5) 0.028(3) 0.008(3) 0.009(3) 0.049(5)
C7 0.056(4) 0.075(5) 0.054(4) 0.007(4) 0.020(3) 0.006(4)
C10 0.060(4) 0.049(3) 0.037(3) -0.005(3) 0.002(3) -0.014(3)
C17 0.037(3) 0.043(3) 0.053(3) 0.013(3) 0.011(3) 0.002(2)
C13 0.188(14) 0.068(5) 0.045(4) 0.010(4) -0.010(6) -0.057(8)
C9 0.176(14) 0.093(7) 0.045(4) -0.018(5) 0.029(7) -0.070(9)
C19 0.076(5) 0.090(6) 0.039(4) -0.008(4) 0.013(4) -0.022(5)
C14 0.076(5) 0.108(7) 0.046(4) -0.007(4) 0.000(4) -0.037(6)
C3 0.25(2) 0.106(9) 0.083(7) -0.059(7) -0.085(11) 0.108(13)
loop_
_atom_type_symbol
_atom_type_description
_atom_type_scat_dispersion_real
_atom_type_scat_dispersion_imag
_atom_type_scat_source
C C 0.0181 0.0091 'International Tables Vol C Tables 4.2.6.8 and 6.1.1.4'
H H 0.0000 0.0000 'International Tables Vol C Tables 4.2.6.8 and 6.1.1.4'
N N 0.0311 0.0180 'International Tables Vol C Tables 4.2.6.8 and 6.1.1.4'
O O 0.0492 0.0322 'International Tables Vol C Tables 4.2.6.8 and 6.1.1.4'
Cu Cu -1.9646 0.5888 'International Tables Vol C Tables 4.2.6.8 and 6.1.1.4'
loop_
_geom_angle_atom_site_label_1
_geom_angle_atom_site_label_2
_geom_angle_atom_site_label_3
_geom_angle
_geom_angle_site_symmetry_1
_geom_angle_site_symmetry_3
N2 Cu1 N6 166.8(2) . .
N2 Cu1 O6 81.5(2) . .
N6 Cu1 O6 97.0(2) . .
N2 Cu1 O4 82.9(2) . .
N6 Cu1 O4 95.5(2) . .
O6 Cu1 O4 160.7(2) . .
N2 Cu1 O2 98.7(2) . .
N6 Cu1 O2 94.5(2) . .
O6 Cu1 O2 96.7(2) . .
O4 Cu1 O2 96.9(3) . .
N1 Cu2 N3 157.8(3) . .
N1 Cu2 O1 81.2(2) . .
N3 Cu2 O1 97.0(2) . .
N1 Cu2 O3 82.7(2) . .
N3 Cu2 O3 96.5(2) . .
O1 Cu2 O3 163.49(18) . .
N1 Cu2 O5 107.7(3) . .
N3 Cu2 O5 94.5(2) . .
O1 Cu2 O5 96.3(2) . .
O3 Cu2 O5 92.0(2) . .
C8 O6 Cu1 115.6(4) . .
C4 O4 Cu1 108.9(4) . .
N3 N4 C10 112.0(5) . .
C1 O1 Cu2 115.9(4) . .
C5 O3 Cu2 110.0(4) . .
C18 N5 N6 110.6(5) . .
O3 C5 N2 131.2(6) . .
O3 C5 C4 118.2(5) . .
N2 C5 C4 110.6(5) . .
C15 N6 N5 107.1(5) . .
C15 N6 Cu1 132.7(5) . .
N5 N6 Cu1 119.1(4) . .
C18 C16 C15 105.0(5) . .
C18 C16 C17 128.4(6) . .
C15 C16 C17 126.5(6) . .
O4 C4 N1 128.9(6) . .
O4 C4 C5 119.2(5) . .
N1 C4 C5 112.0(5) . .
C8 O5 Cu2 133.5(4) 3_456 .
C1 O2 Cu1 141.6(5) 4_645 .
C4 N1 C2 124.5(5) . .
C4 N1 Cu2 116.6(4) . .
C2 N1 Cu2 118.5(4) . .
N4 N3 C12 104.9(5) . .
N4 N3 Cu2 120.4(4) . .
C12 N3 Cu2 134.3(5) . .
C5 N2 C6 125.2(5) . .
C5 N2 Cu1 117.6(4) . .
C6 N2 Cu1 117.0(4) . .
O5 C8 O6 124.2(6) 3_556 .
O5 C8 C6 119.5(6) 3_556 .
O6 C8 C6 116.3(5) . .
O2 C1 O1 124.4(6) 4_655 .
O2 C1 C2 117.8(6) 4_655 .
O1 C1 C2 117.9(5) . .
N6 C15 C16 109.7(6) . .
N6 C15 C14 121.5(6) . .
C16 C15 C14 128.8(6) . .
C10 C11 C12 104.2(5) . .
C10 C11 C17 130.0(6) . 2_665
C12 C11 C17 125.6(6) . 2_665
N2 C6 C7 109.4(6) . .
N2 C6 C8 107.1(5) . .
C7 C6 C8 109.4(6) . .
N3 C12 C11 110.9(6) . .
N3 C12 C13 121.5(6) . .
C11 C12 C13 127.3(7) . .
N5 C18 C16 107.4(5) . .
N5 C18 C19 119.3(6) . .
C16 C18 C19 133.3(7) . .
N1 C2 C1 106.4(5) . .
N1 C2 C3 110.9(9) . .
C1 C2 C3 105.7(8) . .
N4 C10 C11 107.9(6) . .
N4 C10 C9 119.3(7) . .
C11 C10 C9 132.9(7) . .
C11 C17 C16 114.9(5) 2_664 .
loop_
_geom_bond_atom_site_label_1
_geom_bond_atom_site_label_2
_geom_bond_distance
_geom_bond_site_symmetry_2
Cu1 N2 1.903(5) .
Cu1 N6 1.975(5) .
Cu1 O6 2.004(4) .
Cu1 O4 2.018(5) .
Cu1 O2 2.255(5) .
Cu2 N1 1.904(5) .
Cu2 N3 1.984(5) .
Cu2 O1 2.000(4) .
Cu2 O3 2.034(5) .
Cu2 O5 2.260(5) .
O6 C8 1.291(8) .
O4 C4 1.283(8) .
N4 N3 1.330(7) .
N4 C10 1.339(9) .
O1 C1 1.272(7) .
O3 C5 1.267(8) .
N5 C18 1.358(8) .
N5 N6 1.355(7) .
C5 N2 1.279(8) .
C5 C4 1.517(8) .
N6 C15 1.323(8) .
C16 C18 1.376(9) .
C16 C15 1.426(8) .
C16 C17 1.519(8) .
C4 N1 1.295(8) .
O5 C8 1.235(8) 3_456
O2 C1 1.240(8) 4_645
N1 C2 1.451(8) .
N3 C12 1.336(8) .
N2 C6 1.451(7) .
C8 O5 1.235(8) 3_556
C8 C6 1.531(8) .
C1 O2 1.240(8) 4_655
C1 C2 1.521(9) .
C15 C14 1.483(10) .
C11 C10 1.356(10) .
C11 C12 1.400(8) .
C11 C17 1.514(8) 2_665
C6 C7 1.513(11) .
C12 C13 1.479(10) .
C18 C19 1.494(10) .
C2 C3 1.585(19) .
C10 C9 1.499(11) .
C17 C11 1.514(8) 2_664
