#------------------------------------------------------------------------------
#$Date: 2016-03-23 23:59:59 +0200 (Wed, 23 Mar 2016) $
#$Revision: 179520 $
#$URL: svn://www.crystallography.net/cod/cif/4/34/17/4341730.cif $
#------------------------------------------------------------------------------
#
# This file is available in the Crystallography Open Database (COD),
# http://www.crystallography.net/
#
# All data on this site have been placed in the public domain by the
# contributors.
#
data_4341730
loop_
_publ_author_name
'Karmakar, Avishek'
'Manna, Biplab'
'Desai, Aamod V.'
'Joarder, Biplab'
'Ghosh, Sujit K.'
_publ_section_title
;
 Dynamic Metal-Organic Framework with Anion-Triggered Luminescence
 Modulation Behavior.
;
_journal_name_full               'Inorganic chemistry'
_journal_page_first              141118130516009
_journal_paper_doi               10.1021/ic501477u
_journal_year                    2014
_chemical_formula_moiety         'C16 H22 B2 F8 N10 O2 Zn'
_chemical_formula_sum            'C16 H22 B2 F8 N10 O2 Zn'
_chemical_formula_weight         625.42
_chemical_name_systematic
;
 ?
;
_space_group_crystal_system      monoclinic
_space_group_IT_number           15
_space_group_name_Hall           '-C 2yc'
_space_group_name_H-M_alt        'C 1 2/c 1'
_symmetry_space_group_name_Hall  '-C 2yc'
_symmetry_space_group_name_H-M   'C 1 2/c 1'
_atom_sites_solution_hydrogens   geom
_audit_creation_method           SHELXL-2013
_cell_angle_alpha                90.000(5)
_cell_angle_beta                 106.163(5)
_cell_angle_gamma                90.000(5)
_cell_formula_units_Z            4
_cell_length_a                   18.834(5)
_cell_length_b                   12.345(5)
_cell_length_c                   15.224(5)
_cell_measurement_reflns_used    1474
_cell_measurement_temperature    200(2)
_cell_measurement_theta_max      20.01
_cell_measurement_theta_min      2.25
_cell_volume                     3400(2)
_computing_cell_refinement       'Bruker SAINT'
_computing_data_collection       'Bruker APEX2'
_computing_data_reduction        'Bruker SAINT'
_computing_molecular_graphics    'Bruker SHELXTL'
_computing_publication_material  'Bruker SHELXTL'
_computing_structure_refinement  'SHELXL-97 (Sheldrick, 2008)'
_computing_structure_solution    'SHELXS-97 (Sheldrick, 2008)'
_diffrn_ambient_temperature      200(2)
_diffrn_measured_fraction_theta_full 0.501
_diffrn_measured_fraction_theta_max 0.975
_diffrn_measurement_device_type  'Bruker APEX-II CCD'
_diffrn_measurement_method       '\f and \w scans'
_diffrn_radiation_type           MoK\a
_diffrn_radiation_wavelength     0.71073
_diffrn_reflns_av_R_equivalents  0.0434
_diffrn_reflns_av_unetI/netI     0.0379
_diffrn_reflns_Laue_measured_fraction_full 0.501
_diffrn_reflns_Laue_measured_fraction_max 0.975
_diffrn_reflns_limit_h_max       16
_diffrn_reflns_limit_h_min       -18
_diffrn_reflns_limit_k_max       11
_diffrn_reflns_limit_k_min       -11
_diffrn_reflns_limit_l_max       14
_diffrn_reflns_limit_l_min       -14
_diffrn_reflns_number            6124
_diffrn_reflns_point_group_measured_fraction_full 0.501
_diffrn_reflns_point_group_measured_fraction_max 0.975
_diffrn_reflns_theta_full        25.242
_diffrn_reflns_theta_max         20.013
_diffrn_reflns_theta_min         2.249
_diffrn_source                   'fine-focus sealed tube'
_exptl_absorpt_coefficient_mu    0.793
_exptl_absorpt_correction_T_max  0.9249
_exptl_absorpt_correction_T_min  0.8970
_exptl_absorpt_correction_type   multi-scan
_exptl_absorpt_process_details   'multi-scan absorption correction'
_exptl_crystal_colour            colourless
_exptl_crystal_density_diffrn    1.222
_exptl_crystal_description       rod
_exptl_crystal_F_000             1264
_exptl_crystal_size_max          0.140
_exptl_crystal_size_mid          0.110
_exptl_crystal_size_min          0.100
_platon_squeeze_details
;
The SQUEEZE routine of the program PLATON was used

in order to eliminate the contribution of disordered solvents molecules,

thereby a final model based only on the ordered part of the crystal structure

was obtained.



The SQUEEZE routine suggested that

a total potential solvent area volume of 1282.5Ang^3^[37.72% of cell volume],

and a void electron population of 351 per cell.



Refinement after the SQUEEZE routine gave significantly improved R values.

[R values before SQUEEZE]

R1 = 0.1619, wR2 = 0.4243 for >2sigma(I) data

R1 = 0.1830, wR2 = 0.4602, GooF = S = 2.205 for all data

( 2923 data and 2 restraint / 352 parameters)

;
_refine_diff_density_max         0.359
_refine_diff_density_min         -0.333
_refine_diff_density_rms         0.070
_refine_ls_extinction_method     none
_refine_ls_goodness_of_fit_ref   1.096
_refine_ls_hydrogen_treatment    constr
_refine_ls_matrix_type           full
_refine_ls_number_parameters     186
_refine_ls_number_reflns         1543
_refine_ls_number_restraints     0
_refine_ls_restrained_S_all      1.096
_refine_ls_R_factor_all          0.0608
_refine_ls_R_factor_gt           0.0540
_refine_ls_shift/su_max          0.001
_refine_ls_shift/su_mean         0.000
_refine_ls_structure_factor_coef Fsqd
_refine_ls_weighting_details
'w=1/[\s^2^(Fo^2^)+(0.0197P)^2^+41.7577P] where P=(Fo^2^+2Fc^2^)/3'
_refine_ls_weighting_scheme      calc
_refine_ls_wR_factor_gt          0.1247
_refine_ls_wR_factor_ref         0.1276
_reflns_Friedel_coverage         0.000
_reflns_number_gt                1355
_reflns_number_total             1543
_reflns_threshold_expression     'I > 2\s(I)'
_cod_data_source_file            ic501477u_si_004.cif
_cod_data_source_block           Compound1BF4
_cod_database_code               4341730
#BEGIN Tags that were not found in dictionaries:
_shelx_space_group_comment
;
The symmetry employed for this shelxl refinement is uniquely defined
by the following loop, which should always be used as a source of
symmetry information in preference to the above space-group names.
They are only intended as comments.
;
_shelx_estimated_absorpt_t_min   0.897
_shelx_estimated_absorpt_t_max   0.925
_shelxl_version_number           2013-3
_shelx_res_file
;
TITL TRIAL1 in Cc
CELL  0.71073  18.8340  12.3450  15.2240   90.000  106.163   90.000
ZERR     4.00   0.0050   0.0050   0.0050    0.005    0.005    0.005
LATT 7
SYMM  - X,   Y, 1/2 - Z
SFAC C  H  N  O  F  Zn B
UNIT 64  88  40  8  32  4  8
MERG 2
L.S. 10
ACTA
BOND   $H
FMAP 2
PLAN 25
WGHT    0.019700   41.757702
FVAR       0.74796
ZN1   6    0.500000    1.178426    0.250000    10.50000    0.01328    0.02400 =
         0.04387    0.00000    0.00790    0.00000
C1    1    0.103206    0.853738    0.230666    11.00000    0.04688    0.07263 =
         0.03457   -0.01637    0.01670   -0.04319
AFIX  43
H1    2    0.114920    0.848180    0.294010    11.00000   -1.20000
AFIX   0
C2    1    0.145531    0.920142    0.193212    11.00000    0.03353    0.06219 =
         0.04005   -0.01579    0.00967   -0.03599
AFIX  43
H2    2    0.184974    0.957840    0.231304    11.00000   -1.20000
AFIX   0
C3    1    0.130086    0.931508    0.099428    11.00000    0.01608    0.02551 =
         0.03311   -0.00569    0.00433    0.00335
C4    1    0.069444    0.876125    0.047999    11.00000    0.02267    0.03277 =
         0.03454   -0.00206    0.00467   -0.00462
AFIX  43
H4    2    0.055341    0.882938   -0.015341    11.00000   -1.20000
AFIX   0
C5    1    0.029417    0.810491    0.089924    11.00000    0.01736    0.02839 =
         0.03936   -0.00022    0.00296   -0.00340
AFIX  43
H5    2   -0.011266    0.773887    0.053246    11.00000   -1.20000
AFIX   0
C6    1    0.179175    0.998073    0.060597    11.00000    0.01451    0.01788 =
         0.03509   -0.00416    0.00361   -0.00229
C7    1    0.154097    1.041745   -0.035024    11.00000    0.02239    0.03564 =
         0.03556    0.00078    0.00506   -0.00747
AFIX  33
H7A   2    0.193490    1.082410   -0.047878    11.00000   -1.50000
H7B   2    0.112079    1.088053   -0.040913    11.00000   -1.50000
H7C   2    0.140671    0.982721   -0.077477    11.00000   -1.50000
AFIX   0
C8    1    0.359537    1.092915    0.153399    11.00000    0.02393    0.02512 =
         0.03776    0.01011    0.01247    0.00735
N1    3    0.045872    0.796652    0.180197    11.00000    0.01953    0.03517 =
         0.03532   -0.01000    0.01053   -0.00997
N2    3    0.243348    1.012311    0.115915    11.00000    0.01955    0.01955 =
         0.03984    0.00641    0.01447   -0.00301
N3    3    0.294563    1.074476    0.089653    11.00000    0.01616    0.03241 =
         0.02936    0.00469    0.00212   -0.00644
AFIX  43
H3    2    0.285673    1.100401    0.035235    11.00000   -1.20000
AFIX   0
N4    3    0.371015    1.039169    0.231373    11.00000    0.01320    0.04306 =
         0.05338    0.01658   -0.00197   -0.00721
AFIX  43
H4A   2    0.337589    0.996748    0.240608    11.00000   -1.20000
AFIX   0
N5    3    0.438715    1.052492    0.298899    11.00000    0.02002    0.03484 =
         0.05000    0.01238   -0.00079   -0.00503
AFIX  23
H5A   2    0.466338    0.985146    0.308322    11.00000   -1.20000
H5B   2    0.430198    1.074068    0.356390    11.00000   -1.20000
AFIX   0
O1    4    0.405675    1.158266    0.137898    11.00000    0.01432    0.03416 =
         0.04483    0.01078    0.00791   -0.00741
F1    5    0.213854    0.283426    0.071570    11.00000    0.07076    0.04469 =
         0.06636    0.00423    0.03663    0.00958
F2    5    0.115830    0.224533    0.111428    11.00000    0.07794    0.11876 =
         0.12956   -0.04205    0.05570   -0.01872
F3    5    0.177177    0.374038    0.176517    11.00000    0.10001    0.21504 =
         0.29290   -0.22057    0.06060   -0.01788
F4    5    0.101817    0.373350    0.064189    10.50000    0.09798    0.10847 =
         0.10028    0.01444    0.03600    0.05659
F5    5    0.220177    0.239075    0.214084    10.50000    0.13315    0.12594 =
         0.05398    0.00029    0.02492    0.00117
B1    7    0.168710    0.299037    0.124804    11.00000    0.09621    0.06519 =
         0.07504   -0.02704    0.04699   -0.02816
HKLF    4

REM  TRIAL1 in Cc
REM R1 =  0.0540 for    1355 Fo > 4sig(Fo)  and  0.0608 for all    1543 data
REM    186 parameters refined using      0 restraints

END

WGHT      0.0170     43.1870

REM Highest difference peak  0.359,  deepest hole -0.333,  1-sigma level  0.070
Q1    1   0.1029  1.0202 -0.0675  11.00000  0.05    0.36
Q2    1   0.1863  1.0156 -0.0818  11.00000  0.05    0.36
Q3    1   0.1561  1.1256 -0.0335  11.00000  0.05    0.35
Q4    1   0.1544  0.3946  0.1197  11.00000  0.05    0.34
Q5    1   0.5116  0.8363  0.3516  11.00000  0.05    0.33
Q6    1   0.3988  1.1032  0.4847  11.00000  0.05    0.32
Q7    1   0.1932  0.3209  0.2041  11.00000  0.05    0.32
Q8    1   0.4520  1.0492  0.4954  11.00000  0.05    0.32
Q9    1   0.2551  0.1887  0.4004  11.00000  0.05    0.28
Q10   1   0.2017  0.4419  0.1723  11.00000  0.05    0.26
Q11   1   0.2697  0.1315  0.3615  11.00000  0.05    0.24
Q12   1   0.1503  0.3492  0.2159  11.00000  0.05    0.22
Q13   1   0.2360  0.1974  0.3158  11.00000  0.05    0.21
Q14   1   0.1417  0.3265  0.2039  11.00000  0.05    0.21
Q15   1   0.0938  0.1541  0.2721  11.00000  0.05    0.20
Q16   1   0.0910  0.7024 -0.1158  11.00000  0.05    0.20
Q17   1   0.1436  0.1170  0.1981  11.00000  0.05    0.19
Q18   1   0.3291  0.8313  0.0348  11.00000  0.05    0.18
Q19   1   0.3494  0.9869 -0.0171  11.00000  0.05    0.18
Q20   1   0.0399  0.9597 -0.0297  11.00000  0.05    0.17
Q21   1   0.2395  0.2319  0.1756  11.00000  0.05    0.17
Q22   1   0.2635  1.1285  0.1341  11.00000  0.05    0.17
Q23   1   0.1085  0.3036  0.0713  11.00000  0.05    0.16
Q24   1   0.1339  0.2242  0.0358  11.00000  0.05    0.15
Q25   1   0.1791  0.2257  0.3540  11.00000  0.05    0.15
;
_shelx_res_checksum              59902
_shelx_hkl_file
;
  -2   0   0      42      25                                                         324   23.75   -1.02  1.0000
   2   0   0      44      24                                                         337   23.75    1.02  1.0000
   2   0   0      54      29                                                         389   23.75    1.02  1.0000
  -4   0   0    5662      80                                                        2081   42.56   -9.98  1.0000
  -4   0   0    5674      86                                                        2088   42.56   -9.98  1.0000
   4   0   0    5560      79                                                        2019   42.56    9.98  1.0000
  -6   0   0    3177      75                                                         882  -36.75   11.34  1.0000
   6   0   0    3414      64                                                        1009  -36.75  -11.34  1.0000
  -6   0   0    2998      69                                                         789  -36.75   11.34  1.0000
   8   0   0    4970     282                                                       10583   45.30   11.36  1.0000
  -8   0   0    4659     291                                                       10127   45.30  -11.36  1.0000
  -8   0   0    5033     291                                                       10674   45.30  -11.36  1.0000
  10   0   0    1825     116                                                        2050    3.63    0.68  1.0000
 -10   0   0    2029     126                                                        2266    3.63   -0.68  1.0000
 -10   0   0    2047     125                                                        2285    3.63   -0.68  1.0000
 -12   0   0     556      84                                                         520    1.70   -4.68  1.0000
 -12   0   0     377      77                                                         346    1.70   -4.68  1.0000
  12   0   0     557      80                                                         521    1.70    4.68  1.0000
  14   0   0    2180     144                                                        1675   -9.02   -0.40  1.0000
 -14   0   0    2123     150                                                        1625   -9.02    0.40  1.0000
 -14   0   0    1917     139                                                        1445   -9.02    0.40  1.0000
 -16   0   0    1986     170                                                        2198    3.02   -1.70  1.0000
 -16   0   0    2038     169                                                        2253    3.02   -1.70  1.0000
  -3  -1   0     439      45                                                         345   23.57  -10.49  1.0000
  -3  -1   0     571      38                                                         532   23.57  -10.49  1.0000
   3  -1   0     562      47                                                         520   23.56   10.50  1.0000
  -3   1   0     559      45                                                         516   23.56  -10.50  1.0000
   3   1   0     537      36                                                         485   23.57   10.49  1.0000
   5  -1   0    1110      55                                                         450   23.80   10.81  1.0000
  -5  -1   0    1115      48                                                         454   23.80  -10.81  1.0000
  -5  -1   0     983      57                                                         359   23.80  -10.81  1.0000
  -5   1   0     962      51                                                         344   23.80  -10.81  1.0000
   5   1   0    1100      46                                                         443   23.80   10.81  1.0000
  -5   1   0    1041      42                                                         400   23.80  -10.81  1.0000
  -7  -1   0     415      62                                                         289   -1.45   -6.00  1.0000
  -7  -1   0     514      51                                                         374   -1.45   -6.00  1.0000
   7  -1   0     535      58                                                         392   -1.44    6.01  1.0000
  -7   1   0     551      52                                                         406   -1.44   -6.01  1.0000
   7   1   0     513      50                                                         373   -1.45    6.00  1.0000
  -7   1   0     522      60                                                         381   -1.44   -6.01  1.0000
  -9  -1   0    2581     146                                                        3517  -10.95    5.52  1.0000
  -9  -1   0    2849     171                                                        3829  -10.95    5.52  1.0000
   9  -1   0    2705     153                                                        3662  -10.96   -5.50  1.0000
  -9   1   0    2683     143                                                        3636  -10.96    5.50  1.0000
   9   1   0    2829     145                                                        3806  -10.95   -5.52  1.0000
  -9   1   0    2550     157                                                        3481  -10.96    5.50  1.0000
 -11  -1   0     747      99                                                         708    0.75   -1.78  1.0000
  11  -1   0     726      89                                                         688    0.75    1.78  1.0000
 -11  -1   0     828      93                                                         787    0.75   -1.78  1.0000
 -11   1   0     698      89                                                         661    0.75   -1.78  1.0000
 -11   1   0     789      86                                                         749    0.75   -1.78  1.0000
  11   1   0     799      84                                                         759    0.75    1.78  1.0000
  13  -1   0      84      54                                                          68    7.37    3.12  1.0000
 -13  -1   0      50      55                                                          29    7.37   -3.12  1.0000
 -13  -1   0      31      63                                                         -68    7.37   -3.12  1.0000
  13   1   0      70      49                                                          52    7.37    3.12  1.0000
 -13   1   0      31      54                                                         -40    7.37   -3.12  1.0000
 -13   1   0      89      61                                                          73    7.37   -3.12  1.0000
 -15  -1   0    2110     165                                                        1942    2.51   -1.08  1.0000
 -15  -1   0    1902     167                                                        1743    2.51   -1.08  1.0000
  15  -1   0    2133     146                                                        1964    2.51    1.10  1.0000
 -15   1   0    2068     174                                                        1902    2.51   -1.10  1.0000
 -15   1   0    2146     149                                                        1977    2.51   -1.10  1.0000
 -17  -1   0      31      88                                                          41   -1.86   -0.56  1.0000
 -17  -1   0      75      80                                                          92   -1.86   -0.56  1.0000
 -17   1   0     187      95                                                         213   -1.85   -0.56  1.0000
 -17   1   0       2      73                                                         -64   -1.85   -0.56  1.0000
   0  -2   0     615     153                                                        6102  -76.82    0.00  1.0000
   0  -2   0     563     157                                                        5935  -76.82    0.00  1.0000
   0   2   0     610     153                                                        6085  -76.82    0.00  1.0000
  -2  -2   0   13879     178                                                        7497   43.96  -12.39  1.0000
  -2  -2   0   13981     206                                                        7572   43.96  -12.39  1.0000
   2  -2   0   13557     193                                                        7260   43.96   12.39  1.0000
   2   2   0   13892     178                                                        7506   43.96   12.39  1.0000
  -2   2   0   13707     194                                                        7370   43.96  -12.39  1.0000
   4  -2   0   11599     439                                                       18812  -42.05   -5.87  1.0000
  -4  -2   0   11900     416                                                       19194  -42.05    5.85  1.0000
  -4  -2   0   11828     461                                                       19103  -42.05    5.85  1.0000
   4   2   0   12343     416                                                       19756  -42.05   -5.85  1.0000
  -4   2   0   11352     439                                                       18497  -42.05    5.87  1.0000
  -6  -2   0      41      30                                                          20    9.62   -1.48  1.0000
   6  -2   0      52      33                                                          41    9.62    1.49  1.0000
  -6  -2   0      82      50                                                          87    9.62   -1.48  1.0000
   6   2   0      54      30                                                          45    9.62    1.48  1.0000
  -6   2   0      42      36                                                          22    9.62   -1.49  1.0000
   8  -2   0    1373     109                                                        1900  -13.15   -2.08  1.0000
  -8  -2   0    1287     126                                                        1797  -13.16    2.08  1.0000
  -8  -2   0    1363      99                                                        1889  -13.16    2.08  1.0000
   8   2   0    1236      90                                                        1736  -13.16   -2.08  1.0000
  -8   2   0    1141     110                                                        1622  -13.15    2.08  1.0000
  10  -2   0   10554     286                                                        9381    8.17    2.39  1.0000
 -10  -2   0   10151     305                                                        9002    8.17   -2.38  1.0000
 -10  -2   0    9678     263                                                        8557    8.17   -2.38  1.0000
  10   2   0    9921     256                                                        8785    8.17    2.38  1.0000
 -10   2   0    9938     291                                                        8801    8.17   -2.39  1.0000
  12  -2   0     335      82                                                         423   -7.07   -5.41  1.0000
 -12  -2   0     285      73                                                         363   -7.07    5.43  1.0000
 -12  -2   0     109      75                                                         144   -7.07    5.43  1.0000
 -12   2   0     274      64                                                         350   -7.07    5.41  1.0000
  12   2   0     142      57                                                         187   -7.07   -5.43  1.0000
 -12   2   0     135      69                                                         178   -7.07    5.41  1.0000
  14  -2   0     200      65                                                         147    2.89   -0.38  1.0000
 -14  -2   0       4      73                                                         -11    2.89    0.39  1.0000
 -14  -2   0      46      61                                                          23    2.89    0.39  1.0000
 -14   2   0      38      57                                                          17    2.89    0.38  1.0000
 -14   2   0     168      71                                                         120    2.89    0.38  1.0000
 -16  -2   0     340      89                                                         304   -0.98    1.10  1.0000
 -16  -2   0     221      96                                                         192   -0.98    1.10  1.0000
 -16   2   0     132      84                                                         110   -0.98    1.10  1.0000
  -1  -3   0    1861     135                                                        4512   40.10   -5.70  1.0000
   1  -3   0    1805     143                                                        4422   40.11    5.69  1.0000
   1  -3   0    1846     135                                                        4490   40.11    5.69  1.0000
  -1  -3   0    1889     153                                                        4558   40.10   -5.70  1.0000
   1   3   0    1929     137                                                        4621   40.10    5.70  1.0000
  -1   3   0    1858     144                                                        4508   40.11   -5.69  1.0000
  -3  -3   0    2756     112                                                        1989   22.02   11.33  1.0000
  -3  -3   0    3042      87                                                        2245   22.02   11.33  1.0000
   3  -3   0    2857      99                                                        2076   22.02  -11.27  1.0000
   3   3   0    2982      85                                                        2191   22.02  -11.33  1.0000
  -3   3   0    2857     103                                                        2076   22.02   11.27  1.0000
   5  -3   0   14038     471                                                       19591   30.80    4.56  1.0000
  -5  -3   0   14303     441                                                       19907   30.82   -4.57  1.0000
  -5  -3   0   13985     497                                                       19532   30.82   -4.57  1.0000
   5   3   0   13519     436                                                       18980   30.82    4.57  1.0000
  -5   3   0   14300     474                                                       19900   30.80   -4.56  1.0000
  -7  -3   0    3237     154                                                        4648   16.31   -0.95  1.0000
   7  -3   0    3205     180                                                        4608   16.30    0.93  1.0000
  -7  -3   0    3119     193                                                        4506   16.31   -0.95  1.0000
   7   3   0    3112     150                                                        4498   16.31    0.95  1.0000
  -7   3   0    3243     183                                                        4654   16.30   -0.93  1.0000
  -9  -3   0    4987     199                                                        5910    6.56   -6.64  1.0000
   9  -3   0    5073     224                                                        6005    6.58    6.65  1.0000
  -9  -3   0    5418     249                                                        6378    6.56   -6.64  1.0000
   9   3   0    5088     192                                                        6019    6.56    6.64  1.0000
  -9   3   0    5116     229                                                        6052    6.58   -6.65  1.0000
 -11  -3   0   11075     383                                                       11683    3.75   -2.22  1.0000
  11  -3   0   10614     353                                                       11207    3.73    2.22  1.0000
 -11  -3   0   10762     325                                                       11362    3.75   -2.22  1.0000
  11   3   0   10646     312                                                       11243    3.75    2.22  1.0000
 -11   3   0   10645     359                                                       11239    3.73   -2.22  1.0000
 -13  -3   0    5723     214                                                        5429   -3.05   -1.37  1.0000
 -13  -3   0    5597     260                                                        5306   -3.05   -1.37  1.0000
  13  -3   0    5624     238                                                        5334   -3.04    1.37  1.0000
 -13   3   0    5420     240                                                        5135   -3.04   -1.37  1.0000
 -15  -3   0     213      79                                                         213   -2.35   -1.40  1.0000
 -15  -3   0     310     110                                                         310   -2.35   -1.40  1.0000
  15  -3   0     275      83                                                         275   -2.34    1.39  1.0000
 -15   3   0     261      89                                                         261   -2.34   -1.39  1.0000
   0  -4   0      44      75                                                        1146  -58.38    0.01  1.0000
   0  -4   0      46      82                                                        1140  -58.38    0.01  1.0000
   2  -4   0    7932     334                                                       14188  -43.38    2.64  1.0000
  -2  -4   0    7717     372                                                       13899  -43.38   -2.65  1.0000
   2  -4   0    7680     354                                                       13850  -43.38    2.64  1.0000
  -2  -4   0    7349     337                                                       13404  -43.38   -2.65  1.0000
  -2   4   0    8518     361                                                       14969  -43.38   -2.64  1.0000
   2   4   0    7944     340                                                       14204  -43.38    2.65  1.0000
   4  -4   0    3028     137                                                        3041   -0.98    5.40  1.0000
  -4  -4   0    3236     119                                                        3250   -0.98   -5.40  1.0000
  -4  -4   0    3182     153                                                        3196   -0.98   -5.40  1.0000
  -4   4   0    3090     137                                                        3104   -0.98   -5.40  1.0000
   4   4   0    2949     114                                                        2962   -0.98    5.40  1.0000
   6  -4   0      92      48                                                          72    2.64    1.96  1.0000
  -6  -4   0      45      35                                                          30    2.65   -1.97  1.0000
  -6  -4   0      27      56                                                          15    2.65   -1.97  1.0000
  -6   4   0       5      41                                                         -22    2.64   -1.96  1.0000
   6   4   0       5      31                                                         -30    2.65    1.97  1.0000
   8  -4   0      20      43                                                         -49   -6.26    1.72  1.0000
  -8  -4   0     164      65                                                          71   -6.26   -1.72  1.0000
  -8  -4   0      20      32                                                         -52   -6.26   -1.72  1.0000
  -8   4   0     126      48                                                          47   -6.26   -1.72  1.0000
   8   4   0     177      41                                                          80   -6.26    1.72  1.0000
 -10  -4   0    1442     169                                                        1902   -8.01    1.34  1.0000
  10  -4   0    1624     138                                                        2109   -8.00   -1.31  1.0000
 -10  -4   0    1517     116                                                        1988   -8.01    1.34  1.0000
 -10   4   0    1482     163                                                        1947   -8.00    1.31  1.0000
  10   4   0    1402     106                                                        1856   -8.01   -1.34  1.0000
  12  -4   0     896     115                                                         819    0.95    2.55  1.0000
 -12  -4   0     562      82                                                         501    0.95   -2.55  1.0000
 -12  -4   0     985     137                                                         904    0.95   -2.55  1.0000
 -12   4   0     796     117                                                         724    0.95   -2.55  1.0000
 -14  -4   0     932     106                                                         811    2.33   -2.14  1.0000
 -14  -4   0     799     128                                                         687    2.33   -2.14  1.0000
  14  -4   0    1135     134                                                        1001    2.32    2.15  1.0000
 -14   4   0     806     122                                                         694    2.32   -2.15  1.0000
 -16  -4   0     185     110                                                         189   -1.67   -1.62  1.0000
 -16  -4   0     201      77                                                         205   -1.67   -1.62  1.0000
  16  -4   0      72      78                                                          74   -1.66    1.63  1.0000
 -16   4   0     228      99                                                         233   -1.66   -1.63  1.0000
  -1  -5   0     208      47                                                         203   28.29    6.97  1.0000
   1  -5   0     209      51                                                         182   28.32   -6.98  1.0000
  -1  -5   0     209      59                                                         219   28.29    6.97  1.0000
   1  -5   0     217      54                                                         296   28.32   -6.98  1.0000
   1   5   0     216      45                                                         128   28.29   -6.97  1.0000
  -1   5   0     209      54                                                         235   28.32    6.98  1.0000
   3  -5   0    2822     175                                                        4340  -16.29  -10.29  1.0000
  -3  -5   0    3247     197                                                        4866  -16.29   10.32  1.0000
  -3  -5   0    3219     164                                                        4831  -16.29   10.32  1.0000
   3  -5   0    3065     147                                                        4641  -16.29  -10.29  1.0000
   3   5   0    3303     165                                                        4934  -16.29  -10.32  1.0000
  -3   5   0    3135     181                                                        4727  -16.29   10.29  1.0000
   5  -5   0     425     123                                                        1886  -34.37   -2.18  1.0000
  -5  -5   0     424     102                                                        1884  -34.34    2.19  1.0000
  -5  -5   0     524     144                                                        2094  -34.34    2.19  1.0000
   5   5   0     497     102                                                        2038  -34.34   -2.19  1.0000
  -5   5   0     453     122                                                        1947  -34.37    2.18  1.0000
   7  -5   0    1553     129                                                        1970   -8.18   -2.76  1.0000
  -7  -5   0    1381     103                                                        1776   -8.19    2.72  1.0000
  -7  -5   0    1464     145                                                        1870   -8.19    2.72  1.0000
  -7   5   0    1341     130                                                        1729   -8.18    2.76  1.0000
   7   5   0    1276      96                                                        1656   -8.19   -2.72  1.0000
   9  -5   0    2527     150                                                        2230    4.48    1.13  1.0000
  -9  -5   0    2464     168                                                        2172    4.48   -1.10  1.0000
  -9  -5   0    2734     126                                                        2426    4.48   -1.10  1.0000
  -9   5   0    2451     146                                                        2159    4.48   -1.13  1.0000
   9   5   0    2531     117                                                        2235    4.48    1.10  1.0000
 -11  -5   0    2268     197                                                        2687   -6.01    1.55  1.0000
 -11  -5   0    2406     146                                                        2837   -6.01    1.55  1.0000
  11  -5   0    2277     173                                                        2698   -6.02   -1.52  1.0000
 -11   5   0    2117     167                                                        2523   -6.02    1.52  1.0000
 -13  -5   0    3779     261                                                        4377   -6.59    1.46  1.0000
  13  -5   0    3748     230                                                        4344   -6.60   -1.47  1.0000
 -13  -5   0    4004     204                                                        4618   -6.59    1.46  1.0000
 -13   5   0    3735     233                                                        4330   -6.60    1.47  1.0000
 -15  -5   0    2006     222                                                        2209   -3.52   -0.65  1.0000
 -15  -5   0    1722     160                                                        1910   -3.52   -0.65  1.0000
  15  -5   0    2017     208                                                        2220   -3.51    0.68  1.0000
 -15   5   0    1788     198                                                        1979   -3.51   -0.68  1.0000
   0  -6   0    2298     140                                                        2939    9.04    0.01  1.0000
   0  -6   0    2344     145                                                        2991    9.04    0.01  1.0000
  -2  -6   0    6304     257                                                        7262    8.78   -3.40  1.0000
   2  -6   0    6253     245                                                        7206    8.77    3.41  1.0000
  -2  -6   0    6278     233                                                        7234    8.78   -3.40  1.0000
   2  -6   0    6047     221                                                        6984    8.77    3.41  1.0000
   2   6   0    6451     235                                                        7420    8.78    3.40  1.0000
  -2   6   0    6431     248                                                        7397    8.77   -3.41  1.0000
   4  -6   0    5444     319                                                       10021   36.99    8.61  1.0000
  -4  -6   0    5805     296                                                       10509   36.99   -8.57  1.0000
   4  -6   0    5717     269                                                       10391   36.99    8.61  1.0000
  -4  -6   0    5931     344                                                       10678   36.99   -8.57  1.0000
   4   6   0    5778     292                                                       10472   36.99    8.57  1.0000
  -4   6   0    5590     320                                                       10219   36.99   -8.61  1.0000
   6  -6   0     694     111                                                         941    6.51    1.09  1.0000
  -6  -6   0     628      90                                                         864    6.51   -1.09  1.0000
  -6  -6   0     555     113                                                         778    6.51   -1.09  1.0000
   6   6   0     583      82                                                         811    6.51    1.09  1.0000
  -6   6   0     534     102                                                         753    6.51   -1.09  1.0000
  -8  -6   0    1566     164                                                        1675    1.29   -2.00  1.0000
  -8  -6   0    1705     112                                                        1819    1.29   -2.00  1.0000
   8  -6   0    1663     133                                                        1775    1.28    2.00  1.0000
  -8   6   0    1537     154                                                        1645    1.28   -2.00  1.0000
   8   6   0    1462     104                                                        1567    1.29    2.00  1.0000
 -10  -6   0    2977     208                                                        3053   -1.01   -4.12  1.0000
  10  -6   0    2580     169                                                        2651   -1.00    4.13  1.0000
 -10  -6   0    2475     142                                                        2544   -1.01   -4.12  1.0000
 -10   6   0    2698     178                                                        2771   -1.00   -4.13  1.0000
 -12  -6   0    6160     350                                                        7622   10.82   -8.45  1.0000
  12  -6   0    6467     318                                                        7964   10.82    8.45  1.0000
 -12  -6   0    6273     273                                                        7748   10.82   -8.45  1.0000
 -12   6   0    6553     328                                                        8060   10.82   -8.45  1.0000
 -14  -6   0     619     143                                                         654   -0.68    0.90  1.0000
  14  -6   0     507     118                                                         539   -0.68   -0.93  1.0000
 -14  -6   0     599     107                                                         633   -0.68    0.90  1.0000
 -14   6   0     486     113                                                         517   -0.68    0.93  1.0000
  -1  -7   0     383      84                                                         424   -1.77   -0.51  1.0000
  -1  -7   0     331      70                                                         369   -1.77   -0.51  1.0000
   1  -7   0     460      76                                                         505   -1.75    0.48  1.0000
   1  -7   0     468      83                                                         513   -1.75    0.48  1.0000
   1   7   0     296      68                                                         332   -1.77    0.51  1.0000
   3  -7   0     871     138                                                        1566  -12.07    9.96  1.0000
  -3  -7   0     909     111                                                        1617  -12.08   -9.92  1.0000
  -3  -7   0     997     154                                                        1734  -12.08   -9.92  1.0000
   3  -7   0     807     100                                                        1479  -12.07    9.96  1.0000
  -3   7   0    1006     146                                                        1746  -12.07   -9.96  1.0000
   3   7   0     844     108                                                        1529  -12.08    9.92  1.0000
  -5  -7   0    2396     108                                                        1540  -13.92    6.38  1.0000
   5  -7   0    2773     155                                                        1845  -13.94   -6.38  1.0000
  -5  -7   0    2493     155                                                        1618  -13.92    6.38  1.0000
   5   7   0    2573     111                                                        1683  -13.92   -6.38  1.0000
  -5   7   0    2671     153                                                        1762  -13.94    6.38  1.0000
   7  -7   0    2143     160                                                        2399   -5.14    8.97  1.0000
  -7  -7   0    2154     132                                                        2411   -5.15   -8.98  1.0000
  -7  -7   0    2075     180                                                        2326   -5.15   -8.98  1.0000
  -7   7   0    1979     154                                                        2224   -5.14   -8.97  1.0000
   7   7   0    1912     124                                                        2152   -5.15    8.98  1.0000
   9  -7   0      17      59                                                          12   -0.60    0.77  1.0000
  -9  -7   0      81      81                                                          70   -0.62   -0.75  1.0000
  -9  -7   0      85      52                                                          74   -0.62   -0.75  1.0000
  -9   7   0      27      60                                                          21   -0.60   -0.77  1.0000
 -11  -7   0       5      80                                                           1   -2.08   -0.74  1.0000
 -11  -7   0     119      64                                                          96   -2.08   -0.74  1.0000
  11  -7   0      97      73                                                          76   -2.12    0.76  1.0000
 -11   7   0     184      82                                                         154   -2.12   -0.76  1.0000
  13  -7   0     154      90                                                         172    1.24    0.27  1.0000
 -13  -7   0      88      90                                                         102    1.23   -0.30  1.0000
 -13  -7   0     113      73                                                         129    1.23   -0.30  1.0000
 -13   7   0     193      96                                                         213    1.24   -0.27  1.0000
   0  -8   0    4217     211                                                        4731   -5.54    0.00  1.0000
   0  -8   0    4130     209                                                        4639   -5.54    0.00  1.0000
   0   8   0    4562     213                                                        5096   -5.54    0.00  1.0000
  -2  -8   0    4368     205                                                        3971    4.32   -2.55  1.0000
  -2  -8   0    4761     192                                                        4346    4.32   -2.55  1.0000
   2  -8   0    4783     201                                                        4368    4.32    2.57  1.0000
   2  -8   0    4410     179                                                        4011    4.32    2.57  1.0000
   2   8   0    4558     191                                                        4152    4.32    2.55  1.0000
  -4  -8   0    1195     143                                                        1210   -2.45   -7.36  1.0000
  -4  -8   0    1371     128                                                        1389   -2.45   -7.36  1.0000
   4  -8   0    1281     142                                                        1298   -2.45    7.35  1.0000
   4  -8   0    1282      97                                                        1299   -2.45    7.35  1.0000
  -4   8   0    1415     143                                                        1434   -2.45   -7.35  1.0000
   4   8   0    1084     111                                                        1097   -2.45    7.36  1.0000
  -6  -8   0    4062     222                                                        3561    5.85   -7.11  1.0000
  -6  -8   0    4340     176                                                        3822    5.85   -7.11  1.0000
   6  -8   0    4059     199                                                        3558    5.85    7.13  1.0000
  -6   8   0    3653     196                                                        3178    5.85   -7.13  1.0000
   6   8   0    4271     170                                                        3757    5.85    7.11  1.0000
  -8  -8   0    1778     215                                                        2289   -7.96    2.12  1.0000
  -8  -8   0    1924     144                                                        2454   -7.96    2.12  1.0000
   8  -8   0    1811     201                                                        2327   -7.96   -2.15  1.0000
  -8   8   0    1646     191                                                        2139   -7.96    2.15  1.0000
 -10  -8   0     228     110                                                         296   -2.81    1.11  1.0000
  10  -8   0     502     114                                                         599   -2.80   -1.09  1.0000
 -10  -8   0     315      84                                                         394   -2.81    1.11  1.0000
 -10   8   0     471     120                                                         566   -2.80    1.09  1.0000
 -12  -8   0      97      68                                                          37   -5.99    2.27  1.0000
  12  -8   0      20      71                                                         -64   -6.00   -2.29  1.0000
 -12  -8   0      94      92                                                          35   -5.99    2.27  1.0000
 -12   8   0     434     100                                                         299   -6.00    2.29  1.0000
  -1  -9   0    3556     196                                                        3427   -2.11   -2.29  1.0000
  -1  -9   0    3519     182                                                        3390   -2.11   -2.29  1.0000
   1  -9   0    3323     178                                                        3200   -2.07    2.22  1.0000
   1  -9   0    3472     190                                                        3346   -2.07    2.22  1.0000
  -1   9   0    3473     190                                                        3347   -2.07   -2.22  1.0000
   1   9   0    3815     189                                                        3681   -2.11    2.29  1.0000
  -3  -9   0    2356     196                                                        3015    9.03   -1.72  1.0000
   3  -9   0    2296     157                                                        2949    9.04    1.76  1.0000
   3  -9   0    2048     174                                                        2667    9.04    1.76  1.0000
  -3  -9   0    2350     173                                                        3009    9.03   -1.72  1.0000
   3   9   0    1984     160                                                        2592    9.03    1.72  1.0000
  -3   9   0    2235     179                                                        2880    9.04   -1.76  1.0000
   5  -9   0     544      88                                                         854    9.80    4.92  1.0000
   5  -9   0     449     120                                                         731    9.80    4.92  1.0000
  -5  -9   0     459     130                                                         746    9.83   -4.94  1.0000
  -5  -9   0     459     106                                                         745    9.83   -4.94  1.0000
  -5   9   0     387     117                                                         650    9.80   -4.92  1.0000
   5   9   0     486     103                                                         780    9.83    4.94  1.0000
   7  -9   0      41      71                                                          41    0.40    0.03  1.0000
  -7  -9   0      53      87                                                          52    0.37   -0.05  1.0000
  -7  -9   0      65      64                                                          64    0.37   -0.05  1.0000
  -7   9   0       0      64                                                         -51    0.40   -0.03  1.0000
   9  -9   0     156      96                                                         221    1.55    3.72  1.0000
  -9  -9   0     111      73                                                         166    1.53   -3.69  1.0000
  -9  -9   0     143     107                                                         204    1.53   -3.69  1.0000
  -9   9   0     185     101                                                         255    1.55   -3.72  1.0000
 -11  -9   0    1743     221                                                        1883    2.26   -0.71  1.0000
 -11   9   0    1938     208                                                        2084    2.24   -0.72  1.0000
   0 -10   0     430     105                                                         597    5.33   -0.01  1.0000
   0 -10   0     558     120                                                         746    5.33   -0.01  1.0000
   0  10   0     364     102                                                         519    5.33    0.01  1.0000
  -2 -10   0     148      87                                                         155   -2.01    1.93  1.0000
   2 -10   0     108      71                                                         113   -2.01   -1.96  1.0000
   2 -10   0     161      78                                                         168   -2.01   -1.96  1.0000
  -2 -10   0     140      74                                                         146   -2.01    1.93  1.0000
  -2  10   0     214      86                                                         223   -2.01    1.96  1.0000
   2  10   0     167      76                                                         174   -2.01   -1.93  1.0000
  -4 -10   0    1090     128                                                         650   -9.21    6.73  1.0000
  -4 -10   0    1337     120                                                         844   -9.21    6.73  1.0000
   4 -10   0    1333     130                                                         841   -9.21   -6.72  1.0000
   4 -10   0    1121      95                                                         674   -9.21   -6.72  1.0000
  -4  10   0    1345     134                                                         851   -9.21    6.72  1.0000
   4  10   0    1354     123                                                         858   -9.21   -6.73  1.0000
   6 -10   0    1002     137                                                         839   -4.12   -0.35  1.0000
  -6 -10   0     959     145                                                         800   -4.12    0.34  1.0000
  -6 -10   0     775     111                                                         633   -4.12    0.34  1.0000
  -6  10   0    1080     142                                                         911   -4.12    0.35  1.0000
  -8 -10   0      61      72                                                          78    2.85   -1.27  1.0000
  -8 -10   0      22     107                                                          31    2.85   -1.27  1.0000
   8 -10   0       8      78                                                          11    2.85    1.25  1.0000
  -8  10   0     100      87                                                         122    2.85   -1.25  1.0000
  -1 -11   0     906     142                                                         877    1.09    0.86  1.0000
  -1 -11   0     867     130                                                         839    1.09    0.86  1.0000
   1 -11   0     919     131                                                         889    1.12   -0.89  1.0000
   1 -11   0     900     127                                                         870    1.12   -0.89  1.0000
   1  11   0     502     114                                                         480    1.09   -0.86  1.0000
  -1  11   0     950     139                                                         919    1.12    0.89  1.0000
   3 -11   0     545      96                                                         450    2.95   -2.15  1.0000
   3 -11   0     653     120                                                         549    2.95   -2.15  1.0000
  -3 -11   0     530     118                                                         437    2.93    2.20  1.0000
  -3 -11   0     454      99                                                         368    2.93    2.20  1.0000
  -3  11   0     552     112                                                         456    2.95    2.15  1.0000
  -5 -11   0      57      82                                                          31    1.66   -2.72  1.0000
  -5 -11   0     166     101                                                         120    1.66   -2.72  1.0000
   5 -11   0      43      81                                                          21    1.62    2.72  1.0000
  -5  11   0     218      95                                                         165    1.62   -2.72  1.0000
 -17  -1   1      18      69                                                          11   -1.06    0.69  1.0000
 -17  -1   1     100      92                                                          83   -1.06    0.69  1.0000
 -17   1   1       1      68                                                         -13    1.05   -0.67  1.0000
 -17   1   1      24      73                                                          16    1.05   -0.67  1.0000
 -15  -1   1    2890     180                                                        3313    5.48    1.38  1.0000
 -15  -1   1    2981     202                                                        3410    5.48    1.38  1.0000
  15  -1  -1    2867     177                                                        3290   -5.50    1.41  1.0000
 -15   1   1    2563     180                                                        2964   -5.50   -1.41  1.0000
 -15   1   1    2824     181                                                        3244   -5.50   -1.41  1.0000
  13  -1  -1    2120     126                                                        1439   10.36    7.43  1.0000
 -13  -1   1    2194     126                                                        1502  -10.33    7.41  1.0000
 -13  -1   1    2031     136                                                        1367  -10.33    7.41  1.0000
  13   1  -1    2067     101                                                        1397  -10.33   -7.41  1.0000
 -13   1   1    1918     130                                                        1273   10.36   -7.43  1.0000
 -13   1   1    2092     124                                                        1416   10.36   -7.43  1.0000
  11  -1  -1    4390     162                                                        3817    5.24    3.91  1.0000
 -11  -1   1    4748     190                                                        4150   -5.24    3.96  1.0000
 -11  -1   1    4561     163                                                        3975   -5.24    3.96  1.0000
  11   1  -1    4650     155                                                        4058   -5.24   -3.96  1.0000
 -11   1   1    4649     163                                                        4059    5.24   -3.91  1.0000
 -11   1   1    4393     172                                                        3820    5.24   -3.91  1.0000
  -9  -1   1     278      81                                                         551  -22.28    3.93  1.0000
   9  -1  -1     318      72                                                         625   22.22    3.96  1.0000
  -9  -1   1     224      60                                                         444  -22.28    3.93  1.0000
   9   1  -1     263      61                                                         523  -22.28   -3.93  1.0000
  -9   1   1     289      67                                                         572   22.22   -3.96  1.0000
  -9   1   1     264      73                                                         524   22.22   -3.96  1.0000
  -7  -1   1     504      73                                                        1383   21.43   -2.86  1.0000
  -7  -1   1     485      98                                                        1351   21.43   -2.86  1.0000
   7  -1  -1     486      78                                                        1350  -21.39   -2.80  1.0000
  -7   1   1     478      86                                                        1336  -21.39    2.80  1.0000
  -7   1   1     430      78                                                        1256  -21.39    2.80  1.0000
   7   1  -1     469      68                                                        1324   21.43    2.86  1.0000
  -5  -1   1    5424     248                                                       11083  -46.61   12.45  1.0000
  -5  -1   1    5468     290                                                       11147  -46.61   12.45  1.0000
   5  -1  -1    5114     266                                                       10634   46.63   12.42  1.0000
  -5   1   1    5305     271                                                       10912   46.63  -12.42  1.0000
  -5   1   1    5386     261                                                       11028   46.63  -12.42  1.0000
   5   1  -1    5364     248                                                       10997  -46.61  -12.45  1.0000
  -3  -1   1   10385     137                                                        6251  -31.83    8.38  1.0000
  -3  -1   1   10548     137                                                        6378  -31.83    8.38  1.0000
   3  -1  -1   10283     159                                                        6176   31.79    8.38  1.0000
  -3  -1   1   10555     176                                                        6383  -31.83    8.38  1.0000
  -3   1   1   10480     161                                                        6329   31.79   -8.38  1.0000
   1  -1  -1   82752     393                                                       20787  206.75    6.42  1.0000
  -1  -1   1   74649     377                                                       16834 -206.73    6.36  1.0000
  -1  -1  -1    2003     100                                                        3668  -30.47   14.13  1.0000
   1  -1   1    2059     102                                                        3749   30.49   14.16  1.0000
   1   1   1    2127     102                                                        3844  -30.47  -14.13  1.0000
  -1   1  -1    2008     102                                                        3676   30.49  -14.16  1.0000
  -3  -1  -1   30907     507                                                       24122   29.58   -2.07  1.0000
   3  -1   1   30015     513                                                       23326  -29.62   -2.07  1.0000
  -3   1  -1   30190     514                                                       23481  -29.62    2.07  1.0000
   3   1   1   30225     506                                                       23520   29.58    2.07  1.0000
  -5  -1  -1    3125     169                                                        4997  -20.10    7.21  1.0000
  -5  -1  -1    3220     156                                                        5116  -20.10    7.21  1.0000
   5  -1   1    2939     159                                                        4761   20.12    7.17  1.0000
  -5   1  -1    3112     139                                                        4980   20.12   -7.17  1.0000
   5   1   1    2989     152                                                        4824  -20.10   -7.21  1.0000
  -5   1  -1    3129     163                                                        5002   20.12   -7.17  1.0000
  -7  -1  -1   12778     269                                                        8788   27.07   -6.97  1.0000
  -7  -1  -1   13154     254                                                        9100   27.07   -6.97  1.0000
   7  -1   1   13445     262                                                        9346  -27.05   -6.96  1.0000
  -7   1  -1   12805     239                                                        8813  -27.05    6.96  1.0000
   7   1   1   13229     252                                                        9163   27.07    6.97  1.0000
  -7   1  -1   13034     263                                                        9003  -27.05    6.96  1.0000
  -9  -1  -1    5421     233                                                        6605  -10.72    4.85  1.0000
   9  -1   1    5168     222                                                        6322   10.69    4.86  1.0000
  -9  -1  -1    5396     221                                                        6577  -10.72    4.85  1.0000
  -9   1  -1    5433     231                                                        6615   10.69   -4.86  1.0000
  -9   1  -1    5400     207                                                        6578   10.69   -4.86  1.0000
   9   1   1    5428     216                                                        6613  -10.72   -4.85  1.0000
 -11  -1  -1       7      46                                                         -26   -3.89   -0.51  1.0000
 -11  -1  -1       3      56                                                          20   -3.89   -0.51  1.0000
  11  -1   1      17      49                                                          47    3.90   -0.53  1.0000
 -11   1  -1       7      40                                                         -58    3.90    0.53  1.0000
  11   1   1       7      41                                                         -28   -3.89    0.51  1.0000
 -11   1  -1       0      51                                                           9    3.90    0.53  1.0000
 -13  -1  -1    1113     131                                                        1293   -4.65   -0.70  1.0000
 -13  -1  -1    1093     140                                                        1271   -4.65   -0.70  1.0000
  13  -1   1    1145     136                                                        1328    4.66   -0.70  1.0000
 -13   1  -1     973     114                                                        1142    4.66    0.70  1.0000
 -13   1  -1     928     131                                                        1093    4.66    0.70  1.0000
  13   1   1    1049     119                                                        1224   -4.65    0.70  1.0000
 -15  -1  -1     638     107                                                         555    2.56   -0.06  1.0000
  15  -1   1     791     110                                                         697   -2.58   -0.06  1.0000
 -15  -1  -1     846     115                                                         750    2.56   -0.06  1.0000
 -15   1  -1     667     111                                                         581   -2.58    0.06  1.0000
 -15   1  -1     758     106                                                         666   -2.58    0.06  1.0000
 -16  -2   1    2908     219                                                        3321   -5.33    0.98  1.0000
 -16  -2   1    2897     183                                                        3310   -5.33    0.98  1.0000
 -16   2   1    2659     169                                                        3056    5.35   -0.98  1.0000
 -16   2   1    2888     201                                                        3301    5.35   -0.98  1.0000
 -14  -2   1    2764     193                                                        2792   -0.63   -1.31  1.0000
  14  -2  -1    3014     167                                                        3042    0.61   -1.30  1.0000
 -14  -2   1    3214     168                                                        3245   -0.63   -1.31  1.0000
 -14   2   1    3095     180                                                        3124    0.61    1.30  1.0000
 -14   2   1    3004     151                                                        3032    0.61    1.30  1.0000
 -12  -2   1    1994     150                                                        1564    7.27   -2.95  1.0000
  12  -2  -1    2119     118                                                        1675   -7.28   -2.92  1.0000
 -12  -2   1    2150     111                                                        1702    7.27   -2.95  1.0000
 -12   2   1    2080     105                                                        1641   -7.28    2.92  1.0000
  12   2  -1    2058     101                                                        1620    7.27    2.95  1.0000
 -12   2   1    2084     141                                                        1644   -7.28    2.92  1.0000
  10  -2  -1    3799     130                                                        2435  -15.53   -9.05  1.0000
 -10  -2   1    3786     153                                                        2423   15.55   -9.06  1.0000
 -10  -2   1    4142     121                                                        2710   15.55   -9.06  1.0000
 -10   2   1    3795     137                                                        2432  -15.53    9.05  1.0000
  10   2  -1    3880     108                                                        2499   15.55    9.06  1.0000
 -10   2   1    4038     113                                                        2627  -15.53    9.05  1.0000
  -8  -2   1    1679      98                                                        2324  -10.14    6.09  1.0000
   8  -2  -1    1832     121                                                        2502   10.12    6.09  1.0000
  -8  -2   1    1561     135                                                        2184  -10.14    6.09  1.0000
  -8   2   1    1704      96                                                        2352   10.12   -6.09  1.0000
   8   2  -1    1490      92                                                        2099  -10.14   -6.09  1.0000
  -8   2   1    1708     124                                                        2357   10.12   -6.09  1.0000
   6  -2  -1    1136      54                                                         347  -21.63   -2.08  1.0000
  -6  -2   1    1189      41                                                         377   21.62   -2.12  1.0000
  -6  -2   1    1232      68                                                         401   21.62   -2.12  1.0000
  -6   2   1    1298      61                                                         439  -21.63    2.08  1.0000
   4  -2  -1    5403     110                                                        2898  -28.02    4.84  1.0000
  -4  -2   1    5421     127                                                        2909   28.04    4.86  1.0000
  -4  -2   1    5323      84                                                        2837   28.04    4.86  1.0000
  -4   2   1    5324     113                                                        2840  -28.02   -4.84  1.0000
  -2  -2   1   37695     328                                                       13693  109.93  -16.84  1.0000
  -2  -2   1   37776     289                                                       13742  109.93  -16.84  1.0000
   2  -2  -1   36698     312                                                       13091 -109.95  -16.87  1.0000
  -2   2   1   37638     315                                                       13655 -109.95   16.87  1.0000
   0  -2  -1     161      43                                                         458   32.06   -5.91  1.0000
   0  -2   1     157      38                                                         406  -32.07   -5.97  1.0000
   0  -2   1     167      44                                                         497  -32.07   -5.97  1.0000
   0   2  -1     157      38                                                         413  -32.07    5.97  1.0000
   0   2   1     166      45                                                         495   32.06    5.91  1.0000
  -2  -2  -1    3979      72                                                        1655   31.79  -16.05  1.0000
   2  -2   1    4060      81                                                        1711  -31.76  -16.04  1.0000
   2   2   1    4155      76                                                        1772   31.79   16.05  1.0000
  -2   2  -1    3816      77                                                        1550  -31.76   16.04  1.0000
  -4  -2  -1    3945     172                                                        6165   21.04  -10.47  1.0000
  -4  -2  -1    3812     195                                                        5998   21.04  -10.47  1.0000
   4  -2   1    3820     186                                                        6010  -21.07  -10.43  1.0000
   4   2   1    3569     168                                                        5692   21.04   10.47  1.0000
  -4   2  -1    3623     182                                                        5762  -21.07   10.43  1.0000
  -6  -2  -1     763      90                                                        1596  -25.45    1.39  1.0000
   6  -2   1     835     100                                                        1706   25.39    1.31  1.0000
  -6  -2  -1     788     113                                                        1635  -25.45    1.39  1.0000
  -6   2  -1     757      98                                                        1586   25.39   -1.31  1.0000
   6   2   1     796      89                                                        1648  -25.45   -1.39  1.0000
  -8  -2  -1    7458     258                                                        8405    7.74    2.66  1.0000
   8  -2   1    8192     279                                                        9177   -7.69    2.64  1.0000
  -8  -2  -1    7920     290                                                        8896    7.74    2.66  1.0000
   8   2   1    7594     253                                                        8550    7.74   -2.66  1.0000
  -8   2  -1    8011     279                                                        8986   -7.69   -2.64  1.0000
 -10  -2  -1    1880     136                                                        2542   10.41   -2.47  1.0000
  10  -2   1    2060     149                                                        2751  -10.42   -2.43  1.0000
 -10  -2  -1    1927     158                                                        2597   10.41   -2.47  1.0000
 -10   2  -1    1810     112                                                        2461  -10.42    2.43  1.0000
  10   2   1    1964     131                                                        2640   10.41    2.47  1.0000
 -10   2  -1    1786     148                                                        2433  -10.42    2.43  1.0000
 -12  -2  -1     805     129                                                        1367   12.12   -3.18  1.0000
 -12  -2  -1     809     144                                                        1372   12.12   -3.18  1.0000
  12  -2   1     999     142                                                        1620  -12.16   -3.20  1.0000
 -12   2  -1     765      99                                                        1318  -12.16    3.20  1.0000
  12   2   1     903     126                                                        1494   12.12    3.18  1.0000
 -12   2  -1     944     150                                                        1549  -12.16    3.20  1.0000
  14  -2   1    2754     174                                                        2816   -1.24    1.30  1.0000
 -14  -2  -1    3228     205                                                        3297    1.27    1.35  1.0000
 -14  -2  -1    2794     174                                                        2858    1.27    1.35  1.0000
 -14   2  -1    2658     150                                                        2719   -1.24   -1.30  1.0000
 -14   2  -1    2989     194                                                        3054   -1.24   -1.30  1.0000
 -16  -2  -1     363     103                                                         374    0.32   -0.43  1.0000
  16  -2   1     430     106                                                         442   -0.32   -0.39  1.0000
 -16  -2  -1     512     117                                                         525    0.32   -0.43  1.0000
 -16   2  -1     628     129                                                         642   -0.32    0.39  1.0000
 -17  -3   1     541     134                                                         508    0.71   -0.82  1.0000
 -15  -3   1     932     148                                                         971   -0.13   -1.79  1.0000
  15  -3  -1     936     129                                                         975    0.10   -1.76  1.0000
 -15  -3   1    1309     130                                                        1355   -0.13   -1.79  1.0000
 -15   3   1    1019     140                                                        1060    0.10    1.76  1.0000
 -13  -3   1     402      76                                                         431   -0.74   -2.77  1.0000
 -13  -3   1     444     111                                                         475   -0.74   -2.77  1.0000
  13  -3  -1     337      83                                                         362    0.78   -2.75  1.0000
 -13   3   1     236      83                                                         257    0.78    2.75  1.0000
 -11  -3   1    2165     140                                                        3200  -14.08    3.75  1.0000
  11  -3  -1    2120     162                                                        3144   14.07    3.70  1.0000
 -11  -3   1    2041     185                                                        3049  -14.08    3.75  1.0000
  11   3  -1    2170     131                                                        3206  -14.08   -3.75  1.0000
 -11   3   1    2016     168                                                        3017   14.07   -3.70  1.0000
  -9  -3   1     730      77                                                        1110    8.38   -4.51  1.0000
   9  -3  -1     922     115                                                        1345   -8.42   -4.48  1.0000
  -9  -3   1     935     131                                                        1360    8.38   -4.51  1.0000
  -9   3   1     797     113                                                        1193   -8.42    4.48  1.0000
   9   3  -1     822      75                                                        1222    8.38    4.51  1.0000
   7  -3  -1     512      86                                                         835  -10.38   -3.40  1.0000
  -7  -3   1     614      63                                                         968   10.43   -3.46  1.0000
  -7  -3   1     479     101                                                         794   10.43   -3.46  1.0000
  -7   3   1     552      90                                                         887  -10.38    3.40  1.0000
  -5  -3   1    4548     193                                                        4955   -4.99   -2.00  1.0000
   5  -3  -1    4698     174                                                        5112    5.00   -2.06  1.0000
  -5  -3   1    4811     142                                                        5230   -4.99   -2.00  1.0000
  -5   3   1    4850     179                                                        5270    5.00    2.06  1.0000
  -3  -3   1   25825    1068                                                       52301  -96.48   17.25  1.0000
   3  -3  -1   25437    1101                                                       51737   96.44   17.28  1.0000
  -3  -3   1   26070    1145                                                       52650  -96.48   17.25  1.0000
  -3   3   1   25712    1103                                                       52129   96.44  -17.28  1.0000
   3   3  -1   27064    1066                                                       54059  -96.48  -17.25  1.0000
  -1  -3   1    6221     140                                                        4930  -12.35    2.91  1.0000
  -1  -3   1    6085     157                                                        4809  -12.35    2.91  1.0000
   1  -3  -1    6022     151                                                        4751   12.36    2.94  1.0000
   1   3  -1    5953     138                                                        4692  -12.35   -2.91  1.0000
  -1  -3  -1    6501     186                                                        6688   -1.64    0.45  1.0000
   1  -3   1    6457     189                                                        6646    1.66    0.49  1.0000
   1  -3   1    6585     178                                                        6776    1.66    0.49  1.0000
   1   3   1    6574     189                                                        6762   -1.64   -0.45  1.0000
  -1   3  -1    6704     191                                                        6896    1.66   -0.49  1.0000
  -3  -3  -1    8957     186                                                        5451  -29.94    2.51  1.0000
   3  -3   1    8693     171                                                        5249   29.90    2.52  1.0000
  -3  -3  -1    8652     158                                                        5214  -29.94    2.51  1.0000
   3   3   1    8484     158                                                        5084  -29.94   -2.51  1.0000
  -3   3  -1    8542     171                                                        5132   29.90   -2.52  1.0000
   5  -3   1    1070     110                                                        1924  -16.75    0.68  1.0000
  -5  -3  -1    1144      98                                                        2023   16.75    0.72  1.0000
  -5  -3  -1    1119     127                                                        1990   16.75    0.72  1.0000
   5   3   1    1174      98                                                        2063   16.75   -0.72  1.0000
  -5   3  -1    1228     114                                                        2134  -16.75   -0.68  1.0000
  -7  -3  -1    1473     134                                                        1874    6.66   -2.67  1.0000
  -7  -3  -1    1320     101                                                        1701    6.66   -2.67  1.0000
   7  -3   1    1484     113                                                        1886   -6.65   -2.65  1.0000
  -7   3  -1    1399     117                                                        1790   -6.65    2.65  1.0000
   7   3   1    1397      99                                                        1788    6.66    2.67  1.0000
  -9  -3  -1     352      64                                                         349   -1.99    1.55  1.0000
  -9  -3  -1     287      79                                                         284   -1.99    1.55  1.0000
   9  -3   1     274      66                                                         271    1.96    1.55  1.0000
   9   3   1     293      62                                                         290   -1.99   -1.55  1.0000
  -9   3  -1     216      68                                                         213    1.96   -1.55  1.0000
 -11  -3  -1    2175     159                                                        1659   -9.26    2.83  1.0000
  11  -3   1    2105     145                                                        1597    9.26    2.79  1.0000
 -11  -3  -1    1979     111                                                        1488   -9.26    2.83  1.0000
 -11   3  -1    1966     144                                                        1476    9.26   -2.79  1.0000
  11   3   1    1691     112                                                        1239   -9.26   -2.83  1.0000
  13  -3   1     120      67                                                         113    0.03    1.00  1.0000
 -13  -3  -1     149      67                                                         141   -0.03    0.99  1.0000
 -13  -3  -1     214      91                                                         205   -0.03    0.99  1.0000
  13   3   1     115      62                                                         108   -0.03   -0.99  1.0000
 -13   3  -1      92      72                                                          86    0.03   -1.00  1.0000
 -15  -3  -1     272      82                                                         233    2.54    0.78  1.0000
 -15  -3  -1     145      95                                                         117    2.54    0.78  1.0000
  15  -3   1     235      86                                                         199   -2.55    0.79  1.0000
 -15   3  -1     388      99                                                         342   -2.55   -0.79  1.0000
 -16  -4   1     284      79                                                         270   -0.44    0.45  1.0000
  16  -4  -1      62      75                                                          55    0.44    0.44  1.0000
 -16  -4   1      27      92                                                          23   -0.44    0.45  1.0000
 -16   4   1     225      91                                                         212    0.44   -0.44  1.0000
 -14  -4   1    4848     184                                                        4047   -7.51    4.76  1.0000
 -14  -4   1    5263     251                                                        4427   -7.51    4.76  1.0000
  14  -4  -1    4752     212                                                        3960    7.51    4.76  1.0000
 -14   4   1    4531     212                                                        3758    7.51   -4.76  1.0000
  12  -4  -1    5918     248                                                        5967    0.01   -0.95  1.0000
 -12  -4   1    6181     214                                                        6232   -0.02   -0.99  1.0000
 -12  -4   1    5995     277                                                        6045   -0.02   -0.99  1.0000
 -12   4   1    5849     253                                                        5897    0.01    0.95  1.0000
 -10  -4   1    3761     127                                                        2881  -10.73    3.12  1.0000
 -10  -4   1    3540     177                                                        2688  -10.73    3.12  1.0000
  10  -4  -1    3938     160                                                        3036   10.74    3.12  1.0000
  10   4  -1    3801     121                                                        2916  -10.73   -3.12  1.0000
 -10   4   1    3833     165                                                        2944   10.74   -3.12  1.0000
  -8  -4   1    8331     261                                                        6314  -16.87    4.47  1.0000
  -8  -4   1    8453     193                                                        6421  -16.87    4.47  1.0000
   8  -4  -1    9055     238                                                        6948   16.86    4.46  1.0000
  -8   4   1    8488     236                                                        6452   16.86   -4.46  1.0000
  -6  -4   1   14015     193                                                        6968  -48.91   12.23  1.0000
   6  -4  -1   14274     235                                                        7153   48.88   12.28  1.0000
  -6  -4   1   14346     260                                                        7202  -48.91   12.23  1.0000
   6   4  -1   14161     189                                                        7071  -48.91  -12.23  1.0000
  -6   4   1   13934     235                                                        6913   48.88  -12.28  1.0000
  -4  -4   1    4268     207                                                        5505   14.09   -8.68  1.0000
   4  -4  -1    4062     188                                                        5266  -14.06   -8.68  1.0000
  -4  -4   1    4243     159                                                        5476   14.09   -8.68  1.0000
  -4   4   1    4327     191                                                        5569  -14.06    8.68  1.0000
   4   4  -1    4148     154                                                        5368   14.09    8.68  1.0000
  -2  -4   1    3513     130                                                        2714   -9.38   10.15  1.0000
  -2  -4   1    3657     107                                                        2842   -9.38   10.15  1.0000
   2  -4  -1    3565     121                                                        2762    9.35   10.11  1.0000
  -2   4   1    3801     125                                                        2972    9.35  -10.11  1.0000
   2   4  -1    3603     106                                                        2794   -9.38  -10.15  1.0000
   0  -4   1      59      36                                                          83    1.27   -4.12  1.0000
   0  -4   1      82      42                                                         111    1.27   -4.12  1.0000
   0  -4  -1     135      41                                                         172   -1.29   -4.08  1.0000
   0   4  -1     139      43                                                         177    1.27    4.12  1.0000
   0   4   1     137      44                                                         175   -1.29    4.08  1.0000
  -2  -4  -1    2196      46                                                          51   57.28   -4.88  1.0000
   2  -4   1    1589      28                                                         -23  -57.23   -4.91  1.0000
   2  -4   1    1748      36                                                           4  -57.23   -4.91  1.0000
  -2  -4  -1    2129      33                                                          41   57.28   -4.88  1.0000
   2   4   1    2196      36                                                          51   57.28    4.88  1.0000
  -2   4  -1    1589      32                                                         -15  -57.23    4.91  1.0000
  -4  -4  -1     187      62                                                         510   17.64    1.59  1.0000
  -4  -4  -1     136      74                                                         411   17.64    1.59  1.0000
   4  -4   1      86      58                                                         298  -17.68    1.66  1.0000
   4   4   1     125      57                                                         388   17.64   -1.59  1.0000
  -4   4  -1     172      68                                                         483  -17.68   -1.66  1.0000
   6  -4   1     297      54                                                         139   -7.81   -1.31  1.0000
  -6  -4  -1     200      43                                                          76    7.79   -1.27  1.0000
  -6  -4  -1     144      60                                                          43    7.79   -1.27  1.0000
   6   4   1     225      42                                                          92    7.79    1.27  1.0000
  -6   4  -1     370      63                                                         190   -7.81    1.31  1.0000
  -8  -4  -1    6254     230                                                        7189   -8.70   -1.90  1.0000
  -8  -4  -1    6007     274                                                        6924   -8.70   -1.90  1.0000
   8  -4   1    6319     258                                                        7261    8.73   -1.92  1.0000
  -8   4  -1    6006     258                                                        6925    8.73    1.92  1.0000
   8   4   1    6362     228                                                        7304   -8.70    1.90  1.0000
 -10  -4  -1    7475     272                                                        6233   10.54   -5.27  1.0000
 -10  -4  -1    7772     230                                                        6504   10.54   -5.27  1.0000
  10  -4   1    7967     258                                                        6683  -10.54   -5.18  1.0000
  10   4   1    7577     220                                                        6326   10.54    5.27  1.0000
 -10   4  -1    7814     262                                                        6542  -10.54    5.18  1.0000
 -12  -4  -1    4887     215                                                        5128   -2.10    2.80  1.0000
 -12  -4  -1    4635     256                                                        4870   -2.10    2.80  1.0000
  12  -4   1    4438     230                                                        4664    2.07    2.76  1.0000
 -12   4  -1    4786     242                                                        5021    2.07   -2.76  1.0000
  12   4   1    5188     207                                                        5437   -2.10   -2.80  1.0000
  14  -4   1       1      69                                                           0   -0.84   -0.90  1.0000
 -14  -4  -1     114      93                                                          99    0.87   -0.89  1.0000
 -14  -4  -1      62      67                                                          51    0.87   -0.89  1.0000
 -14   4  -1      96      75                                                          82   -0.84    0.90  1.0000
 -15  -5   1     425      85                                                         419   -0.51   -0.44  1.0000
  15  -5  -1     288      98                                                         283    0.48   -0.38  1.0000
 -15  -5   1     640     138                                                         632   -0.51   -0.44  1.0000
 -15   5   1     540     112                                                         533    0.48    0.38  1.0000
  13  -5  -1    1627     140                                                        1166   -8.05   -4.00  1.0000
 -13  -5   1    1334     105                                                         919    8.07   -4.02  1.0000
 -13  -5   1    1629     157                                                        1166    8.07   -4.02  1.0000
 -13   5   1    1131     124                                                         753   -8.05    4.00  1.0000
 -11  -5   1    3242     137                                                        2813    4.86   -2.87  1.0000
 -11  -5   1    3356     201                                                        2919    4.86   -2.87  1.0000
  11  -5  -1    3419     175                                                        2976   -4.86   -2.91  1.0000
 -11   5   1    3287     176                                                        2853   -4.86    2.91  1.0000
  -9  -5   1    4936     153                                                        3956   10.52   -1.56  1.0000
  -9  -5   1    5307     224                                                        4289   10.52   -1.56  1.0000
   9  -5  -1    5052     192                                                        4057  -10.55   -1.54  1.0000
  -9   5   1    4565     188                                                        3622  -10.55    1.54  1.0000
   9   5  -1    4678     143                                                        3726   10.52    1.56  1.0000
  -7  -5   1      99      82                                                         294    9.58   -5.76  1.0000
   7  -5  -1     141      73                                                         365   -9.55   -5.76  1.0000
  -7  -5   1     124      53                                                         337    9.58   -5.76  1.0000
  -7   5   1     171      81                                                         414   -9.55    5.76  1.0000
   7   5  -1     146      54                                                         374    9.58    5.76  1.0000
  -5  -5   1     329      31                                                          27   18.79    0.28  1.0000
   5  -5  -1     311      46                                                          22  -18.76    0.19  1.0000
  -5  -5   1     463      59                                                          74   18.79    0.28  1.0000
   5   5  -1     170      31                                                         -35   18.79   -0.28  1.0000
  -5   5   1     593      55                                                         131  -18.76   -0.19  1.0000
  -3  -5   1    9873     212                                                        7402   19.72   -6.64  1.0000
  -3  -5   1    9813     255                                                        7350   19.72   -6.64  1.0000
   3  -5  -1   10298     245                                                        7766  -19.76   -6.65  1.0000
  -3   5   1    9480     239                                                        7057  -19.76    6.65  1.0000
   3   5  -1    9968     213                                                        7484   19.72    6.64  1.0000
  -1  -5   1     929     100                                                        1288   29.90   -8.09  1.0000
   1  -5  -1    1008      93                                                        1402  -29.87   -8.05  1.0000
  -1  -5   1    1009      88                                                        1403   29.90   -8.09  1.0000
   1  -5  -1    1022      97                                                        1422  -29.87   -8.05  1.0000
  -1  -5  -1    3736     104                                                        1845  -27.29   -6.34  1.0000
  -1  -5  -1    3487     114                                                        1670  -27.29   -6.34  1.0000
   1  -5   1    3672     104                                                        1799   27.30   -6.29  1.0000
   1  -5   1    3556      95                                                        1717   27.30   -6.29  1.0000
  -1   5  -1    3441     101                                                        1637   27.30    6.29  1.0000
   1   5   1    3686     104                                                        1810  -27.29    6.34  1.0000
   3  -5   1     700      45                                                          93   25.21    4.12  1.0000
  -3  -5  -1     550      56                                                          41  -25.24    4.12  1.0000
  -3  -5  -1     690      44                                                          89  -25.24    4.12  1.0000
   3  -5   1     730      34                                                         105   25.21    4.12  1.0000
   3   5   1     616      41                                                          62  -25.24   -4.12  1.0000
  -3   5  -1     735      49                                                         107   25.21   -4.12  1.0000
  -5  -5  -1     758     128                                                        1245    9.71   -5.61  1.0000
  -5  -5  -1     783     102                                                        1277    9.71   -5.61  1.0000
   5  -5   1     867     124                                                        1384   -9.69   -5.65  1.0000
  -5   5  -1     904     107                                                        1430   -9.69    5.65  1.0000
   5   5   1     837      93                                                        1345    9.71    5.61  1.0000
   7  -5   1     527      97                                                         756   -6.54   -0.59  1.0000
  -7  -5  -1     480     111                                                         700    6.55   -0.60  1.0000
  -7  -5  -1     533      85                                                         763    6.55   -0.60  1.0000
  -7   5  -1     437      95                                                         647   -6.54    0.59  1.0000
   7   5   1     434      78                                                         644    6.55    0.60  1.0000
   9  -5   1    5754     250                                                        6197   -4.32    1.76  1.0000
  -9  -5  -1    5638     273                                                        6076    4.30    1.77  1.0000
  -9  -5  -1    5574     220                                                        6009    4.30    1.77  1.0000
  -9   5  -1    5785     252                                                        6230   -4.32   -1.76  1.0000
   9   5   1    5667     213                                                        6106    4.30   -1.77  1.0000
 -11  -5  -1    3451     216                                                        3364   -0.62    2.68  1.0000
  11  -5   1    3528     193                                                        3440    0.63    2.66  1.0000
 -11  -5  -1    3756     176                                                        3665   -0.62    2.68  1.0000
 -11   5  -1    3807     208                                                        3716    0.63   -2.66  1.0000
  11   5   1    3848     169                                                        3756   -0.62   -2.68  1.0000
  13  -5   1     326     105                                                         498   -4.25   -4.82  1.0000
 -13  -5  -1     193      88                                                         330    4.28   -4.82  1.0000
 -13  -5  -1     357     122                                                         537    4.28   -4.82  1.0000
 -13   5  -1     348     119                                                         525   -4.25    4.82  1.0000
 -15  -5  -1      89      72                                                          79   -0.83   -2.62  1.0000
 -15  -5  -1      72      98                                                          63   -0.83   -2.62  1.0000
  15  -5   1     105      84                                                          94    0.82   -2.62  1.0000
 -15   5  -1      26      86                                                          19    0.82    2.62  1.0000
 -14  -6   1       5      61                                                         -27    3.21   -0.72  1.0000
  14  -6  -1     114      79                                                          72   -3.22   -0.72  1.0000
 -14  -6   1       5      79                                                        -102    3.21   -0.72  1.0000
 -14   6   1       5      61                                                        -130   -3.22    0.72  1.0000
 -12  -6   1    1284     175                                                        1439   -3.21    0.54  1.0000
 -12  -6   1    1333     125                                                        1491   -3.21    0.54  1.0000
  12  -6  -1    1561     171                                                        1732    3.21    0.55  1.0000
 -12   6   1    1503     172                                                        1671    3.21   -0.55  1.0000
 -10  -6   1    2926     146                                                        3037   -1.34    0.62  1.0000
  10  -6  -1    3047     181                                                        3162    1.35    0.62  1.0000
 -10  -6   1    2879     210                                                        2989   -1.34    0.62  1.0000
 -10   6   1    3229     195                                                        3347    1.35   -0.62  1.0000
  -8  -6   1    1377     159                                                        1521   -3.53   -2.45  1.0000
   8  -6  -1    1172     132                                                        1304    3.51   -2.48  1.0000
  -8  -6   1    1105      91                                                        1234   -3.53   -2.45  1.0000
  -8   6   1    1229     139                                                        1364    3.51    2.48  1.0000
   8   6  -1    1026      86                                                        1150   -3.53    2.45  1.0000
   6  -6  -1    1395     116                                                        1049   -6.96   -1.96  1.0000
  -6  -6   1    1465      94                                                        1110    6.96   -1.99  1.0000
  -6  -6   1    1448     130                                                        1095    6.96   -1.99  1.0000
   6   6  -1    1553      86                                                        1187    6.96    1.99  1.0000
  -6   6   1    1746     133                                                        1356   -6.96    1.96  1.0000
   4  -6  -1    1211      96                                                         730   15.46   -5.61  1.0000
  -4  -6   1    1146      76                                                         678  -15.43   -5.60  1.0000
  -4  -6   1     929      93                                                         507  -15.43   -5.60  1.0000
   4  -6  -1    1275      71                                                         782   15.46   -5.61  1.0000
  -4   6   1    1321      99                                                         819   15.46    5.61  1.0000
   4   6  -1    1253      78                                                         764  -15.43    5.60  1.0000
  -2  -6   1     113      34                                                         -43  -15.27   -0.88  1.0000
   2  -6  -1      66      43                                                          52   15.26   -0.93  1.0000
   2  -6  -1      73      44                                                          17   15.26   -0.93  1.0000
  -2  -6   1      68      55                                                          68  -15.27   -0.88  1.0000
   2   6  -1      67      40                                                          38  -15.27    0.88  1.0000
   0  -6  -1    2476     164                                                        3618   13.95    8.52  1.0000
   0  -6  -1    2443     152                                                        3578   13.95    8.52  1.0000
   0  -6   1    2488     156                                                        3635  -13.97    8.47  1.0000
   0  -6   1    2414     158                                                        3544  -13.97    8.47  1.0000
   0   6   1    2386     158                                                        3509   13.95   -8.52  1.0000
   0   6  -1    2366     151                                                        3486  -13.97   -8.47  1.0000
  -2  -6  -1    2763     114                                                        1995   -9.15    9.68  1.0000
   2  -6   1    2728     118                                                        1962    9.20    9.68  1.0000
   2  -6   1    2677     102                                                        1919    9.20    9.68  1.0000
  -2  -6  -1    2522     134                                                        1790   -9.15    9.68  1.0000
   2   6   1    2500     113                                                        1771   -9.15   -9.68  1.0000
  -2   6  -1    2478     118                                                        1750    9.20   -9.68  1.0000
   4  -6   1     677      78                                                         445    5.08   -4.98  1.0000
  -4  -6  -1     660      71                                                         430   -5.08   -5.03  1.0000
  -4  -6  -1     836      97                                                         574   -5.08   -5.03  1.0000
   4   6   1     960      79                                                         677   -5.08    5.03  1.0000
  -4   6  -1     790      84                                                         537    5.08    4.98  1.0000
  -6  -6  -1    1150     104                                                        1583   -5.94    7.96  1.0000
   6  -6   1    1084     138                                                        1503    5.90    7.95  1.0000
  -6  -6  -1    1109     154                                                        1535   -5.94    7.96  1.0000
  -6   6  -1    1190     143                                                        1628    5.90   -7.95  1.0000
   6   6   1    1039     103                                                        1452   -5.94   -7.96  1.0000
  -8  -6  -1     604     118                                                         637    0.89   -0.40  1.0000
   8  -6   1     817     116                                                         855   -0.84   -0.42  1.0000
  -8  -6  -1     672      92                                                         707    0.89   -0.40  1.0000
   8   6   1     709      91                                                         745    0.89    0.40  1.0000
  -8   6  -1     870     120                                                         909   -0.84    0.42  1.0000
 -10  -6  -1      37      76                                                         -28   -8.70    1.15  1.0000
  10  -6   1      88      77                                                         196    8.70    1.19  1.0000
 -10  -6  -1      17      56                                                          60   -8.70    1.15  1.0000
 -10   6  -1      19      63                                                          67    8.70   -1.19  1.0000
  10   6   1      37      49                                                         -32   -8.70   -1.15  1.0000
 -12  -6  -1     419      82                                                         325   -3.57   -0.72  1.0000
  12  -6   1     206      79                                                         142    3.55   -0.75  1.0000
 -12  -6  -1     167      93                                                         110   -3.57   -0.72  1.0000
 -12   6  -1     126      71                                                          77    3.55    0.75  1.0000
 -14  -6  -1     631     104                                                         505   -4.09    0.43  1.0000
  14  -6   1     836     129                                                         690    4.13    0.39  1.0000
 -14  -6  -1     615     137                                                         491   -4.09    0.43  1.0000
 -14   6  -1    1029     144                                                         866    4.13   -0.39  1.0000
  13  -7  -1     400      85                                                         181    8.72    5.10  1.0000
 -13  -7   1     479     113                                                         237   -8.69    5.08  1.0000
 -13  -7   1     379      66                                                         168   -8.69    5.08  1.0000
 -13   7   1     340      91                                                         141    8.72   -5.10  1.0000
 -11  -7   1      91      62                                                         138    1.10    3.68  1.0000
  11  -7  -1     125      83                                                         180   -1.12    3.64  1.0000
 -11  -7   1     101      99                                                         150    1.10    3.68  1.0000
 -11   7   1     108      81                                                         159   -1.12   -3.64  1.0000
  -9  -7   1    2162     113                                                        1644   -8.23    3.56  1.0000
  -9  -7   1    2266     186                                                        1735   -8.23    3.56  1.0000
   9  -7  -1    2007     157                                                        1511    8.20    3.61  1.0000
  -9   7   1    2097     158                                                        1589    8.20   -3.61  1.0000
  -7  -7   1    1198      95                                                         907   -6.03    2.36  1.0000
   7  -7  -1    1110     114                                                         830    6.06    2.36  1.0000
  -7  -7   1    1120     131                                                         840   -6.03    2.36  1.0000
  -7   7   1    1255     124                                                         956    6.06   -2.36  1.0000
   7   7  -1    1003      81                                                         739   -6.03   -2.36  1.0000
   5  -7  -1    1361      79                                                         898    9.52    3.06  1.0000
   5  -7  -1    1308     113                                                         855    9.52    3.06  1.0000
  -5  -7   1    1140      85                                                         720   -9.51    3.09  1.0000
  -5  -7   1    1134     113                                                         715   -9.51    3.09  1.0000
   5   7  -1    1196      85                                                         765   -9.51   -3.09  1.0000
  -5   7   1    1325     113                                                         869    9.52   -3.06  1.0000
   3  -7  -1    2480     155                                                        3580  -14.39   -3.44  1.0000
  -3  -7   1    2448     158                                                        3539   14.35   -3.44  1.0000
   3  -7  -1    2569     182                                                        3687  -14.39   -3.44  1.0000
  -3  -7   1    2734     195                                                        3881   14.35   -3.44  1.0000
  -3   7   1    2520     181                                                        3628  -14.39    3.44  1.0000
   3   7  -1    2473     158                                                        3568   14.35    3.44  1.0000
   1  -7  -1    9609     290                                                        8723    7.00   -2.42  1.0000
  -1  -7   1    9625     280                                                        8742   -6.98   -2.46  1.0000
   1  -7  -1    9795     286                                                        8901    7.00   -2.42  1.0000
  -1  -7   1    9208     291                                                        8345   -6.98   -2.46  1.0000
   1   7  -1    9953     279                                                        9055   -6.98    2.46  1.0000
  -1   7   1    9758     293                                                        8865    7.00    2.42  1.0000
   1  -7   1    9395     246                                                        7680  -13.24   -5.26  1.0000
  -1  -7  -1    9001     270                                                        7322   13.26   -5.32  1.0000
   1  -7   1    9129     258                                                        7439  -13.24   -5.26  1.0000
  -1  -7  -1    9406     260                                                        7688   13.26   -5.32  1.0000
   1   7   1    8591     252                                                        6952   13.26    5.32  1.0000
  -1   7  -1    8502     249                                                        6874  -13.24    5.26  1.0000
  -3  -7  -1    2685     152                                                        1565   17.82    4.26  1.0000
   3  -7   1    2557      97                                                        1466  -17.85    4.25  1.0000
  -3  -7  -1    2664     112                                                        1549   17.82    4.26  1.0000
   3  -7   1    2780     140                                                        1636  -17.85    4.25  1.0000
  -3   7  -1    2789     143                                                        1643  -17.85   -4.25  1.0000
   3   7   1    2576     111                                                        1482   17.82   -4.26  1.0000
   5  -7   1    1365     133                                                        1842   10.63    5.09  1.0000
  -5  -7  -1    1412     173                                                        1896  -10.62    5.11  1.0000
  -5  -7  -1    1391     124                                                        1872  -10.62    5.11  1.0000
   5   7   1    1584     126                                                        2097  -10.62   -5.11  1.0000
  -5   7  -1    1496     140                                                        1995   10.63   -5.09  1.0000
   7  -7   1    2660     167                                                        2542   -1.29   -1.30  1.0000
  -7  -7  -1    2641     189                                                        2522    1.31   -1.32  1.0000
  -7  -7  -1    2498     142                                                        2382    1.31   -1.32  1.0000
  -7   7  -1    2624     164                                                        2507   -1.29    1.30  1.0000
   7   7   1    2616     141                                                        2498    1.31    1.32  1.0000
  -9  -7  -1    3999     225                                                        3415    6.30   -2.86  1.0000
  -9  -7  -1    3584     164                                                        3032    6.30   -2.86  1.0000
   9  -7   1    3114     181                                                        2600   -6.32   -2.84  1.0000
   9   7   1    3590     171                                                        3038    6.30    2.86  1.0000
  -9   7  -1    3091     180                                                        2579   -6.32    2.84  1.0000
  11  -7   1    3560     192                                                        2768   -9.14   -4.68  1.0000
 -11  -7  -1    2933     224                                                        2218    9.15   -4.65  1.0000
 -11  -7  -1    3266     161                                                        2509    9.15   -4.65  1.0000
 -11   7  -1    3501     199                                                        2716   -9.14    4.68  1.0000
  13  -7   1     146      83                                                         136    0.23    1.18  1.0000
 -13  -7  -1       1      82                                                         -18   -0.22    1.15  1.0000
 -13  -7  -1      15      70                                                          12   -0.22    1.15  1.0000
 -13   7  -1      81      91                                                          73    0.23   -1.18  1.0000
 -12  -8   1    1388     190                                                        1394    0.43    2.01  1.0000
  12  -8  -1    1653     191                                                        1659   -0.44    2.05  1.0000
 -12  -8   1    1751     144                                                        1757    0.43    2.01  1.0000
 -12   8   1    1353     173                                                        1358   -0.44   -2.05  1.0000
  10  -8  -1     160      87                                                         175   -0.94   -0.65  1.0000
 -10  -8   1      57      57                                                          66    0.96   -0.63  1.0000
 -10  -8   1     121      99                                                         134    0.96   -0.63  1.0000
 -10   8   1      68      70                                                          78   -0.94    0.65  1.0000
  -8  -8   1      17      53                                                          17   10.77    2.59  1.0000
   8  -8  -1      18      71                                                         106  -10.78    2.55  1.0000
  -8  -8   1      53      98                                                         192   10.77    2.59  1.0000
  -8   8   1      30      77                                                         138  -10.78   -2.55  1.0000
  -6  -8   1     397     111                                                        1090   16.71   -8.99  1.0000
  -6  -8   1     312     142                                                         946   16.71   -8.99  1.0000
   6  -8  -1     432     137                                                        1147  -16.73   -8.97  1.0000
   6   8  -1     592     115                                                        1401   16.71    8.99  1.0000
  -6   8   1     405     138                                                        1104  -16.73    8.97  1.0000
  -4  -8   1    3824     208                                                        3559    4.20    4.23  1.0000
   4  -8  -1    3937     196                                                        3670   -4.17    4.21  1.0000
  -4  -8   1    3880     174                                                        3613    4.20    4.23  1.0000
   4  -8  -1    3887     159                                                        3622   -4.17    4.21  1.0000
  -4   8   1    4102     199                                                        3830   -4.17   -4.21  1.0000
   4   8  -1    4063     171                                                        3790    4.20   -4.23  1.0000
   2  -8  -1     107      67                                                         223    6.68    0.42  1.0000
  -2  -8   1      85      63                                                         191   -6.70    0.44  1.0000
  -2  -8   1      78      70                                                         181   -6.70    0.44  1.0000
   2  -8  -1     109      75                                                         226    6.68    0.42  1.0000
  -2   8   1     153      80                                                         288    6.68   -0.42  1.0000
   2   8  -1     115      64                                                         235   -6.70   -0.44  1.0000
   0  -8   1    2701     139                                                        2142    8.15    1.59  1.0000
   0  -8   1    2580     138                                                        2034    8.15    1.59  1.0000
   0  -8  -1    2834     149                                                        2259   -8.16    1.63  1.0000
   0  -8  -1    2781     144                                                        2212   -8.16    1.63  1.0000
   0   8   1    2490     136                                                        1953   -8.16   -1.63  1.0000
   2  -8   1    2241     131                                                        1277   16.88   -4.67  1.0000
   2  -8   1    2239     114                                                        1275   16.88   -4.67  1.0000
  -2  -8  -1    2395     132                                                        1396  -16.84   -4.67  1.0000
  -2  -8  -1    2122     136                                                        1189  -16.84   -4.67  1.0000
   2   8   1    2030     119                                                        1120  -16.84    4.67  1.0000
  -2   8  -1    2465     138                                                        1448   16.88    4.67  1.0000
  -4  -8  -1     175      92                                                         295   -6.72    1.11  1.0000
  -4  -8  -1      78      65                                                         160   -6.72    1.11  1.0000
   4  -8   1      93      51                                                         183    6.69    1.14  1.0000
   4  -8   1      88      71                                                         175    6.69    1.14  1.0000
   4   8   1      84      64                                                         169   -6.72   -1.11  1.0000
  -4   8  -1      82      73                                                         167    6.69   -1.14  1.0000
  -6  -8  -1    1048     170                                                        1446    6.87   -6.69  1.0000
  -6  -8  -1     984     132                                                        1371    6.87   -6.69  1.0000
   6  -8   1    1076     152                                                        1480   -6.89   -6.70  1.0000
  -6   8  -1     969     145                                                        1353   -6.89    6.70  1.0000
   6   8   1     948     126                                                        1328    6.87    6.69  1.0000
   8  -8   1     840     116                                                         658    3.60    3.25  1.0000
  -8  -8  -1     852     100                                                         668   -3.57    3.28  1.0000
  -8  -8  -1     538     111                                                         394   -3.57    3.28  1.0000
  -8   8  -1     717     112                                                         549    3.60   -3.25  1.0000
 -10  -8  -1     153      92                                                          88   -4.45   -0.15  1.0000
 -10  -8  -1     273      73                                                         184   -4.45   -0.15  1.0000
  10  -8   1     111      74                                                          57    4.46   -0.11  1.0000
 -10   8  -1      49      74                                                          16    4.46    0.11  1.0000
  12  -8   1     129      88                                                          85   -1.94   -2.44  1.0000
 -12  -8  -1       5      62                                                         -45    1.91   -2.43  1.0000
 -12  -8  -1       5      96                                                         -12    1.91   -2.43  1.0000
 -12   8  -1       5      66                                                         -62   -1.94    2.44  1.0000
  11  -9  -1       2      76                                                         -70   -1.72    0.54  1.0000
 -11  -9   1      84     105                                                          64    1.71    0.57  1.0000
 -11  -9   1       2      61                                                          -9    1.71    0.57  1.0000
 -11   9   1       2      77                                                          -4   -1.72   -0.54  1.0000
   9  -9  -1     113      84                                                         132   -1.46   -0.34  1.0000
  -9  -9   1     151      66                                                         173    1.42   -0.36  1.0000
  -9  -9   1       1      91                                                         -13    1.42   -0.36  1.0000
  -9   9   1       1      74                                                          -6   -1.46    0.34  1.0000
  -7  -9   1    1369     205                                                        1966   -8.01    8.82  1.0000
   7  -9  -1    1118     178                                                        1662    8.03    8.84  1.0000
  -7  -9   1    1221     133                                                        1787   -8.01    8.82  1.0000
  -7   9   1    1048     171                                                        1576    8.03   -8.84  1.0000
   5  -9  -1    1464     174                                                        1767    4.42    4.28  1.0000
   5  -9  -1    1577     120                                                        1891    4.42    4.28  1.0000
  -5  -9   1    1434     185                                                        1734   -4.41    4.34  1.0000
  -5  -9   1    1261     140                                                        1543   -4.41    4.34  1.0000
   5   9  -1    1454     128                                                        1756   -4.41   -4.34  1.0000
  -5   9   1    1294     165                                                        1579    4.42   -4.28  1.0000
   3  -9  -1     182      85                                                         253   -1.31    6.49  1.0000
  -3  -9   1     189      87                                                         262    1.26    6.47  1.0000
   3  -9  -1     173      72                                                         242   -1.31    6.49  1.0000
  -3  -9   1     225      77                                                         306    1.26    6.47  1.0000
   3   9  -1     214      75                                                         292    1.26   -6.47  1.0000
  -1  -9   1     880     105                                                         643    5.53   -4.33  1.0000
  -1  -9   1    1120     110                                                         851    5.53   -4.33  1.0000
   1  -9  -1    1188     116                                                         912   -5.50   -4.33  1.0000
   1  -9  -1    1153     116                                                         881   -5.50   -4.33  1.0000
  -1   9   1    1033     113                                                         776   -5.50    4.33  1.0000
   1   9  -1     966     103                                                         717    5.53    4.33  1.0000
   1  -9   1    1534     142                                                        2013   -8.33   -0.70  1.0000
  -1  -9  -1    1236     160                                                        1671    8.34   -0.71  1.0000
  -1  -9  -1    1393     166                                                        1852    8.34   -0.71  1.0000
   1  -9   1    1419     162                                                        1881   -8.33   -0.70  1.0000
   1   9   1    1412     163                                                        1874    8.34    0.71  1.0000
   3  -9   1    1802     135                                                        2143   -3.47  -15.08  1.0000
  -3  -9  -1    1822     153                                                        2164    3.45  -15.11  1.0000
   3  -9   1    1921     161                                                        2275   -3.47  -15.08  1.0000
  -3  -9  -1    1933     198                                                        2288    3.45  -15.11  1.0000
  -3   9  -1    1940     160                                                        2297   -3.47   15.08  1.0000
   3   9   1    1925     155                                                        2279    3.45   15.11  1.0000
  -5  -9  -1    2452     218                                                        2465    0.19   -0.18  1.0000
   5  -9   1    2767     187                                                        2780   -0.18   -0.21  1.0000
  -5  -9  -1    2684     169                                                        2698    0.19   -0.18  1.0000
   5   9   1    2218     154                                                        2231    0.19    0.18  1.0000
  -5   9  -1    2439     172                                                        2452   -0.18    0.21  1.0000
   7  -9   1     684      97                                                         341   11.09    0.11  1.0000
  -7  -9  -1     536      76                                                         239  -11.08    0.06  1.0000
  -7  -9  -1      99      88                                                           5  -11.08    0.06  1.0000
  -7   9  -1     369      81                                                         133   11.09   -0.11  1.0000
  -9  -9  -1    1024     171                                                        1058    0.53   -1.02  1.0000
   9  -9   1    1417     170                                                        1457   -0.54   -1.03  1.0000
  -9  -9  -1    1148     139                                                        1184    0.53   -1.02  1.0000
  -9   9  -1    1349     170                                                        1388   -0.54    1.03  1.0000
  -8 -10   1     276      92                                                         335    2.29   -0.79  1.0000
   8 -10  -1      90      94                                                         125   -2.29   -0.83  1.0000
  -8 -10   1     268     123                                                         326    2.29   -0.79  1.0000
  -8  10   1     306     108                                                         368   -2.29    0.83  1.0000
  -6 -10   1     229      75                                                         171   -2.62    1.99  1.0000
  -6 -10   1     384     108                                                         308   -2.62    1.99  1.0000
   6 -10  -1     141      83                                                          96    2.62    2.00  1.0000
  -6  10   1     141      83                                                          96    2.62   -2.00  1.0000
  -4 -10   1     710     107                                                         666   -1.29    2.33  1.0000
   4 -10  -1    1117     117                                                        1061    1.31    2.31  1.0000
   4 -10  -1     794     129                                                         747    1.31    2.31  1.0000
  -4 -10   1     815     136                                                         768   -1.29    2.33  1.0000
   2 -10  -1    2764     188                                                        2780   -0.20    0.77  1.0000
  -2 -10   1    2467     184                                                        2482    0.19    0.84  1.0000
   2 -10  -1    2892     177                                                        2908   -0.20    0.77  1.0000
  -2 -10   1    2416     165                                                        2430    0.19    0.84  1.0000
   2  10  -1    2558     174                                                        2573    0.19   -0.84  1.0000
  -2  10   1    2345     177                                                        2360   -0.20   -0.77  1.0000
   0 -10  -1    1607     177                                                        1918   -5.84   -1.94  1.0000
   0 -10  -1    1476     169                                                        1775   -5.84   -1.94  1.0000
   0 -10   1    1212     156                                                        1483    5.82   -1.93  1.0000
   0 -10   1    1045     145                                                        1297    5.82   -1.93  1.0000
   0  10   1    1586     181                                                        1896   -5.84    1.94  1.0000
   0  10  -1    1431     164                                                        1724    5.82    1.93  1.0000
  -2 -10  -1     830     139                                                         928   -1.44   -2.67  1.0000
  -2 -10  -1     886     131                                                         987   -1.44   -2.67  1.0000
   2 -10   1    1030     128                                                        1140    1.46   -2.68  1.0000
   2 -10   1     797     130                                                         894    1.46   -2.68  1.0000
   2  10   1     622     120                                                         707   -1.44    2.67  1.0000
  -4 -10  -1    2407     169                                                        2317    1.34   -0.05  1.0000
   4 -10   1    2430     203                                                        2339   -1.35    0.01  1.0000
  -4 -10  -1    2740     226                                                        2644    1.34   -0.05  1.0000
   4 -10   1    2313     141                                                        2224   -1.35    0.01  1.0000
  -4  10  -1    2547     182                                                        2454   -1.35   -0.01  1.0000
   4  10   1    2371     168                                                        2281    1.34    0.05  1.0000
  -6 -10  -1    1833     192                                                        1611    3.53   -5.18  1.0000
  -6 -10  -1    2043     167                                                        1808    3.53   -5.18  1.0000
   6 -10   1    1476     162                                                        1275   -3.55   -5.20  1.0000
  -6  10  -1    1708     170                                                        1492   -3.55    5.20  1.0000
   8 -10   1       5      78                                                         -19   -2.85   -1.54  1.0000
  -8 -10  -1     129      77                                                         144    2.88   -1.54  1.0000
  -8 -10  -1      17      96                                                          19    2.88   -1.54  1.0000
  -8  10  -1      56      84                                                          64   -2.85    1.54  1.0000
  -5 -11   1     222      78                                                         154    5.31   -2.65  1.0000
  -5 -11   1     193     102                                                         129    5.31   -2.65  1.0000
   5 -11  -1     240      94                                                         170   -5.31   -2.69  1.0000
   3 -11  -1      32      72                                                          33   -0.46   -2.16  1.0000
  -3 -11   1      78      89                                                          81    0.44   -2.17  1.0000
  -3 -11   1       2      60                                                        -101    0.44   -2.17  1.0000
   3 -11  -1      91      77                                                          94   -0.46   -2.16  1.0000
  -3  11   1       2      78                                                         -38   -0.46    2.16  1.0000
   1 -11  -1      37      73                                                          21   -1.14    1.89  1.0000
   1 -11  -1     117      77                                                          86   -1.14    1.89  1.0000
  -1 -11   1      75      66                                                          51    1.16    1.89  1.0000
  -1 -11   1       2      77                                                          -9    1.16    1.89  1.0000
   1  11  -1       2      58                                                        -116    1.16   -1.89  1.0000
  -1  11   1       2      75                                                         -62   -1.14   -1.89  1.0000
  -1 -11  -1     597     118                                                         598   -0.06   -0.62  1.0000
   1 -11   1     541     113                                                         542    0.06   -0.54  1.0000
  -1 -11  -1     647     127                                                         648   -0.06   -0.62  1.0000
   1 -11   1     572     111                                                         573    0.06   -0.54  1.0000
  -1  11  -1     599     119                                                         600    0.06    0.54  1.0000
   1  11   1     558     120                                                         559   -0.06    0.62  1.0000
   3 -11   1     379     108                                                         457    1.35    3.21  1.0000
   3 -11   1     363      95                                                         439    1.35    3.21  1.0000
  -3 -11  -1     449     127                                                         535   -1.38    3.22  1.0000
  -3 -11  -1     507     121                                                         598   -1.38    3.22  1.0000
   5 -11   1     163      91                                                         161    0.52   -1.91  1.0000
  -5 -11  -1     162     107                                                         160   -0.51   -1.91  1.0000
  -5 -11  -1     139      90                                                         137   -0.51   -1.91  1.0000
  -5  11  -1     221      94                                                         219    0.52    1.91  1.0000
 -16   0   2    7987     315                                                        7996    0.84    4.49  1.0000
 -16   0   2    8911     312                                                        8921    0.84    4.49  1.0000
  14   0  -2    3465     191                                                        4911  -13.46   -8.98  1.0000
 -14   0   2    3313     207                                                        4730  -13.46    8.98  1.0000
 -14   0   2    3731     229                                                        5227  -13.46    8.98  1.0000
 -12   0   2    2602     150                                                        3215   -6.40    5.88  1.0000
 -12   0   2    2495     164                                                        3096   -6.40    5.88  1.0000
  12   0  -2    2237     132                                                        2808   -6.40   -5.88  1.0000
  10   0  -2     138      44                                                         181    0.04    3.12  1.0000
 -10   0   2     195      65                                                         246    0.04   -3.12  1.0000
 -10   0   2     117      47                                                         156    0.04   -3.12  1.0000
  -8   0   2    3187     113                                                        2832    3.33    7.31  1.0000
  -8   0   2    2795     126                                                        2462    3.33    7.31  1.0000
   8   0  -2    2760      99                                                        2429    3.33   -7.31  1.0000
  -6   0   2     324      81                                                        2026  -60.36   24.28  1.0000
  -6   0   2     334     105                                                        2132  -60.36   24.28  1.0000
   6   0  -2     327      78                                                        2054  -60.36  -24.28  1.0000
  -4   0   2     536     168                                                        5608  -72.49   21.92  1.0000
  -4   0   2     614     142                                                        5858  -72.49   21.92  1.0000
   2   0  -2    1299      42                                                        1226 -100.36   -5.99  1.0000
  -2   0   2    1305      44                                                        1220 -100.36    5.99  1.0000
   0   0  -2   11664     148                                                        6081   46.57  -15.58  1.0000
   0   0   2   11606     149                                                        6039   46.57   15.58  1.0000
   2   0   2   66218    1444                                                       72512  -17.65    6.54  1.0000
  -2   0  -2   63939    1443                                                       70126  -17.65   -6.54  1.0000
   4   0   2     781      78                                                         961   -4.53   -1.45  1.0000
  -4   0  -2     915      71                                                        1110   -4.53    1.45  1.0000
   6   0   2   14242     359                                                       14093    0.92   -3.47  1.0000
  -6   0  -2   13978     358                                                       13831    0.92    3.47  1.0000
   8   0   2   12946     283                                                        9440   23.98    6.18  1.0000
  -8   0  -2   12685     286                                                        9217   23.98   -6.18  1.0000
  -8   0  -2   13033     277                                                        9515   23.98   -6.18  1.0000
  10   0   2    2314     123                                                        1733   11.30    1.27  1.0000
 -10   0  -2    2238     124                                                        1667   11.30   -1.27  1.0000
 -10   0  -2    2425     122                                                        1830   11.30   -1.27  1.0000
 -12   0  -2     630      97                                                         675    1.34    4.88  1.0000
 -12   0  -2     599     106                                                         643    1.34    4.88  1.0000
  12   0   2     468      87                                                         505    1.34   -4.88  1.0000
 -14   0  -2     669     114                                                         720   -0.74   -1.52  1.0000
  14   0   2     795     117                                                         850   -0.74    1.52  1.0000
 -14   0  -2     749     115                                                         803   -0.74   -1.52  1.0000
 -16   0  -2     619     115                                                         532    3.24    1.11  1.0000
 -16   0  -2     411      97                                                         340    3.24    1.11  1.0000
 -17  -1   2    3414     188                                                        3196   -2.72    0.51  1.0000
 -17  -1   2    3452     217                                                        3233   -2.72    0.51  1.0000
 -17   1   2    3045     186                                                        2840   -2.72    0.50  1.0000
 -17   1   2    3065     189                                                        2859   -2.72    0.50  1.0000
 -15  -1   2    1109     146                                                        1321    3.25   -3.07  1.0000
 -15  -1   2    1004     125                                                        1207    3.25   -3.07  1.0000
 -15   1   2    1241     136                                                        1465    3.26   -3.05  1.0000
 -15   1   2    1024     133                                                        1228    3.26   -3.05  1.0000
 -13  -1   2     733      99                                                         903    4.12   -2.07  1.0000
 -13  -1   2     769     119                                                         943    4.12   -2.07  1.0000
  13  -1  -2     548      89                                                         696    4.13    2.07  1.0000
  13   1  -2     818      90                                                         997    4.12    2.07  1.0000
 -13   1   2     787     104                                                         963    4.13   -2.07  1.0000
 -13   1   2     685     103                                                         850    4.13   -2.07  1.0000
  11  -1  -2     824      89                                                         870    1.71    1.76  1.0000
 -11  -1   2     699     101                                                         741    1.72   -1.75  1.0000
 -11  -1   2     771      81                                                         815    1.72   -1.75  1.0000
  11   1  -2     849      77                                                         896    1.72    1.75  1.0000
 -11   1   2     826      91                                                         872    1.71   -1.76  1.0000
 -11   1   2     957     100                                                        1007    1.71   -1.76  1.0000
   9  -1  -2     357      37                                                          63  -15.07   -5.07  1.0000
  -9  -1   2     285      34                                                          35  -15.09    5.05  1.0000
  -9  -1   2     268      53                                                          29  -15.09    5.05  1.0000
   9   1  -2     122      28                                                         -13  -15.09   -5.05  1.0000
  -9   1   2     191      41                                                           8  -15.07    5.07  1.0000
  -9   1   2     122      41                                                          -7  -15.07    5.07  1.0000
  -7  -1   2      93      59                                                        1091   32.76   -8.19  1.0000
  -7  -1   2      95      98                                                        1095   32.76   -8.19  1.0000
   7  -1  -2      69      67                                                        1002   32.76    8.17  1.0000
  -7   1   2     108      78                                                        1139   32.76   -8.17  1.0000
  -7   1   2      80      76                                                        1043   32.76   -8.17  1.0000
   5  -1  -2     985     110                                                        3386   40.38    3.44  1.0000
  -5  -1   2     998      89                                                        3411   40.39   -3.43  1.0000
  -5  -1   2     925      88                                                        3272   40.39   -3.43  1.0000
  -5  -1   2     952     134                                                        3324   40.39   -3.43  1.0000
  -5   1   2     948     115                                                        3316   40.38   -3.44  1.0000
  -5   1   2     836     113                                                        3099   40.38   -3.44  1.0000
   3  -1  -2     216      49                                                         848   41.24    2.37  1.0000
  -3  -1   2     237      72                                                         966   41.24   -2.36  1.0000
  -3   1   2     239      55                                                         980   41.24   -2.37  1.0000
  -1  -1   2   49898     485                                                       24188  -98.17   -3.32  1.0000
  -1  -1   2   48384     516                                                       23137  -98.17   -3.32  1.0000
   1  -1  -2   48782     497                                                       23411  -98.17    3.29  1.0000
  -1   1   2   49431     500                                                       23862  -98.17   -3.29  1.0000
   1   1  -2   49228     484                                                       23722  -98.17    3.32  1.0000
  -1  -1  -2     251      27                                                          65  -31.36    9.98  1.0000
   1  -1   2     225      26                                                          83  -31.37   -9.98  1.0000
   1   1   2     270      26                                                          54  -31.36   -9.98  1.0000
  -1   1  -2     258      26                                                          61  -31.37    9.98  1.0000
   3  -1   2      79      42                                                         178   -8.98   -6.98  1.0000
  -3  -1  -2      72      40                                                         166   -8.98    7.00  1.0000
  -3   1  -2     112      46                                                         236   -8.98    6.98  1.0000
   3   1   2      83      42                                                         185   -8.98   -7.00  1.0000
  -5  -1  -2     830      82                                                        1321   17.34   -6.46  1.0000
   5  -1   2     704      81                                                        1151   17.32    6.42  1.0000
   5   1   2     696      79                                                        1140   17.34    6.46  1.0000
  -5   1  -2     845      88                                                        1341   17.32   -6.42  1.0000
  -7  -1  -2    8731     198                                                        5792  -24.64    4.41  1.0000
   7  -1   2    9037     208                                                        6042  -24.64   -4.39  1.0000
  -7  -1  -2    8384     203                                                        5510  -24.64    4.41  1.0000
  -7   1  -2    8765     179                                                        5820  -24.64    4.39  1.0000
  -7   1  -2    8698     208                                                        5765  -24.64    4.39  1.0000
   7   1   2    8904     201                                                        5933  -24.64   -4.41  1.0000
  -9  -1  -2    2698     173                                                        3609  -11.86    1.17  1.0000
   9  -1   2    2757     168                                                        3678  -11.86   -1.17  1.0000
  -9  -1  -2    3031     171                                                        3993  -11.86    1.17  1.0000
  -9   1  -2    2881     152                                                        3821  -11.86    1.17  1.0000
   9   1   2    2825     163                                                        3756  -11.86   -1.17  1.0000
  -9   1  -2    2831     175                                                        3763  -11.86    1.17  1.0000
 -11  -1  -2      55      66                                                         125   -5.23    2.27  1.0000
  11  -1   2       6      52                                                          36   -5.25   -2.28  1.0000
 -11  -1  -2       3      52                                                          26   -5.23    2.27  1.0000
 -11   1  -2      16      48                                                          -7   -5.25    2.28  1.0000
  11   1   2      16      50                                                          -2   -5.23   -2.27  1.0000
 -11   1  -2      38      56                                                          98   -5.25    2.28  1.0000
 -13  -1  -2     929     127                                                         952    0.53   -0.15  1.0000
 -13  -1  -2     917     124                                                         940    0.53   -0.15  1.0000
  13  -1   2     777     116                                                         798    0.53    0.15  1.0000
  13   1   2    1086     124                                                        1111    0.53    0.15  1.0000
 -13   1  -2    1155     118                                                        1181    0.53   -0.15  1.0000
 -13   1  -2     854     123                                                         876    0.53   -0.15  1.0000
 -15  -1  -2    1299     154                                                        1225   -1.34    0.69  1.0000
  15  -1   2    1475     154                                                        1395   -1.35   -0.69  1.0000
 -15  -1  -2    1098     143                                                        1030   -1.34    0.69  1.0000
 -15   1  -2    1078     122                                                        1010   -1.35    0.69  1.0000
 -15   1  -2    1220     147                                                        1148   -1.35    0.69  1.0000
 -16  -2   2     177      72                                                         170   -0.59   -2.00  1.0000
 -16  -2   2      36      91                                                          32   -0.59   -2.00  1.0000
 -16   2   2     131      74                                                         125   -0.59   -1.98  1.0000
 -16   2   2     178      88                                                         171   -0.59   -1.98  1.0000
 -14  -2   2     463      83                                                         576    2.45   -2.62  1.0000
  14  -2  -2     550      97                                                         673    2.44    2.63  1.0000
 -14  -2   2     395     109                                                         500    2.45   -2.62  1.0000
 -14   2   2     464      87                                                         577    2.44   -2.63  1.0000
 -14   2   2     400      97                                                         506    2.44   -2.63  1.0000
 -12  -2   2    2021     167                                                        1990   -0.91   -2.16  1.0000
 -12  -2   2    1769     107                                                        1740   -0.91   -2.16  1.0000
  12  -2  -2    1804     119                                                        1776   -0.89    2.14  1.0000
  12   2  -2    1972     105                                                        1941   -0.91    2.16  1.0000
 -12   2   2    1790     112                                                        1762   -0.89   -2.14  1.0000
 -12   2   2    1908     134                                                        1879   -0.89   -2.14  1.0000
 -10  -2   2      68      38                                                          55   13.46   -3.63  1.0000
 -10  -2   2     101      65                                                         131   13.46   -3.63  1.0000
  10  -2  -2      72      42                                                          66   13.45    3.62  1.0000
 -10   2   2      73      43                                                          69   13.45   -3.62  1.0000
 -10   2   2      76      53                                                          77   13.45   -3.62  1.0000
   8  -2  -2     413      61                                                         398   -0.43    0.42  1.0000
  -8  -2   2     384      76                                                         370   -0.43   -0.41  1.0000
  -8  -2   2     535      49                                                         518   -0.43   -0.41  1.0000
  -8   2   2     480      58                                                         464   -0.43   -0.42  1.0000
  -8   2   2     518      69                                                         501   -0.43   -0.42  1.0000
  -6  -2   2    1188      81                                                         626  -14.24    5.24  1.0000
  -6  -2   2    1229      40                                                         656  -14.24    5.24  1.0000
  -6  -2   2    1309      41                                                         716  -14.24    5.24  1.0000
   6  -2  -2    1427      71                                                         806  -14.21   -5.23  1.0000
  -6   2   2    1350      71                                                         748  -14.21    5.23  1.0000
  -4  -2   2    8080     149                                                        3886  -39.64    2.23  1.0000
   4  -2  -2    7429     124                                                        3438  -39.64   -2.27  1.0000
  -4   2   2    8088     132                                                        3891  -39.64    2.27  1.0000
  -2  -2   2    1364      50                                                         232   72.86   -4.34  1.0000
   2  -2  -2    1390      38                                                         220   72.86    4.38  1.0000
  -2  -2   2    1478      27                                                         182   72.86   -4.34  1.0000
  -2   2   2    1421      44                                                         206   72.86   -4.38  1.0000
   0  -2   2    3451     129                                                        4478   10.75   -6.12  1.0000
   0  -2  -2    3593     137                                                        4640   10.76    6.12  1.0000
   0  -2   2    3614     136                                                        4663   10.75   -6.12  1.0000
   0   2  -2    3376     128                                                        4392   10.75    6.12  1.0000
   0   2   2    3445     138                                                        4472   10.76   -6.12  1.0000
   2  -2   2    4448     141                                                        4463    0.27   -0.72  1.0000
  -2  -2  -2    4171     139                                                        4186    0.26    0.69  1.0000
  -2   2  -2    4405     141                                                        4420    0.27    0.72  1.0000
   2   2   2    4277     140                                                        4292    0.26   -0.69  1.0000
   4  -2   2    1094      45                                                         134  -31.58   -3.69  1.0000
  -4  -2  -2     970      37                                                          92  -31.57    3.69  1.0000
   4   2   2     902      38                                                          71  -31.57   -3.69  1.0000
  -4   2  -2     935      40                                                          81  -31.58    3.69  1.0000
   6  -2   2    7315     222                                                        6944   -2.90   -1.62  1.0000
  -6  -2  -2    7307     215                                                        6937   -2.90    1.62  1.0000
  -6   2  -2    7037     224                                                        6673   -2.90    1.62  1.0000
   6   2   2    7089     212                                                        6724   -2.90   -1.62  1.0000
  -8  -2  -2     209      69                                                         248    1.69    1.48  1.0000
   8  -2   2     298      67                                                         344    1.69   -1.52  1.0000
  -8  -2  -2     184      59                                                         221    1.69    1.48  1.0000
   8   2   2     208      58                                                         247    1.69   -1.48  1.0000
  -8   2  -2     163      62                                                         197    1.69    1.52  1.0000
 -10  -2  -2    5271     204                                                        5081   -1.81    4.99  1.0000
  10  -2   2    5136     213                                                        4948   -1.81   -5.00  1.0000
 -10  -2  -2    4882     217                                                        4698   -1.81    4.99  1.0000
 -10   2  -2    4997     211                                                        4812   -1.81    5.00  1.0000
 -10   2  -2    5061     167                                                        4874   -1.81    5.00  1.0000
  10   2   2    5162     195                                                        4974   -1.81   -4.99  1.0000
 -12  -2  -2    2745     157                                                        2591   -2.09    0.64  1.0000
 -12  -2  -2    3183     184                                                        3017   -2.09    0.64  1.0000
  12  -2   2    2893     172                                                        2734   -2.10   -0.64  1.0000
  12   2   2    2554     150                                                        2405   -2.09   -0.64  1.0000
 -12   2  -2    2765     171                                                        2609   -2.10    0.64  1.0000
 -12   2  -2    2793     133                                                        2636   -2.10    0.64  1.0000
  14  -2   2      88      74                                                         120   -0.66   -3.85  1.0000
 -14  -2  -2      41      65                                                          61   -0.65    3.85  1.0000
 -14  -2  -2      51      84                                                          74   -0.65    3.85  1.0000
 -14   2  -2       7      64                                                        -101   -0.66    3.85  1.0000
 -14   2  -2      31      60                                                          48   -0.66    3.85  1.0000
  14   2   2       7      56                                                         -59   -0.65   -3.85  1.0000
 -16  -2  -2     272      90                                                         262    0.05    1.71  1.0000
 -16  -2  -2     451     124                                                         439    0.05    1.71  1.0000
  16  -2   2     313     103                                                         302    0.06   -1.73  1.0000
 -16   2  -2     308     101                                                         298    0.06    1.73  1.0000
 -17  -3   2       2      58                                                        -108    2.04   -0.19  1.0000
 -17  -3   2     169     100                                                         135    2.04   -0.19  1.0000
 -17   3   2       2      72                                                         -48    2.04   -0.19  1.0000
 -15  -3   2    3884     260                                                        4656   -7.78    3.56  1.0000
  15  -3  -2    4190     227                                                        4990   -7.78   -3.56  1.0000
 -15  -3   2    3950     199                                                        4729   -7.78    3.56  1.0000
 -15   3   2    3975     236                                                        4755   -7.78    3.56  1.0000
 -13  -3   2    2769     137                                                        2815   -0.14    0.80  1.0000
  13  -3  -2    2791     159                                                        2838   -0.14   -0.81  1.0000
 -13  -3   2    2455     190                                                        2499   -0.14    0.80  1.0000
 -13   3   2    2869     173                                                        2917   -0.14    0.81  1.0000
 -11  -3   2    8094     357                                                       10269  -15.44    6.11  1.0000
  11  -3  -2    7681     312                                                        9802  -15.43   -6.14  1.0000
 -11  -3   2    8331     277                                                       10536  -15.44    6.11  1.0000
 -11   3   2    8002     325                                                       10165  -15.43    6.14  1.0000
  -9  -3   2    1656     137                                                        1522    2.58    2.72  1.0000
  -9  -3   2    1803      82                                                        1664    2.58    2.72  1.0000
   9  -3  -2    1766     107                                                        1628    2.58   -2.72  1.0000
  -9   3   2    1719     112                                                        1583    2.58    2.72  1.0000
  -7  -3   2    3779     207                                                        8559  -43.84   10.69  1.0000
  -7  -3   2    3652     205                                                        8367  -43.84   10.69  1.0000
  -7  -3   2    3756     286                                                        8525  -43.84   10.69  1.0000
   7  -3  -2    3856     256                                                        8675  -43.83  -10.72  1.0000
  -7   3   2    3757     261                                                        8525  -43.83   10.72  1.0000
  -5  -3   2   14943     330                                                       15519   -3.71   -1.81  1.0000
  -5  -3   2   15379     414                                                       15964   -3.71   -1.81  1.0000
   5  -3  -2   14540     381                                                       15108   -3.71    1.81  1.0000
  -5  -3   2   14542     330                                                       15110   -3.71   -1.81  1.0000
  -5   3   2   14377     384                                                       14942   -3.71   -1.81  1.0000
  -3  -3   2   71693    2080                                                      100000  -66.27   22.74  1.0000
  -3  -3   2   71278    1966                                                       99510  -66.27   22.74  1.0000
   3  -3  -2   71498    2008                                                       99769  -66.26  -22.75  1.0000
  -3   3   2   68435    2009                                                       96145  -66.26   22.75  1.0000
   1  -3  -2    1352     148                                                        4303   47.02   -3.63  1.0000
  -1  -3   2    1555     137                                                        4677   47.01    3.63  1.0000
  -1  -3   2    1565     155                                                        4695   47.01    3.63  1.0000
  -1   3   2    1426     152                                                        4440   47.02    3.63  1.0000
   1   3  -2    1543     134                                                        4654   47.01   -3.63  1.0000
   1  -3   2    4561     166                                                        5938  -13.69   -1.50  1.0000
   1  -3   2    4524     175                                                        5895  -13.69   -1.50  1.0000
  -1  -3  -2    4481     175                                                        5848  -13.70    1.48  1.0000
   1   3   2    4521     178                                                        5893  -13.70   -1.48  1.0000
  -1   3  -2    4310     174                                                        5651  -13.69    1.50  1.0000
   3  -3   2     383      77                                                         732   27.49    6.64  1.0000
  -3  -3  -2     431      73                                                         825   27.50   -6.63  1.0000
  -3   3  -2     466      81                                                         890   27.49   -6.64  1.0000
   3   3   2     454      77                                                         869   27.50    6.63  1.0000
   5  -3   2    2517     146                                                        3256   -9.73   -3.70  1.0000
  -5  -3  -2    2379     135                                                        3100   -9.74    3.71  1.0000
   5   3   2    2577     137                                                        3326   -9.74   -3.71  1.0000
  -5   3  -2    2556     149                                                        3301   -9.73    3.70  1.0000
   7  -3   2    3108     126                                                        1522   26.14   -1.02  1.0000
  -7  -3  -2    2745     125                                                        1269   26.14    1.02  1.0000
  -7  -3  -2    3058     104                                                        1487   26.14    1.02  1.0000
   7   3   2    2978      98                                                        1431   26.14   -1.02  1.0000
  -7   3  -2    3101     129                                                        1517   26.14    1.02  1.0000
  -9  -3  -2    2152     125                                                        1913    5.04    3.77  1.0000
   9  -3   2    2361     140                                                        2111    5.03   -3.75  1.0000
  -9  -3  -2    2292     153                                                        2045    5.04    3.77  1.0000
   9   3   2    2100     120                                                        1864    5.04   -3.77  1.0000
  -9   3  -2    2393     144                                                        2141    5.03    3.75  1.0000
 -11  -3  -2    2346     158                                                        1565   12.13   -4.08  1.0000
  11  -3   2    2383     150                                                        1595   12.14    4.05  1.0000
 -11  -3  -2    2104     129                                                        1368   12.13   -4.08  1.0000
  11   3   2    2454     137                                                        1653   12.13    4.08  1.0000
 -11   3  -2    2579     163                                                        1756   12.14   -4.05  1.0000
 -13  -3  -2    2512     186                                                        2392    1.76    1.41  1.0000
 -13  -3  -2    2497     159                                                        2377    1.76    1.41  1.0000
  13  -3   2    2667     175                                                        2544    1.75   -1.40  1.0000
 -13   3  -2    2528     181                                                        2408    1.75    1.40  1.0000
  13   3   2    2272     146                                                        2158    1.76   -1.41  1.0000
 -15  -3  -2     849     117                                                         698    3.97    0.08  1.0000
 -15  -3  -2     789     131                                                         644    3.97    0.08  1.0000
  15  -3   2     723     117                                                         584    3.96   -0.10  1.0000
 -15   3  -2     951     140                                                         791    3.96    0.10  1.0000
  16  -4  -2     259      86                                                         236    1.09    0.06  1.0000
 -16  -4   2     113      65                                                          98    1.09   -0.07  1.0000
 -16  -4   2     232     111                                                         210    1.09   -0.07  1.0000
 -16   4   2     229      87                                                         208    1.09   -0.06  1.0000
  14  -4  -2     121      63                                                          95    6.97    2.17  1.0000
 -14  -4   2      26      89                                                         -14    6.97   -2.17  1.0000
 -14  -4   2      69      52                                                          43    6.97   -2.17  1.0000
 -14   4   2     151      74                                                         125    6.97   -2.17  1.0000
 -12  -4   2     906      91                                                        1219    7.14   -2.15  1.0000
 -12  -4   2    1241     165                                                        1604    7.14   -2.15  1.0000
  12  -4  -2     954     130                                                        1275    7.16    2.14  1.0000
 -12   4   2    1032     141                                                        1365    7.16   -2.14  1.0000
  10  -4  -2    2928     150                                                        2753   -2.08   -2.97  1.0000
 -10  -4   2    2894     115                                                        2721   -2.07    2.95  1.0000
 -10  -4   2    2813     180                                                        2642   -2.07    2.95  1.0000
 -10   4   2    2880     158                                                        2706   -2.08    2.97  1.0000
  -8  -4   2     353      46                                                         309    1.74   -0.25  1.0000
   8  -4  -2     409      70                                                         361    1.74    0.29  1.0000
  -8  -4   2     435      86                                                         386    1.74   -0.25  1.0000
  -8   4   2     294      65                                                         254    1.74   -0.29  1.0000
   6  -4  -2    6439     295                                                        9932   27.96    2.73  1.0000
  -6  -4   2    6607     324                                                       10140   27.96   -2.72  1.0000
  -6  -4   2    6688     246                                                       10241   27.96   -2.72  1.0000
  -6   4   2    6647     304                                                       10190   27.96   -2.73  1.0000
  -4  -4   2     348     109                                                        1423   58.16  -23.25  1.0000
  -4  -4   2     366      66                                                        1214   58.16  -23.25  1.0000
   4  -4  -2     347      94                                                        1451   58.15   23.23  1.0000
  -4   4   2     350     110                                                        1384   58.15  -23.23  1.0000
   2  -4  -2     181      47                                                         181   -6.08   10.24  1.0000
  -2  -4   2     204      53                                                         209   -6.05  -10.23  1.0000
  -2  -4   2     180      37                                                         180   -6.05  -10.23  1.0000
  -2   4   2     138      47                                                         127   -6.08  -10.24  1.0000
   2   4  -2     146      35                                                         137   -6.05   10.23  1.0000
   0  -4   2    1387      77                                                         904   -9.96   -2.80  1.0000
   0  -4  -2    1040      69                                                         629   -9.93    2.81  1.0000
   0  -4   2    1127      69                                                         697   -9.96   -2.80  1.0000
   0   4   2    1129      75                                                         699   -9.93   -2.81  1.0000
   0   4  -2    1130      67                                                         699   -9.96    2.80  1.0000
  -2  -4  -2    3122     132                                                        3162   -0.34   -4.85  1.0000
   2  -4   2    3233     115                                                        3273   -0.33    4.79  1.0000
   2  -4   2    3459     141                                                        3501   -0.33    4.79  1.0000
  -2   4  -2    3699     141                                                        3743   -0.33   -4.79  1.0000
   2   4   2    3102     133                                                        3142   -0.34    4.85  1.0000
  -4  -4  -2     184      46                                                         131    2.20    5.46  1.0000
   4  -4   2     169      48                                                         118    2.23   -5.45  1.0000
  -4   4  -2     101      46                                                          60    2.23    5.45  1.0000
   4   4   2     133      45                                                          87    2.20   -5.46  1.0000
  -6  -4  -2     999      79                                                         652  -10.55   -0.78  1.0000
  -6  -4  -2    1054     101                                                         697  -10.55   -0.78  1.0000
   6  -4   2     988      86                                                         642  -10.55    0.80  1.0000
   6   4   2     895      75                                                         567  -10.55    0.78  1.0000
  -6   4  -2    1039      91                                                         684  -10.55   -0.80  1.0000
   8  -4   2    1819     110                                                         943  -17.15   -2.03  1.0000
  -8  -4  -2    2021     105                                                        1090  -17.15    2.00  1.0000
  -8  -4  -2    2080     130                                                        1133  -17.15    2.00  1.0000
  -8   4  -2    1764     109                                                         903  -17.15    2.03  1.0000
   8   4   2    2085     106                                                        1137  -17.15   -2.00  1.0000
  10  -4   2      11      46                                                           2   -6.06    1.95  1.0000
 -10  -4  -2      13      52                                                          43   -6.08   -1.95  1.0000
 -10  -4  -2      84      80                                                         160   -6.08   -1.95  1.0000
  10   4   2      20      48                                                          -7   -6.08    1.95  1.0000
 -10   4  -2      12      55                                                          42   -6.06   -1.95  1.0000
 -12  -4  -2     653     121                                                         577   -2.98    6.20  1.0000
  12  -4   2     593      99                                                         520   -2.98   -6.19  1.0000
 -12  -4  -2     533      92                                                         463   -2.98    6.20  1.0000
  12   4   2     455      84                                                         389   -2.98   -6.20  1.0000
 -12   4  -2     437      97                                                         372   -2.98    6.19  1.0000
 -14  -4  -2      95      70                                                          53    2.06    3.09  1.0000
  14  -4   2       7      68                                                         -24    2.05   -3.10  1.0000
 -14  -4  -2     130      94                                                          80    2.06    3.09  1.0000
 -14   4  -2      84      74                                                          45    2.05    3.10  1.0000
  15  -5  -2     505      96                                                         357    4.95    1.46  1.0000
 -15  -5   2     362      71                                                         239    4.95   -1.46  1.0000
 -15  -5   2     341     111                                                         222    4.95   -1.46  1.0000
 -15   5   2     503     103                                                         355    4.95   -1.46  1.0000
 -13  -5   2    5188     179                                                        4624   -5.11    3.23  1.0000
 -13  -5   2    5278     265                                                        4709   -5.11    3.23  1.0000
  13  -5  -2    4945     220                                                        4395   -5.11   -3.22  1.0000
 -13   5   2    5143     235                                                        4582   -5.11    3.22  1.0000
 -11  -5   2    3386     244                                                        4522   13.28   -1.02  1.0000
 -11  -5   2    3506     166                                                        4660   13.28   -1.02  1.0000
  11  -5  -2    3273     210                                                        4389   13.26    1.02  1.0000
 -11   5   2    3600     225                                                        4766   13.26   -1.02  1.0000
  -9  -5   2    4433     160                                                        4922    4.54   -2.54  1.0000
   9  -5  -2    3876     199                                                        4335    4.56    2.54  1.0000
  -9  -5   2    4105     232                                                        4576    4.54   -2.54  1.0000
  -9   5   2    4424     216                                                        4914    4.56   -2.54  1.0000
  -7  -5   2    5028     261                                                        6449   12.00   -6.54  1.0000
  -7  -5   2    5125     186                                                        6559   12.00   -6.54  1.0000
   7  -5  -2    4954     234                                                        6364   11.99    6.56  1.0000
  -7   5   2    4595     235                                                        5957   11.99   -6.56  1.0000
  -5  -5   2    8214     177                                                        3415  -47.29   16.04  1.0000
   5  -5  -2    8200     159                                                        3406  -47.29  -16.07  1.0000
  -5  -5   2    8395     125                                                        3534  -47.29   16.04  1.0000
   5   5  -2    7972     121                                                        3257  -47.29  -16.04  1.0000
  -5   5   2    8742     170                                                        3764  -47.29   16.07  1.0000
  -3  -5   2    2801     170                                                        3678   10.29   -4.58  1.0000
   3  -5  -2    2824     160                                                        3706   10.30    4.60  1.0000
  -3  -5   2    2802     134                                                        3679   10.29   -4.58  1.0000
   3   5  -2    2571     127                                                        3414   10.29    4.58  1.0000
   1  -5  -2    2902     150                                                        3423    5.38   -7.67  1.0000
  -1  -5   2    3058     138                                                        3593    5.40    7.64  1.0000
  -1  -5   2    2968     154                                                        3495    5.40    7.64  1.0000
  -1   5   2    3159     156                                                        3702    5.38    7.67  1.0000
   1   5  -2    3127     138                                                        3668    5.40   -7.64  1.0000
   1  -5   2    2800     182                                                        5727   32.87    0.15  1.0000
   1  -5   2    2561     192                                                        5384   32.87    0.15  1.0000
  -1  -5  -2    2872     198                                                        5831   32.87   -0.14  1.0000
  -1   5  -2    2448     187                                                        5219   32.87   -0.15  1.0000
   1   5   2    2756     198                                                        5665   32.87    0.14  1.0000
   3  -5   2      93      39                                                         131  -11.09   -6.36  1.0000
  -3  -5  -2      81      48                                                         109  -11.11    6.35  1.0000
   3  -5   2      63      48                                                          69  -11.09   -6.36  1.0000
   3   5   2      89      49                                                         124  -11.11   -6.35  1.0000
  -3   5  -2      84      50                                                         115  -11.09    6.36  1.0000
  -5  -5  -2     188      79                                                         346    7.70   -2.30  1.0000
   5  -5   2      98      61                                                         216    7.70    2.29  1.0000
  -5  -5  -2      92      53                                                         207    7.70   -2.30  1.0000
  -5   5  -2      22      50                                                          84    7.70   -2.29  1.0000
   5   5   2     171      62                                                         323    7.70    2.30  1.0000
  -7  -5  -2    5279     208                                                        5606    2.99   -1.18  1.0000
  -7  -5  -2    5104     248                                                        5425    2.99   -1.18  1.0000
   7  -5   2    5243     229                                                        5569    2.99    1.20  1.0000
  -7   5  -2    4683     224                                                        4992    2.99   -1.20  1.0000
   7   5   2    5134     204                                                        5456    2.99    1.18  1.0000
  -9  -5  -2     983     165                                                        1633   13.14   -1.12  1.0000
   9  -5   2     898     146                                                        1523   13.14    1.08  1.0000
  -9  -5  -2     805     126                                                        1402   13.14   -1.12  1.0000
  -9   5  -2     776     146                                                        1363   13.14   -1.08  1.0000
   9   5   2     838     124                                                        1445   13.14    1.12  1.0000
 -11  -5  -2    2596     207                                                        2328   -3.30    5.72  1.0000
 -11  -5  -2    2752     155                                                        2476   -3.30    5.72  1.0000
  11  -5   2    2361     184                                                        2104   -3.30   -5.72  1.0000
  11   5   2    2661     147                                                        2389   -3.30   -5.72  1.0000
 -11   5  -2    2214     183                                                        1965   -3.30    5.72  1.0000
 -13  -5  -2     244      99                                                         199    2.31   -0.06  1.0000
 -13  -5  -2      14      73                                                           5    2.31   -0.06  1.0000
  13  -5   2     263      93                                                         216    2.32    0.05  1.0000
 -13   5  -2     106      81                                                          77    2.32   -0.05  1.0000
 -14  -6   2     838     168                                                        1115   -5.97    2.45  1.0000
  14  -6  -2    1281     175                                                        1618   -5.97   -2.42  1.0000
 -14  -6   2     886     110                                                        1170   -5.97    2.45  1.0000
 -14   6   2     783     149                                                        1051   -5.97    2.42  1.0000
 -12  -6   2     592      91                                                         772   -3.25    4.79  1.0000
  12  -6  -2     721     132                                                         918   -3.21   -4.82  1.0000
 -12  -6   2     563     136                                                         739   -3.25    4.79  1.0000
 -12   6   2     602     121                                                         783   -3.21    4.82  1.0000
  10  -6  -2    4134     243                                                        5512  -13.60   -6.23  1.0000
 -10  -6   2    3847     268                                                        5178  -13.59    6.20  1.0000
 -10  -6   2    4007     186                                                        5363  -13.59    6.20  1.0000
 -10   6   2    4064     246                                                        5431  -13.60    6.23  1.0000
   8  -6  -2     857     132                                                        1267   -5.69  -10.94  1.0000
  -8  -6   2    1052     161                                                        1506   -5.68   10.95  1.0000
  -8  -6   2     849      84                                                        1257   -5.68   10.95  1.0000
  -8   6   2     942     139                                                        1372   -5.69   10.94  1.0000
   6  -6  -2      50      65                                                         178    8.34    4.13  1.0000
  -6  -6   2      95      81                                                         257    8.29   -4.18  1.0000
  -6  -6   2      45      47                                                         168    8.29   -4.18  1.0000
  -6   6   2     117      75                                                         292    8.34   -4.13  1.0000
   6   6  -2      36      45                                                         150    8.29    4.18  1.0000
  -4  -6   2    5679     174                                                        5247    5.43    3.17  1.0000
  -4  -6   2    5527     221                                                        5101    5.43    3.17  1.0000
   4  -6  -2    5462     206                                                        5041    5.42   -3.23  1.0000
  -4   6   2    5524     208                                                        5101    5.42    3.23  1.0000
   4   6  -2    5367     170                                                        4947    5.43   -3.17  1.0000
  -2  -6   2    7962     352                                                       11824  -27.83    4.03  1.0000
  -2  -6   2    7972     321                                                       11836  -27.83    4.03  1.0000
   2  -6  -2    7655     341                                                       11451  -27.85   -4.01  1.0000
  -2   6   2    7943     347                                                       11802  -27.85    4.01  1.0000
   0  -6  -2    2723     204                                                        5164  -28.39   -0.93  1.0000
   0  -6   2    2896     196                                                        5403  -28.41    0.95  1.0000
   0  -6   2    2994     200                                                        5537  -28.41    0.95  1.0000
   0   6   2    3150     213                                                        5747  -28.39    0.93  1.0000
   0   6  -2    2759     193                                                        5216  -28.41   -0.95  1.0000
   2  -6   2     939      84                                                        1102   -2.33    3.72  1.0000
  -2  -6  -2     979     106                                                        1146   -2.32   -3.75  1.0000
   2  -6   2     991     109                                                        1159   -2.33    3.72  1.0000
  -2  -6  -2    1024     122                                                        1195   -2.32   -3.75  1.0000
  -2   6  -2    1074     111                                                        1248   -2.33   -3.72  1.0000
   2   6   2    1092     110                                                        1268   -2.32    3.75  1.0000
  -4  -6  -2     158      47                                                          69   29.33   -4.97  1.0000
  -4  -6  -2     236      61                                                          29   29.33   -4.97  1.0000
   4  -6   2     203      49                                                          43   29.35    4.99  1.0000
  -4   6  -2     193      48                                                          48   29.35   -4.99  1.0000
   4   6   2     207      50                                                          41   29.33    4.97  1.0000
  -6  -6  -2    5491     199                                                        4790    7.27    1.59  1.0000
  -6  -6  -2    5584     242                                                        4877    7.27    1.59  1.0000
   6  -6   2    6159     225                                                        5417    7.26   -1.55  1.0000
  -6   6  -2    6122     223                                                        5382    7.26    1.55  1.0000
   6   6   2    6087     204                                                        5348    7.27   -1.59  1.0000
   8  -6   2    5141     239                                                        5441   -2.57   -2.40  1.0000
  -8  -6  -2    5129     217                                                        5427   -2.55    2.39  1.0000
  -8  -6  -2    4863     260                                                        5153   -2.55    2.39  1.0000
  -8   6  -2    4599     228                                                        4883   -2.57    2.40  1.0000
   8   6   2    5194     213                                                        5494   -2.55   -2.39  1.0000
 -10  -6  -2    4400     250                                                        4342    0.82    1.28  1.0000
  10  -6   2    4471     228                                                        4410    0.85   -1.29  1.0000
 -10  -6  -2    4476     202                                                        4417    0.82    1.28  1.0000
 -10   6  -2    4150     219                                                        4091    0.85    1.29  1.0000
  10   6   2    3727     185                                                        3673    0.82   -1.28  1.0000
 -12  -6  -2     341      84                                                         223    4.72   -2.97  1.0000
  12  -6   2     272      80                                                         168    4.70    3.00  1.0000
 -12  -6  -2     376     113                                                         252    4.72   -2.97  1.0000
 -12   6  -2     461     101                                                         323    4.70   -3.00  1.0000
 -14  -6  -2     686     143                                                         643    0.99   -0.75  1.0000
  13  -7  -2    1183     163                                                        1259    1.59   -2.25  1.0000
 -13  -7   2    1162     180                                                        1237    1.59    2.23  1.0000
 -13  -7   2    1193     115                                                        1269    1.59    2.23  1.0000
 -13   7   2    1265     165                                                        1344    1.59    2.25  1.0000
 -11  -7   2     844      87                                                         694    4.00   -0.65  1.0000
 -11  -7   2    1107     154                                                         934    4.00   -0.65  1.0000
  11  -7  -2     918     121                                                         761    3.98    0.65  1.0000
 -11   7   2     954     131                                                         794    3.98   -0.65  1.0000
  -9  -7   2    1685     102                                                        1178   10.16   -0.90  1.0000
   9  -7  -2    1614     134                                                        1118   10.17    0.92  1.0000
  -9  -7   2    1850     161                                                        1317   10.16   -0.90  1.0000
  -9   7   2    1319     128                                                         875   10.17   -0.92  1.0000
  -7  -7   2     985      90                                                         910    2.01    0.28  1.0000
  -7  -7   2    1328     151                                                        1241    2.01    0.28  1.0000
   7  -7  -2    1474     144                                                        1383    2.02   -0.29  1.0000
   7   7  -2    1254      93                                                        1170    2.01   -0.28  1.0000
  -7   7   2    1044     125                                                         967    2.02    0.29  1.0000
   5  -7  -2    6106     261                                                        6713    6.18   -2.48  1.0000
  -5  -7   2    6155     278                                                        6766    6.18    2.48  1.0000
  -5  -7   2    6105     225                                                        6713    6.18    2.48  1.0000
  -5   7   2    6416     269                                                        7039    6.18    2.48  1.0000
   5   7  -2    6218     216                                                        6832    6.18   -2.48  1.0000
  -3  -7   2    2576     158                                                        2362    3.52    4.05  1.0000
  -3  -7   2    2709     130                                                        2489    3.52    4.05  1.0000
   3  -7  -2    2805     153                                                        2582    3.52   -4.06  1.0000
   3   7  -2    2718     125                                                        2498    3.52   -4.05  1.0000
  -1  -7   2     218      96                                                         669   17.32   -4.55  1.0000
   1  -7  -2     288      99                                                         792   17.33    4.55  1.0000
   1  -7  -2     329     103                                                         861   17.33    4.55  1.0000
  -1  -7   2     268      91                                                         758   17.32   -4.55  1.0000
  -1   7   2     368     106                                                         925   17.33   -4.55  1.0000
   1  -7   2      13      42                                                         -34   -1.33   -4.96  1.0000
  -1  -7  -2      30      46                                                          55   -1.33    4.94  1.0000
   1  -7   2       9      50                                                          17   -1.33   -4.96  1.0000
  -1  -7  -2      11      55                                                          22   -1.33    4.94  1.0000
   1   7   2      25      51                                                          46   -1.33   -4.94  1.0000
  -1   7  -2      38      50                                                          66   -1.33    4.96  1.0000
  -3  -7  -2      75      46                                                         -32  -11.76    4.22  1.0000
  -3  -7  -2      75      60                                                         -16  -11.76    4.22  1.0000
   3  -7   2      92      37                                                           9  -11.77   -4.23  1.0000
   3  -7   2     214      57                                                         112  -11.77   -4.23  1.0000
  -3   7  -2     152      49                                                          58  -11.77    4.23  1.0000
   3   7   2      90      45                                                           8  -11.76   -4.22  1.0000
  -5  -7  -2     164      48                                                          -8  -16.99    7.20  1.0000
  -5  -7  -2     164      63                                                         -43  -16.99    7.20  1.0000
   5  -7   2     164      49                                                         -24  -16.99   -7.20  1.0000
  -5   7  -2     164      46                                                         -37  -16.99    7.20  1.0000
   5   7   2      89      52                                                          50  -16.99   -7.20  1.0000
  -7  -7  -2     161      87                                                         127    3.86   -2.55  1.0000
  -7  -7  -2     168      61                                                         134    3.86   -2.55  1.0000
   7  -7   2      29      57                                                          12    3.86    2.56  1.0000
   7   7   2      94      57                                                          67    3.86    2.55  1.0000
  -7   7  -2      10      49                                                         -39    3.86   -2.56  1.0000
   9  -7   2     282      83                                                         196   -3.59   -1.87  1.0000
  -9  -7  -2     348      75                                                         252   -3.58    1.86  1.0000
  -9  -7  -2     409     105                                                         305   -3.58    1.86  1.0000
   9   7   2     252      66                                                         172   -3.58   -1.86  1.0000
  -9   7  -2     211      77                                                         138   -3.59    1.87  1.0000
 -11  -7  -2     305     104                                                         211   -4.24    3.15  1.0000
  11  -7   2     731     116                                                         583   -4.24   -3.13  1.0000
 -11  -7  -2     573      94                                                         443   -4.24    3.15  1.0000
 -11   7  -2     653     115                                                         514   -4.24    3.13  1.0000
 -13  -7  -2     997     180                                                        1169   -3.80    0.67  1.0000
 -12  -8   2    1722     139                                                        1729   -0.09   -1.38  1.0000
 -12  -8   2    1753     214                                                        1760   -0.09   -1.38  1.0000
  12  -8  -2    1809     195                                                        1817   -0.07    1.37  1.0000
 -12   8   2    1700     190                                                        1708   -0.07   -1.37  1.0000
 -10  -8   2      13      92                                                          25    2.03    0.23  1.0000
 -10  -8   2      15      53                                                          27    2.03    0.23  1.0000
  10  -8  -2       2      69                                                         -25    2.02   -0.24  1.0000
 -10   8   2     112      83                                                         142    2.02    0.24  1.0000
  -8  -8   2      53      57                                                          99   -0.34    3.89  1.0000
  -8  -8   2       7      82                                                          -9   -0.34    3.89  1.0000
   8  -8  -2     100      81                                                         160   -0.35   -3.88  1.0000
  -8   8   2      27      70                                                          62   -0.35    3.88  1.0000
   6  -8  -2    1414     142                                                        1292   -3.91   -3.58  1.0000
  -6  -8   2    1037     139                                                         930   -3.94    3.58  1.0000
   6  -8  -2    1387      96                                                        1266   -3.91   -3.58  1.0000
  -6  -8   2    1383     113                                                        1261   -3.94    3.58  1.0000
  -6   8   2    1288     138                                                        1171   -3.91    3.58  1.0000
   6   8  -2    1373     106                                                        1251   -3.94   -3.58  1.0000
   4  -8  -2      85      46                                                         -33  -10.26   -8.44  1.0000
  -4  -8   2     102      69                                                          13  -10.25    8.39  1.0000
  -4  -8   2     117      45                                                          26  -10.25    8.39  1.0000
   4  -8  -2     166      63                                                          71  -10.26   -8.44  1.0000
   4   8  -2     124      47                                                          32  -10.25   -8.39  1.0000
   2  -8  -2    3736     181                                                        3912    1.92    1.36  1.0000
  -2  -8   2    3500     175                                                        3673    1.95   -1.31  1.0000
  -2  -8   2    3277     189                                                        3444    1.95   -1.31  1.0000
   2  -8  -2    3292     182                                                        3458    1.92    1.36  1.0000
   2   8  -2    3064     160                                                        3226    1.95    1.31  1.0000
  -2   8   2    3455     192                                                        3625    1.92   -1.36  1.0000
   0  -8  -2    3745     196                                                        3725   -0.12   -3.23  1.0000
   0  -8   2    4173     191                                                        4149   -0.15    3.25  1.0000
   0  -8  -2    4025     199                                                        4004   -0.12   -3.23  1.0000
   0  -8   2    4037     189                                                        4014   -0.15    3.25  1.0000
   0   8   2    3668     193                                                        3648   -0.12    3.23  1.0000
   0   8  -2    4141     184                                                        4117   -0.15   -3.25  1.0000
  -2  -8  -2    3164     213                                                        3883    4.86   14.49  1.0000
   2  -8   2    3510     202                                                        4270    4.86  -14.51  1.0000
  -2  -8  -2    3470     197                                                        4225    4.86   14.49  1.0000
   2  -8   2    3039     170                                                        3743    4.86  -14.51  1.0000
  -2   8  -2    3094     190                                                        3805    4.86   14.51  1.0000
   2   8   2    3200     195                                                        3923    4.86  -14.49  1.0000
   4  -8   2    2921     172                                                        2773   -2.10   -0.96  1.0000
   4  -8   2    2724     124                                                        2581   -2.10   -0.96  1.0000
  -4  -8  -2    2967     161                                                        2816   -2.13    0.99  1.0000
  -4  -8  -2    2576     185                                                        2435   -2.13    0.99  1.0000
  -4   8  -2    2950     169                                                        2801   -2.10    0.96  1.0000
   4   8   2    2795     160                                                        2648   -2.13   -0.99  1.0000
  -6  -8  -2     528     136                                                         768    8.99    3.81  1.0000
   6  -8   2     608     122                                                         864    8.96   -3.79  1.0000
  -6  -8  -2     459     106                                                         682    8.99    3.81  1.0000
   6   8   2     657     115                                                         924    8.99   -3.81  1.0000
  -6   8  -2     505     117                                                         739    8.96    3.79  1.0000
  -8  -8  -2    2104     160                                                        2413    4.73    1.10  1.0000
  -8  -8  -2    2110     227                                                        2419    4.73    1.10  1.0000
   8  -8   2    2451     187                                                        2783    4.72   -1.14  1.0000
   8   8   2    2060     155                                                        2366    4.73   -1.10  1.0000
  -8   8  -2    2051     202                                                        2355    4.72    1.14  1.0000
  10  -8   2    1843     199                                                        2069    3.64    0.95  1.0000
 -10  -8  -2    1706     171                                                        1922    3.61   -0.96  1.0000
 -10  -8  -2    1417     196                                                        1614    3.61   -0.96  1.0000
 -10   8  -2    1476     188                                                        1679    3.64   -0.95  1.0000
  11  -9  -2    1771     203                                                        1899   -1.68   -1.67  1.0000
 -11  -9   2    1590     212                                                        1710   -1.66    1.65  1.0000
 -11  -9   2    1774     134                                                        1901   -1.66    1.65  1.0000
 -11   9   2    1544     195                                                        1664   -1.68    1.67  1.0000
   9  -9  -2     501     118                                                         526   -2.23    0.58  1.0000
  -9  -9   2     534      91                                                         560   -2.23   -0.56  1.0000
  -9  -9   2     325     125                                                         345   -2.23   -0.56  1.0000
  -9   9   2     196      97                                                         211   -2.23   -0.58  1.0000
   7  -9  -2     371     116                                                         551   -6.48   -4.96  1.0000
  -7  -9   2     496     134                                                         704   -6.48    4.96  1.0000
  -7  -9   2     427      92                                                         620   -6.48    4.96  1.0000
  -7   9   2     674     140                                                         915   -6.48    4.96  1.0000
  -5  -9   2     289      71                                                         208    3.95   -1.53  1.0000
  -5  -9   2     282      97                                                         202    3.95   -1.53  1.0000
   5  -9  -2     321      68                                                         235    3.95    1.52  1.0000
   5  -9  -2     396      95                                                         300    3.95    1.52  1.0000
   3  -9  -2     843     117                                                         777    1.75   -0.10  1.0000
   3  -9  -2    1161     119                                                        1083    1.75   -0.10  1.0000
  -3  -9   2    1070     135                                                         995    1.74    0.11  1.0000
  -3  -9   2    1051     113                                                         977    1.74    0.11  1.0000
   3   9  -2    1006     111                                                         934    1.74   -0.11  1.0000
  -3   9   2    1059     130                                                         985    1.75    0.10  1.0000
   1  -9  -2    2233     166                                                        2306   -1.12   -0.03  1.0000
  -1  -9   2    1948     154                                                        2016   -1.11    0.05  1.0000
  -1  -9   2    2477     158                                                        2554   -1.11    0.05  1.0000
   1  -9  -2    2409     167                                                        2485   -1.12   -0.03  1.0000
   1   9  -2    2180     146                                                        2252   -1.11   -0.05  1.0000
  -1   9   2    2334     168                                                        2409   -1.12    0.03  1.0000
  -1  -9  -2    1453     151                                                        1614   -2.67   -1.43  1.0000
   1  -9   2    1841     149                                                        2022   -2.68    1.43  1.0000
   1  -9   2    1595     135                                                        1764   -2.68    1.43  1.0000
  -1  -9  -2    1869     185                                                        2051   -2.67   -1.43  1.0000
   1   9   2    1619     165                                                        1789   -2.67    1.43  1.0000
  -1   9  -2    1397     148                                                        1555   -2.68   -1.43  1.0000
  -3  -9  -2    1250     156                                                        1215    0.72   -0.07  1.0000
   3  -9   2    1165     108                                                        1131    0.73    0.08  1.0000
   3  -9   2    1057     130                                                        1025    0.73    0.08  1.0000
  -3  -9  -2    1069     130                                                        1037    0.72   -0.07  1.0000
  -3   9  -2    1002     125                                                         971    0.73   -0.08  1.0000
   3   9   2    1124     130                                                        1091    0.72    0.07  1.0000
   5  -9   2    1560     161                                                        1509    1.39   -2.20  1.0000
  -5  -9  -2    1868     165                                                        1812    1.38    2.19  1.0000
  -5  -9  -2    1941     197                                                        1884    1.38    2.19  1.0000
  -5   9  -2    1839     174                                                        1784    1.39    2.20  1.0000
   5   9   2    1679     152                                                        1626    1.38   -2.19  1.0000
  -7  -9  -2     866     133                                                        1161   -5.96    3.18  1.0000
   7  -9   2     853     151                                                        1145   -5.97   -3.15  1.0000
  -7  -9  -2     922     168                                                        1226   -5.96    3.18  1.0000
  -7   9  -2     931     154                                                        1236   -5.97    3.15  1.0000
  -9  -9  -2    1457     197                                                        1520   -1.34   -1.53  1.0000
  -9  -9  -2    1597     162                                                        1663   -1.34   -1.53  1.0000
   9  -9   2    1615     185                                                        1682   -1.35    1.51  1.0000
  -9   9  -2    1708     191                                                        1777   -1.35   -1.51  1.0000
   8 -10  -2      24      81                                                         -11    5.04    4.98  1.0000
  -8 -10   2      24      95                                                          -6    5.06   -4.96  1.0000
  -8 -10   2     187      64                                                          77    5.06   -4.96  1.0000
  -8  10   2      24      76                                                         -51    5.04   -4.98  1.0000
   6 -10  -2      11      74                                                          15    0.69    1.02  1.0000
  -6 -10   2      73      63                                                          84    0.65   -1.02  1.0000
  -6 -10   2      10      84                                                          14    0.65   -1.02  1.0000
   6 -10  -2       1      55                                                         -52    0.69    1.02  1.0000
   4 -10  -2       9      66                                                          31   -3.35    3.48  1.0000
   4 -10  -2     104      78                                                         170   -3.35    3.48  1.0000
  -4 -10   2      11      82                                                         -10   -3.32   -3.52  1.0000
  -4 -10   2     122      73                                                         193   -3.32   -3.52  1.0000
  -4  10   2      66      86                                                         119   -3.35   -3.48  1.0000
   2 -10  -2      42      78                                                          95    0.66   -4.76  1.0000
  -2 -10   2      70      81                                                         135    0.70    4.78  1.0000
   2 -10  -2     143      86                                                         231    0.66   -4.76  1.0000
  -2 -10   2      12      64                                                          44    0.70    4.78  1.0000
   2  10  -2      82      76                                                         152    0.70   -4.78  1.0000
  -2  10   2      70      84                                                         135    0.66    4.76  1.0000
   0 -10  -2     283      88                                                         296    0.51   -0.23  1.0000
   0 -10  -2     152      81                                                         161    0.51   -0.23  1.0000
   0 -10   2     212      86                                                         222    0.45    0.32  1.0000
   0 -10   2      91      69                                                          98    0.45    0.32  1.0000
   0  10   2     145      83                                                         154    0.51    0.23  1.0000
  -2 -10  -2     937     163                                                        1333   -4.99   -9.67  1.0000
  -2 -10  -2     881     144                                                        1266   -4.99   -9.67  1.0000
   2 -10   2     559     128                                                         867   -5.00    9.60  1.0000
   2 -10   2     861     129                                                        1241   -5.00    9.60  1.0000
   2  10   2     982     156                                                        1388   -4.99    9.67  1.0000
  -2  10  -2     909     146                                                        1299   -5.00   -9.60  1.0000
   4 -10   2     146      86                                                         232   -3.98   -2.11  1.0000
  -4 -10  -2       3      74                                                          25   -4.02    2.14  1.0000
  -4 -10  -2      10      80                                                         -63   -4.02    2.14  1.0000
   4 -10   2      38      63                                                          87   -3.98   -2.11  1.0000
   4  10   2      61      74                                                         121   -4.02   -2.14  1.0000
  -4  10  -2      10      61                                                         -19   -3.98    2.11  1.0000
  -6 -10  -2    1062     173                                                        1150   -2.11   -1.97  1.0000
  -6 -10  -2     948     137                                                        1031   -2.11   -1.97  1.0000
   6 -10   2    1117     161                                                        1208   -2.13    2.00  1.0000
  -6  10  -2    1188     161                                                        1282   -2.13   -2.00  1.0000
  -8 -10  -2      96     105                                                          90    1.16    0.70  1.0000
  -5 -11   2    1871     215                                                        2016    2.36   -0.17  1.0000
   5 -11  -2    2341     223                                                        2502    2.35    0.17  1.0000
   5 -11  -2    2158     159                                                        2313    2.35    0.17  1.0000
  -5 -11   2    2149     167                                                        2304    2.36   -0.17  1.0000
  -5  11   2    2326     230                                                        2486    2.35   -0.17  1.0000
   3 -11  -2     652     121                                                         588   -1.90   -1.04  1.0000
  -3 -11   2     572     106                                                         512   -1.90    1.04  1.0000
   3 -11  -2     480     100                                                         425   -1.90   -1.04  1.0000
  -3 -11   2     698     129                                                         632   -1.90    1.04  1.0000
  -3  11   2     593     123                                                         532   -1.90    1.04  1.0000
   1 -11  -2    2316     186                                                        1743   -9.14   -1.28  1.0000
   1 -11  -2    2103     168                                                        1559   -9.14   -1.28  1.0000
  -1 -11   2    2633     191                                                        2019   -9.15    1.29  1.0000
  -1 -11   2    2162     165                                                        1609   -9.15    1.29  1.0000
  -1  11   2    1836     166                                                        1330   -9.14    1.28  1.0000
   1 -11   2       3      71                                                           2   -0.55    0.18  1.0000
   1 -11   2      33      73                                                          31   -0.55    0.18  1.0000
  -1 -11  -2     107      87                                                         103   -0.56   -0.19  1.0000
  -1 -11  -2       0      71                                                          -5   -0.56   -0.19  1.0000
   1  11   2       0      76                                                         -55   -0.56    0.19  1.0000
   3 -11   2    1742     194                                                        1952    3.47    0.98  1.0000
  -3 -11  -2    1607     201                                                        1810    3.47   -1.00  1.0000
  -3 -11  -2    1697     186                                                        1905    3.47   -1.00  1.0000
   3 -11   2    1761     159                                                        1973    3.47    0.98  1.0000
   3  11   2    1810     189                                                        2025    3.47    1.00  1.0000
  -3  11  -2    1819     195                                                        2034    3.47   -0.98  1.0000
  -5 -11  -2    1258     196                                                        1490    4.01   -2.44  1.0000
 -17  -1   3    3974     188                                                        3599    2.77   -3.89  1.0000
 -17  -1   3    3876     226                                                        3506    2.77   -3.89  1.0000
 -17   1   3    3795     202                                                        3429   -2.77    3.89  1.0000
 -17   1   3    4019     211                                                        3642   -2.77    3.89  1.0000
 -15  -1   3    1699     124                                                        1378    4.08   -4.32  1.0000
 -15  -1   3    1716     156                                                        1393    4.08   -4.32  1.0000
 -15   1   3    1655     140                                                        1338   -4.07    4.33  1.0000
 -15   1   3    1699     140                                                        1378   -4.07    4.33  1.0000
 -13  -1   3    3220     145                                                        3014    2.05   -2.60  1.0000
 -13  -1   3    3374     187                                                        3163    2.05   -2.60  1.0000
  13  -1  -3    3351     146                                                        3141   -2.05   -2.62  1.0000
 -13   1   3    3503     168                                                        3288   -2.05    2.62  1.0000
 -13   1   3    3677     170                                                        3457   -2.05    2.62  1.0000
  13   1  -3    3461     132                                                        3247    2.05    2.60  1.0000
  11  -1  -3    1855     110                                                        2160    4.39    2.75  1.0000
 -11  -1   3    1735     106                                                        2030   -4.40    2.74  1.0000
 -11  -1   3    1712     144                                                        2006   -4.40    2.74  1.0000
 -11   1   3    1857     121                                                        2162    4.39   -2.75  1.0000
 -11   1   3    1799     127                                                        2099    4.39   -2.75  1.0000
  -9  -1   3    3653      98                                                        2431   15.52   -7.87  1.0000
  -9  -1   3    3453     141                                                        2268   15.52   -7.87  1.0000
   9  -1  -3    3644     107                                                        2425  -15.50   -7.88  1.0000
  -9   1   3    3404     112                                                        2229  -15.50    7.88  1.0000
  -9   1   3    3694     125                                                        2466  -15.50    7.88  1.0000
   7  -1  -3     806      53                                                         470   -8.38   -7.56  1.0000
  -7  -1   3     722      39                                                         405    8.38   -7.53  1.0000
  -7  -1   3     893      43                                                         538    8.38   -7.53  1.0000
  -7  -1   3     773      69                                                         444    8.38   -7.53  1.0000
  -7   1   3     839      57                                                         495   -8.38    7.56  1.0000
  -7   1   3     762      63                                                         436   -8.38    7.56  1.0000
   5  -1  -3     610      59                                                        1031   -5.61  -10.56  1.0000
  -5  -1   3     630      40                                                        1057    5.58  -10.57  1.0000
  -5  -1   3     712      88                                                        1163    5.58  -10.57  1.0000
  -5   1   3     633      65                                                        1062   -5.61   10.56  1.0000
  -3  -1   3     247      50                                                         232    0.78    0.37  1.0000
  -3  -1   3     340      25                                                         323    0.78    0.37  1.0000
   3  -1  -3     328      40                                                         312   -0.75    0.37  1.0000
  -3  -1   3     418      29                                                         399    0.78    0.37  1.0000
  -3   1   3     356      43                                                         339   -0.75   -0.37  1.0000
  -1  -1   3   19244     417                                                       19486   -0.39   -8.21  1.0000
   1  -1  -3   19268     428                                                       19512    0.40   -8.25  1.0000
   1   1  -3   19078     415                                                       19319   -0.39    8.21  1.0000
  -1   1   3   19328     430                                                       19573    0.40    8.25  1.0000
  -1  -1  -3    1341      83                                                        1667    9.50   -6.18  1.0000
   1  -1   3    1434      83                                                        1774   -9.54   -6.20  1.0000
  -1   1  -3    1256      78                                                        1573   -9.54    6.20  1.0000
   1   1   3    1382      83                                                        1714    9.50    6.18  1.0000
  -3  -1  -3     217      63                                                         553   11.78    4.85  1.0000
   3  -1   3     176      60                                                         485  -11.75    4.81  1.0000
   3   1   3     232      66                                                         577   11.78   -4.85  1.0000
  -3   1  -3     367      75                                                         780  -11.75   -4.81  1.0000
  -5  -1  -3    4295     242                                                        7933   34.14   -3.49  1.0000
   5  -1   3    4349     246                                                        8003  -34.10   -3.45  1.0000
  -5   1  -3    4709     250                                                        8489  -34.10    3.45  1.0000
   5   1   3    4285     242                                                        7919   34.14    3.49  1.0000
   7  -1   3    7132     270                                                        8314   -9.56   -1.62  1.0000
  -7  -1  -3    7213     267                                                        8397    9.52   -1.62  1.0000
   7   1   3    7430     266                                                        8631    9.52    1.62  1.0000
  -7   1  -3    7316     273                                                        8512   -9.56    1.62  1.0000
   9  -1   3    8499     325                                                        9901  -10.05   -5.05  1.0000
  -9  -1  -3    8976     323                                                       10416   10.06   -5.01  1.0000
  -9  -1  -3    8884     325                                                       10317   10.06   -5.01  1.0000
  -9   1  -3    8962     296                                                       10401  -10.05    5.05  1.0000
   9   1   3    8769     318                                                       10193   10.06    5.01  1.0000
  -9   1  -3    8931     332                                                       10368  -10.05    5.05  1.0000
 -11  -1  -3    1647     147                                                        1655    0.25    1.26  1.0000
 -11  -1  -3    1033     125                                                        1039    0.25    1.26  1.0000
  11  -1   3    1605     145                                                        1611   -0.22    1.30  1.0000
 -11   1  -3    1508     116                                                        1513   -0.22   -1.30  1.0000
  11   1   3    1452     136                                                        1459    0.25   -1.26  1.0000
 -11   1  -3    1549     148                                                        1555   -0.22   -1.30  1.0000
 -13  -1  -3     175      83                                                         218    2.32   -4.72  1.0000
  13  -1   3     330      93                                                         393   -2.35   -4.69  1.0000
 -13  -1  -3     325      97                                                         386    2.32   -4.72  1.0000
  13   1   3     385      95                                                         453    2.32    4.72  1.0000
 -13   1  -3     334      85                                                         397   -2.35    4.69  1.0000
 -13   1  -3     180      81                                                         224   -2.35    4.69  1.0000
  15  -1   3     466     114                                                         518   -1.47   -1.29  1.0000
 -15  -1  -3     678     127                                                         740    1.47   -1.24  1.0000
 -15  -1  -3     485     118                                                         538    1.47   -1.24  1.0000
 -15   1  -3     581     124                                                         639   -1.47    1.29  1.0000
 -15   1  -3     528     109                                                         583   -1.47    1.29  1.0000
  15   1   3     534     127                                                         589    1.47    1.24  1.0000
 -16  -2   3    2124     183                                                        1671   -6.47    3.84  1.0000
 -16  -2   3    2105     139                                                        1654   -6.47    3.84  1.0000
 -16   2   3    2707     158                                                        2192    6.50   -3.79  1.0000
 -16   2   3    2298     149                                                        1826    6.50   -3.79  1.0000
 -14  -2   3    4080     233                                                        4411    3.46   -1.33  1.0000
  14  -2  -3    3816     185                                                        4139   -3.48   -1.35  1.0000
 -14  -2   3    4044     177                                                        4373    3.46   -1.33  1.0000
 -14   2   3    4110     190                                                        4445   -3.48    1.35  1.0000
 -14   2   3    4033     201                                                        4365   -3.48    1.35  1.0000
  12  -2  -3    2255     121                                                        2131    1.95   -0.43  1.0000
 -12  -2   3    2212     161                                                        2090   -1.94   -0.51  1.0000
 -12  -2   3    2201     107                                                        2079   -1.94   -0.51  1.0000
 -12   2   3    2319     135                                                        2193    1.95    0.43  1.0000
 -12   2   3    2176     126                                                        2054    1.95    0.43  1.0000
 -10  -2   3     183      43                                                         254    5.04    2.56  1.0000
  10  -2  -3     252      59                                                         335   -4.98    2.50  1.0000
 -10  -2   3     126      40                                                         185    5.04    2.56  1.0000
 -10  -2   3     213      78                                                         290    5.04    2.56  1.0000
 -10   2   3      94      54                                                         143   -4.98   -2.50  1.0000
 -10   2   3     216      62                                                         293   -4.98   -2.50  1.0000
  -8  -2   3    8907      97                                                        3119  -53.50   14.83  1.0000
   8  -2  -3    9270     131                                                        3339   53.47   14.79  1.0000
  -8  -2   3    8700     157                                                        2997  -53.50   14.83  1.0000
  -8  -2   3    8822      93                                                        3069  -53.50   14.83  1.0000
  -8   2   3    8901     138                                                        3119   53.47  -14.79  1.0000
  -6  -2   3     663      66                                                         273  -19.13    3.37  1.0000
   6  -2  -3     738      49                                                         327   19.11    3.43  1.0000
  -6   2   3     736      53                                                         325   19.11   -3.43  1.0000
  -4  -2   3       3      42                                                           2    1.36    1.28  1.0000
   4  -2  -3      72      32                                                          76   -1.31    1.28  1.0000
  -4   2   3      70      34                                                          74   -1.31   -1.28  1.0000
  -2  -2   3   40423    1566                                                       74430  103.38   -2.44  1.0000
   2  -2  -3   39030    1508                                                       72549 -103.42   -2.50  1.0000
  -2  -2   3   40942    1481                                                       75134  103.38   -2.44  1.0000
  -2   2   3   40565    1515                                                       74636 -103.42    2.50  1.0000
   0  -2  -3    7780     219                                                        8181   -3.21    0.91  1.0000
   0  -2   3    7767     211                                                        8166    3.21    0.87  1.0000
   0  -2   3    7802     221                                                        8202    3.21    0.87  1.0000
   0   2   3    7782     222                                                        8183   -3.21   -0.91  1.0000
   0   2  -3    7970     211                                                        8374    3.21   -0.87  1.0000
  -2  -2  -3      83      44                                                         190  -20.41    0.27  1.0000
   2  -2   3      85      44                                                         203   20.45    0.26  1.0000
   2   2   3      82      47                                                         186  -20.41   -0.27  1.0000
  -2   2  -3      81      44                                                         181   20.45   -0.26  1.0000
   4  -2   3   11230     345                                                       13183   10.35   -8.60  1.0000
  -4  -2  -3   10887     335                                                       12816  -10.36   -8.66  1.0000
   4   2   3   10886     336                                                       12814  -10.36    8.66  1.0000
  -4   2  -3   10885     340                                                       12809   10.35    8.60  1.0000
   6  -2   3    8467     403                                                       14900   44.11    3.35  1.0000
  -6  -2  -3    8329     393                                                       14718  -44.11    3.38  1.0000
   6   2   3    8796     394                                                       15337  -44.11   -3.38  1.0000
  -6   2  -3    8400     401                                                       14810   44.11   -3.35  1.0000
  -8  -2  -3     312      74                                                         365   -8.75   -5.44  1.0000
   8  -2   3     551      89                                                         639    8.78   -5.45  1.0000
   8   2   3     412      79                                                         481   -8.75    5.44  1.0000
  -8   2  -3     483      88                                                         562    8.78    5.45  1.0000
 -10  -2  -3      26      56                                                          78   -7.04    3.65  1.0000
 -10  -2  -3      40      73                                                         105   -7.04    3.65  1.0000
  10  -2   3     100      69                                                         202    7.05    3.68  1.0000
 -10   2  -3      19      60                                                          62    7.05   -3.68  1.0000
  10   2   3      11      56                                                          36   -7.04   -3.65  1.0000
 -10   2  -3      47      48                                                         118    7.05   -3.68  1.0000
  12  -2   3     556     110                                                         603    1.76    0.70  1.0000
 -12  -2  -3     617     109                                                         667   -1.78    0.71  1.0000
 -12  -2  -3     597     113                                                         646   -1.78    0.71  1.0000
 -12   2  -3     570      83                                                         617    1.76   -0.70  1.0000
  12   2   3     633     102                                                         683   -1.78   -0.71  1.0000
 -12   2  -3     515     103                                                         560    1.76   -0.70  1.0000
 -14  -2  -3     824     134                                                        1018   -4.77   -0.68  1.0000
  14  -2   3     903     145                                                        1106    4.78   -0.68  1.0000
 -14  -2  -3     793     146                                                         983   -4.77   -0.68  1.0000
  14   2   3     823     134                                                        1017   -4.77    0.68  1.0000
 -14   2  -3     783     142                                                         973    4.78    0.68  1.0000
 -14   2  -3    1039     116                                                        1256    4.78    0.68  1.0000
 -17  -3   3      42      98                                                          39    0.50   -0.45  1.0000
 -17  -3   3       0      62                                                         -15    0.50   -0.45  1.0000
 -17   3   3      23      73                                                          21   -0.50    0.45  1.0000
 -15  -3   3     839     145                                                         941    2.61   -0.59  1.0000
 -15  -3   3    1150     109                                                        1269    2.61   -0.59  1.0000
  15  -3  -3    1158     130                                                        1277   -2.60   -0.57  1.0000
 -15   3   3     811     127                                                         911   -2.60    0.57  1.0000
 -13  -3   3      45      47                                                          99   -3.82    3.68  1.0000
  13  -3  -3      13      50                                                         -30    3.83    3.63  1.0000
 -13  -3   3      14      74                                                          -3   -3.82    3.68  1.0000
 -13   3   3      13      56                                                         -56    3.83   -3.63  1.0000
 -11  -3   3      25      31                                                         -19   -6.50    3.22  1.0000
 -11  -3   3       8      68                                                          41   -6.50    3.22  1.0000
  11  -3  -3      25      41                                                         -24    6.50    3.23  1.0000
 -11  -3   3      25      32                                                          -2   -6.50    3.22  1.0000
 -11   3   3       6      54                                                          30    6.50   -3.23  1.0000
  -9  -3   3    1920      93                                                        2740   12.70   -4.52  1.0000
  -9  -3   3    1874     165                                                        2685   12.70   -4.52  1.0000
   9  -3  -3    1918     134                                                        2736  -12.68   -4.51  1.0000
  -9  -3   3    1903      91                                                        2720   12.70   -4.52  1.0000
  -9   3   3    1781     139                                                        2572  -12.68    4.51  1.0000
   7  -3  -3    1002      47                                                         139  -43.66  -15.66  1.0000
  -7  -3   3     996      58                                                          13   43.71  -15.63  1.0000
  -7   3   3    1013      52                                                         167  -43.66   15.66  1.0000
   5  -3  -3     402      84                                                         964  -18.11   -8.51  1.0000
  -5  -3   3     362      96                                                         898   18.09   -8.50  1.0000
  -5   3   3     328      81                                                         840  -18.11    8.51  1.0000
  -3  -3   3    2102     175                                                        7113  -61.83   -3.30  1.0000
  -3  -3   3    2163     229                                                        7232  -61.83   -3.30  1.0000
   3  -3  -3    2171     212                                                        7249   61.86   -3.27  1.0000
  -3   3   3    1955     211                                                        6830   61.86    3.27  1.0000
  -1  -3   3    2133      94                                                        1650   -8.44    3.68  1.0000
  -1  -3   3    1927      75                                                        1469   -8.44    3.68  1.0000
   1  -3  -3    1931      85                                                        1472    8.45    3.64  1.0000
  -1   3   3    2050      93                                                        1576    8.45   -3.64  1.0000
   1   3  -3    2032      73                                                        1561   -8.44   -3.68  1.0000
   1  -3   3     933     109                                                        2744   32.46    1.70  1.0000
   1  -3   3    1021     116                                                        2894   32.46    1.70  1.0000
  -1  -3  -3    1000     121                                                        2862  -32.50    1.71  1.0000
  -1   3  -3     906     112                                                        2696   32.46   -1.70  1.0000
   1   3   3     920     120                                                        2723  -32.50   -1.71  1.0000
  -3  -3  -3    2521      97                                                        1686  -16.75    1.49  1.0000
   3  -3   3    2444      99                                                        1620   16.78    1.45  1.0000
   3   3   3    2344      95                                                        1540  -16.75   -1.49  1.0000
  -3   3  -3    2476      99                                                        1646   16.78   -1.45  1.0000
  -5  -3  -3    2794     113                                                        1861   13.99   -2.42  1.0000
   5  -3   3    2680     111                                                        1770  -13.97   -2.36  1.0000
   5   3   3    2536     107                                                        1652   13.99    2.42  1.0000
  -5   3  -3    2719     113                                                        1802  -13.97    2.36  1.0000
   7  -3   3      70      54                                                          99  -15.26    2.71  1.0000
  -7  -3  -3      63      46                                                          53   15.23    2.69  1.0000
  -7   3  -3      66      49                                                          31  -15.26   -2.71  1.0000
   7   3   3     115      45                                                          -5   15.23   -2.69  1.0000
   9  -3   3     802     122                                                        1076    5.15    7.70  1.0000
  -9  -3  -3     748     111                                                        1012   -5.13    7.76  1.0000
  -9  -3  -3     733     124                                                         995   -5.13    7.76  1.0000
  -9   3  -3     714     118                                                         973    5.15   -7.70  1.0000
   9   3   3     900     116                                                        1190   -5.13   -7.76  1.0000
  11  -3   3     153      76                                                         182   -0.21   -2.81  1.0000
 -11  -3  -3     123      70                                                         149    0.25   -2.86  1.0000
 -11  -3  -3     194      85                                                         227    0.25   -2.86  1.0000
 -11   3  -3     180      79                                                         212   -0.21    2.81  1.0000
  11   3   3     185      71                                                         217    0.25    2.86  1.0000
 -13  -3  -3       1      66                                                           0   -0.58    1.31  1.0000
  13  -3   3      79      71                                                          80    0.56    1.33  1.0000
 -13  -3  -3       1      74                                                         -30   -0.58    1.31  1.0000
  13   3   3       1      58                                                         -24   -0.58   -1.31  1.0000
 -13   3  -3      87      79                                                          88    0.56   -1.33  1.0000
  15  -3   3     279     102                                                         294   -0.21    1.25  1.0000
 -15  -3  -3     200     114                                                         213    0.22    1.27  1.0000
 -15  -3  -3     297     101                                                         313    0.22    1.27  1.0000
 -15   3  -3     276     103                                                         291   -0.21   -1.25  1.0000
 -16  -4   3     289     130                                                         404    5.03   -0.50  1.0000
 -16  -4   3     557      92                                                         714    5.03   -0.50  1.0000
 -16   4   3     322     110                                                         443   -4.99    0.55  1.0000
 -14  -4   3    2526     136                                                        2754   -3.14    0.64  1.0000
  14  -4  -3    2793     176                                                        3030    3.11    0.64  1.0000
 -14  -4   3    2558     215                                                        2787   -3.14    0.64  1.0000
 -14   4   3    2928     191                                                        3171    3.11   -0.64  1.0000
  12  -4  -3    3986     156                                                        2612  -17.14   -4.15  1.0000
 -12  -4   3    4003     113                                                        2624   17.17   -4.15  1.0000
 -12  -4   3    3923     190                                                        2560   17.17   -4.15  1.0000
 -12   4   3    4377     171                                                        2931  -17.14    4.15  1.0000
 -10  -4   3    1694      86                                                        2035   -8.57   -2.63  1.0000
 -10  -4   3    1555      83                                                        1881   -8.57   -2.63  1.0000
  10  -4  -3    1368     121                                                        1675    8.61   -2.65  1.0000
 -10  -4   3    1658     172                                                        1995   -8.57   -2.63  1.0000
 -10   4   3    1682     136                                                        2023    8.61    2.65  1.0000
  -8  -4   3     102      25                                                          44    4.69   -2.31  1.0000
   8  -4  -3     122      48                                                          57   -4.73   -2.37  1.0000
  -8  -4   3      13      54                                                         -19    4.69   -2.31  1.0000
  -8  -4   3     103      28                                                          45    4.69   -2.31  1.0000
  -8   4   3     102      48                                                          44   -4.73    2.37  1.0000
   6  -4  -3   18971     605                                                       25103   28.95    7.52  1.0000
  -6  -4   3   18938     645                                                       25061  -28.95    7.44  1.0000
  -6  -4   3   19613     536                                                       25836  -28.95    7.44  1.0000
  -6   4   3   19581     615                                                       25804   28.95   -7.52  1.0000
  -4  -4   3   62439     902                                                       44442   54.18  -17.69  1.0000
  -4  -4   3   60960     996                                                       43195   54.18  -17.69  1.0000
   4  -4  -3   61340     955                                                       43523  -54.15  -17.71  1.0000
  -2  -4   3      81      63                                                         330  -19.23    6.54  1.0000
   2  -4  -3      75      59                                                         309   19.21    6.51  1.0000
  -2  -4   3      61      42                                                         260  -19.23    6.54  1.0000
   2   4  -3      88      45                                                         352  -19.23   -6.54  1.0000
  -2   4   3      88      59                                                         349   19.21   -6.51  1.0000
   0  -4  -3    2772     143                                                        3533    9.73    1.42  1.0000
   0  -4   3    2487     133                                                        3211   -9.75    1.38  1.0000
   0  -4   3    2641     130                                                        3386   -9.75    1.38  1.0000
   0   4  -3    2593     126                                                        3331   -9.75   -1.38  1.0000
   0   4   3    2546     141                                                        3277    9.73   -1.42  1.0000
   2  -4   3    1219     169                                                        4494  -46.09   -4.29  1.0000
  -2  -4  -3    1090     166                                                        4244   46.12   -4.29  1.0000
   2  -4   3    1251     148                                                        4554  -46.09   -4.29  1.0000
   2   4   3    1268     170                                                        4590   46.12    4.29  1.0000
  -2   4  -3    1458     172                                                        4943  -46.09    4.29  1.0000
  -4  -4  -3    7409     217                                                        6320   -9.48    1.69  1.0000
   4  -4   3    7737     229                                                        6624    9.47    1.73  1.0000
  -4   4  -3    7525     223                                                        6428    9.47   -1.73  1.0000
   4   4   3    7560     218                                                        6459   -9.48   -1.69  1.0000
  -6  -4  -3     151      65                                                         257    6.51    2.68  1.0000
   6  -4   3     351      85                                                         511   -6.54    2.65  1.0000
   6   4   3     199      67                                                         320    6.51   -2.68  1.0000
  -6   4  -3     208      74                                                         333   -6.54   -2.65  1.0000
  -8  -4  -3    1916     133                                                        2047    2.27    0.43  1.0000
  -8  -4  -3    1554     155                                                        1672    2.27    0.43  1.0000
   8  -4   3    1635     133                                                        1754   -2.24    0.43  1.0000
  -8   4  -3    1623     153                                                        1742   -2.24   -0.43  1.0000
   8   4   3    1696     124                                                        1820    2.27   -0.43  1.0000
 -10  -4  -3    6163     284                                                        7666   12.21   -5.46  1.0000
 -10  -4  -3    6834     328                                                        8413   12.21   -5.46  1.0000
  10  -4   3    5948     297                                                        7426  -12.22   -5.43  1.0000
  10   4   3    6845     286                                                        8425   12.21    5.46  1.0000
 -10   4  -3    6694     313                                                        8258  -12.22    5.43  1.0000
 -12  -4  -3     485     105                                                         515    1.01   -0.33  1.0000
 -12  -4  -3     781     137                                                         819    1.01   -0.33  1.0000
  12  -4   3     769     128                                                         807   -1.01   -0.35  1.0000
 -12   4  -3     666     120                                                         701   -1.01    0.35  1.0000
  12   4   3     745     112                                                         782    1.01    0.33  1.0000
 -14  -4  -3    1357     161                                                        1505    2.80    0.72  1.0000
  14  -4   3    1828     194                                                        1998   -2.78    0.71  1.0000
 -14  -4  -3    1771     204                                                        1940    2.80    0.72  1.0000
 -14   4  -3    1656     192                                                        1818   -2.78   -0.71  1.0000
 -15  -5   3    1110      98                                                         948   -3.83    0.52  1.0000
  15  -5  -3     702     115                                                         574    3.83    0.52  1.0000
 -15  -5   3     862     149                                                         720   -3.83    0.52  1.0000
 -15   5   3     806     124                                                         668    3.83   -0.52  1.0000
  13  -5  -3     374      76                                                         215    6.12    2.94  1.0000
 -13  -5   3     482      59                                                         299   -6.12    2.94  1.0000
 -13  -5   3     168      89                                                          69   -6.12    2.94  1.0000
 -13   5   3     448      90                                                         272    6.12   -2.94  1.0000
 -11  -5   3     178      43                                                         149   -2.14    2.56  1.0000
  11  -5  -3     182      66                                                         153    2.12    2.56  1.0000
 -11  -5   3     180      47                                                         151   -2.14    2.56  1.0000
 -11  -5   3     101      83                                                          79   -2.14    2.56  1.0000
 -11   5   3     160      64                                                         133    2.12   -2.56  1.0000
  -9  -5   3     436      50                                                         419    0.27    3.96  1.0000
  -9  -5   3     374      94                                                         358    0.27    3.96  1.0000
  -9  -5   3     463      52                                                         446    0.27    3.96  1.0000
   9  -5  -3     677      96                                                         658   -0.26    3.99  1.0000
  -9   5   3     468      86                                                         451   -0.26   -3.99  1.0000
  -7  -5   3    4843     149                                                        5111    2.09   -2.13  1.0000
  -7  -5   3    4564     229                                                        4824    2.09   -2.13  1.0000
   7  -5  -3    5049     210                                                        5324   -2.10   -2.13  1.0000
  -7   5   3    4688     210                                                        4953   -2.10    2.13  1.0000
  -5  -5   3    2753      72                                                        1209  -22.17   18.21  1.0000
   5  -5  -3    2749     112                                                        1207   22.14   18.25  1.0000
  -5  -5   3    3089     134                                                        1440  -22.17   18.21  1.0000
  -5   5   3    2703     114                                                        1176   22.14  -18.25  1.0000
  -3  -5   3    6297     225                                                        6159   -3.00    6.87  1.0000
   3  -5  -3    5727     205                                                        5592    3.02    6.91  1.0000
  -3  -5   3    5832     177                                                        5698   -3.00    6.87  1.0000
  -3   5   3    5804     211                                                        5668    3.02   -6.91  1.0000
  -1  -5   3    1440     109                                                        1617    2.46   -2.76  1.0000
  -1  -5   3    1437      97                                                        1614    2.46   -2.76  1.0000
   1  -5  -3    1560     110                                                        1745   -2.44   -2.81  1.0000
   1   5  -3    1352      90                                                        1524    2.46    2.76  1.0000
  -1   5   3    1407     112                                                        1582   -2.44    2.81  1.0000
  -1  -5  -3     159      44                                                          29  -24.37    2.47  1.0000
   1  -5   3     288      36                                                         -17   24.32    2.50  1.0000
   1  -5   3     166      41                                                          25   24.32    2.50  1.0000
   1   5   3     289      39                                                         -11  -24.37   -2.47  1.0000
  -1   5  -3     288      36                                                          -1   24.32   -2.50  1.0000
   3  -5   3     117      46                                                          51   25.81    0.80  1.0000
  -3  -5  -3     112      46                                                          54  -25.78    0.85  1.0000
  -3   5  -3     321      41                                                          -9   25.81   -0.80  1.0000
   3   5   3     131      48                                                          42  -25.78   -0.85  1.0000
   5  -5   3    2003     160                                                        2989   14.30    0.26  1.0000
  -5  -5  -3    2141     155                                                        3157  -14.28    0.20  1.0000
   5   5   3    2187     154                                                        3212  -14.28   -0.20  1.0000
  -5   5  -3    2197     163                                                        3225   14.30   -0.26  1.0000
  -7  -5  -3    1017     152                                                        1469  -10.00   -0.95  1.0000
   7  -5   3     996     137                                                        1441    9.95   -0.94  1.0000
  -7  -5  -3     820     121                                                        1229  -10.00   -0.95  1.0000
   7   5   3     870     122                                                        1290  -10.00    0.95  1.0000
  -7   5  -3    1147     147                                                        1622    9.95    0.94  1.0000
  -9  -5  -3    2402     164                                                        2865   -6.47    0.95  1.0000
   9  -5   3    2547     179                                                        3024    6.48    0.89  1.0000
  -9  -5  -3    2489     203                                                        2960   -6.47    0.95  1.0000
   9   5   3    2717     169                                                        3208   -6.47   -0.95  1.0000
  -9   5  -3    2760     186                                                        3256    6.48   -0.89  1.0000
  11  -5   3    2554     193                                                        2903    4.69    5.07  1.0000
 -11  -5  -3    2489     212                                                        2831   -4.66    5.03  1.0000
 -11  -5  -3    2564     179                                                        2911   -4.66    5.03  1.0000
 -11   5  -3    2573     196                                                        2923    4.69   -5.07  1.0000
  11   5   3    2659     175                                                        3013   -4.66   -5.03  1.0000
 -13  -5  -3     564     114                                                         556    0.99    1.83  1.0000
  13  -5   3     684     130                                                         675   -1.02    1.86  1.0000
 -13  -5  -3     726     143                                                         717    0.99    1.83  1.0000
 -13   5  -3     753     136                                                         743   -1.02   -1.86  1.0000
  14  -6  -3     445     110                                                         530   -2.92    0.17  1.0000
 -14  -6   3     398      75                                                         478    2.89    0.17  1.0000
 -14  -6   3     332     123                                                         406    2.89    0.17  1.0000
 -14   6   3     325     105                                                         398   -2.92   -0.17  1.0000
 -12  -6   3      37      88                                                          58   -5.76   -0.92  1.0000
  12  -6  -3      16      58                                                         -18    5.76   -0.87  1.0000
 -12  -6   3      27      46                                                          43   -5.76   -0.92  1.0000
 -12   6   3      24      68                                                          38    5.76    0.87  1.0000
  10  -6  -3     744     122                                                         907   -4.35   -1.97  1.0000
 -10  -6   3     491     127                                                         624    4.38   -1.93  1.0000
 -10  -6   3     835      74                                                        1007    4.38   -1.93  1.0000
 -10   6   3     590     117                                                         736   -4.35    1.97  1.0000
   8  -6  -3    2712     166                                                        2810   -1.84    0.84  1.0000
  -8  -6   3    2948     195                                                        3048    1.81    0.84  1.0000
  -8  -6   3    2576     113                                                        2670    1.81    0.84  1.0000
  -8   6   3    2489     162                                                        2582   -1.84   -0.84  1.0000
  -6  -6   3    1964     223                                                        4439   29.13  -13.82  1.0000
   6  -6  -3    2041     206                                                        4554  -29.14  -13.76  1.0000
  -6  -6   3    2191     160                                                        4777   29.13  -13.82  1.0000
  -6   6   3    2346     215                                                        5005  -29.14   13.76  1.0000
  -4  -6   3    1227      74                                                         708  -12.37    7.65  1.0000
   4  -6  -3    1428     104                                                         863   12.42    7.66  1.0000
  -4  -6   3    1227     104                                                         708  -12.37    7.65  1.0000
   4   6  -3    1317      72                                                         778  -12.37   -7.65  1.0000
  -2  -6   3     200      56                                                         288    5.42   -0.95  1.0000
   2  -6  -3      93      57                                                         153   -5.47   -0.99  1.0000
  -2  -6   3     108      66                                                         173    5.42   -0.95  1.0000
  -2   6   3     191      71                                                         277   -5.47    0.99  1.0000
   2   6  -3     165      52                                                         245    5.42    0.95  1.0000
   0  -6  -3    6152     187                                                        4478   16.23    4.66  1.0000
   0  -6   3    6508     182                                                        4782  -16.24    4.58  1.0000
   0  -6   3    5952     178                                                        4307  -16.24    4.58  1.0000
   0   6   3    6479     197                                                        4758   16.23   -4.66  1.0000
   0   6  -3    6341     177                                                        4639  -16.24   -4.58  1.0000
  -2  -6  -3     106      45                                                          46    5.25   -0.39  1.0000
   2  -6   3     206      49                                                         119   -5.22   -0.38  1.0000
   2  -6   3     259      57                                                         160   -5.22   -0.38  1.0000
  -2   6  -3     150      49                                                          77   -5.22    0.38  1.0000
   2   6   3     237      55                                                         142    5.25    0.39  1.0000
   4  -6   3     252      69                                                         263  -21.44   -0.75  1.0000
  -4  -6  -3     247      64                                                         253   21.40   -0.79  1.0000
  -4   6  -3     232      65                                                         226  -21.44    0.75  1.0000
   4   6   3     201      62                                                         162   21.40    0.79  1.0000
  -6  -6  -3    1268     111                                                        1041    4.91    1.06  1.0000
  -6  -6  -3    1200     133                                                         979    4.91    1.06  1.0000
   6  -6   3    1323     126                                                        1090   -4.92    1.04  1.0000
   6   6   3    1175     104                                                         957    4.91   -1.06  1.0000
  -6   6  -3    1269     117                                                        1041   -4.92   -1.04  1.0000
   8  -6   3      38      54                                                          16   -4.26   -0.15  1.0000
  -8  -6  -3      89      59                                                          56    4.28   -0.15  1.0000
  -8  -6  -3       9      63                                                         -82    4.28   -0.15  1.0000
  -8   6  -3       9      54                                                         -68   -4.26    0.15  1.0000
   8   6   3     112      59                                                          75    4.28    0.15  1.0000
  10  -6   3     116      76                                                         105    0.08   -0.94  1.0000
 -10  -6  -3     110      67                                                          99   -0.09   -0.96  1.0000
 -10  -6  -3     244     102                                                         227   -0.09   -0.96  1.0000
  10   6   3     103      68                                                          92   -0.09    0.96  1.0000
 -10   6  -3     170      87                                                         156    0.08    0.94  1.0000
 -12  -6  -3       4      67                                                         -23    2.49    1.57  1.0000
  12  -6   3     223      85                                                         167   -2.51    1.54  1.0000
 -12  -6  -3      95      87                                                          60    2.49    1.57  1.0000
 -12   6  -3     131      87                                                          89   -2.51   -1.54  1.0000
  13  -7  -3    3811     219                                                        3426   -3.01   -4.77  1.0000
 -13  -7   3    4026     155                                                        3630    3.02   -4.74  1.0000
 -13  -7   3    4033     258                                                        3637    3.02   -4.74  1.0000
 -13   7   3    3635     221                                                        3259   -3.01    4.77  1.0000
  11  -7  -3    1268     141                                                        1045   -3.00   -4.04  1.0000
 -11  -7   3    1223      92                                                        1005    2.98   -4.05  1.0000
 -11  -7   3    1501     164                                                        1259    2.98   -4.05  1.0000
 -11   7   3     973     130                                                         779   -3.00    4.04  1.0000
  -9  -7   3    1354      97                                                        1601   -4.03   -3.43  1.0000
  -9  -7   3    1347     177                                                        1593   -4.03   -3.43  1.0000
   9  -7  -3    1272     156                                                        1511    4.03   -3.39  1.0000
  -9   7   3    1396     166                                                        1647    4.03    3.39  1.0000
  -7  -7   3     421      77                                                         698  -21.56   11.89  1.0000
   7  -7  -3     532     117                                                         880   21.57   11.85  1.0000
  -7  -7   3     507     126                                                         839  -21.56   11.89  1.0000
  -7   7   3     452     110                                                         752   21.57  -11.85  1.0000
   5  -7  -3    1932     146                                                        2226    4.24    1.92  1.0000
  -5  -7   3    1849     114                                                        2139   -4.27    1.91  1.0000
  -5  -7   3    1928     167                                                        2224   -4.27    1.91  1.0000
   5   7  -3    1977     113                                                        2276   -4.27   -1.91  1.0000
  -3  -7   3    1784     122                                                        1066   13.84   -2.09  1.0000
   3  -7  -3    1661     114                                                         972  -13.81   -2.04  1.0000
  -3  -7   3    1644      95                                                         958   13.84   -2.09  1.0000
   3   7  -3    1706      92                                                        1006   13.84    2.09  1.0000
  -3   7   3    1714     119                                                        1013  -13.81    2.04  1.0000
  -1  -7   3    1314     121                                                        1187    4.55    1.62  1.0000
   1  -7  -3    1407     125                                                        1275   -4.53    1.58  1.0000
  -1  -7   3    1380     111                                                        1250    4.55    1.62  1.0000
  -1   7   3    1271     120                                                        1146   -4.53   -1.58  1.0000
   1   7  -3    1547     116                                                        1410    4.55   -1.62  1.0000
  -1  -7  -3    3621     204                                                        4677   10.80   -7.92  1.0000
   1  -7   3    3411     183                                                        4440  -10.84   -7.92  1.0000
   1  -7   3    3555     196                                                        4605  -10.84   -7.92  1.0000
  -1   7  -3    3385     188                                                        4411  -10.84    7.92  1.0000
   1   7   3    3560     207                                                        4607   10.80    7.92  1.0000
  -3  -7  -3    3683     212                                                        5108   15.57    0.12  1.0000
   3  -7   3    3415     174                                                        4789  -15.55    0.09  1.0000
  -3  -7  -3    3520     234                                                        4916   15.57    0.12  1.0000
   3  -7   3    3681     218                                                        5103  -15.55    0.09  1.0000
   3   7   3    3349     205                                                        4713   15.57   -0.12  1.0000
  -3   7  -3    2997     199                                                        4291  -15.55   -0.09  1.0000
   5  -7   3    1707     145                                                        1429    5.38   -1.61  1.0000
  -5  -7  -3    1986     142                                                        1687   -5.36   -1.62  1.0000
  -5  -7  -3    1744     161                                                        1464   -5.36   -1.62  1.0000
  -5   7  -3    1881     151                                                        1589    5.38    1.61  1.0000
   5   7   3    1661     135                                                        1388   -5.36    1.62  1.0000
  -7  -7  -3    3409     177                                                        3246   -1.94   -1.26  1.0000
   7  -7   3    3259     185                                                        3103    1.89   -1.27  1.0000
  -7  -7  -3    3719     225                                                        3548   -1.94   -1.26  1.0000
  -7   7  -3    2592     173                                                        2453    1.89    1.27  1.0000
   7   7   3    3136     170                                                        2979   -1.94    1.26  1.0000
  -9  -7  -3    2641     225                                                        3039    5.34    0.74  1.0000
   9  -7   3    2628     198                                                        3024   -5.34    0.69  1.0000
  -9  -7  -3    2411     178                                                        2792    5.34    0.74  1.0000
  -9   7  -3    2278     189                                                        2648   -5.34   -0.69  1.0000
   9   7   3    2538     170                                                        2929    5.34   -0.74  1.0000
  11  -7   3      49      80                                                          63   -2.34    0.76  1.0000
 -11  -7  -3      14      71                                                          21    2.37    0.75  1.0000
 -11  -7  -3     103     101                                                         124    2.37    0.75  1.0000
 -11   7  -3      39      77                                                          51   -2.34   -0.76  1.0000
 -12  -8   3     682      80                                                         529   -4.48    0.77  1.0000
 -12  -8   3     677     140                                                         525   -4.48    0.77  1.0000
  12  -8  -3     685     123                                                         531    4.49    0.82  1.0000
 -12   8   3     395     109                                                         280    4.49   -0.82  1.0000
 -10  -8   3       2      45                                                         -69   -1.46    1.26  1.0000
  10  -8  -3       2      59                                                         -82    1.49    1.24  1.0000
 -10  -8   3       2      84                                                        -100   -1.46    1.26  1.0000
 -10   8   3       2      69                                                         -38    1.49   -1.24  1.0000
   8  -8  -3      50      70                                                           7   -3.87   -5.42  1.0000
  -8  -8   3     241      88                                                         127    3.83   -5.42  1.0000
  -8  -8   3      38      46                                                           3    3.83   -5.42  1.0000
  -8   8   3      21      61                                                         -19   -3.87    5.42  1.0000
  -6  -8   3     361     108                                                         424    1.95   -1.52  1.0000
   6  -8  -3     385      97                                                         450   -1.95   -1.47  1.0000
  -6  -8   3     341      75                                                         403    1.95   -1.52  1.0000
  -4  -8   3      43      71                                                          57   -7.54   -3.48  1.0000
  -4  -8   3      50      48                                                          67   -7.54   -3.48  1.0000
   4  -8  -3      24      55                                                          14    7.57   -3.49  1.0000
  -4   8   3      33      58                                                          -6    7.57    3.49  1.0000
   4   8  -3      24      43                                                          16   -7.54    3.48  1.0000
   2  -8  -3    2108     159                                                        1770    4.26    5.38  1.0000
  -2  -8   3    1814     130                                                        1501   -4.27    5.39  1.0000
  -2  -8   3    1889     148                                                        1569   -4.27    5.39  1.0000
  -2   8   3    1576     139                                                        1285    4.26   -5.38  1.0000
   0  -8   3     104      76                                                         353   13.57    4.33  1.0000
   0  -8  -3     117      86                                                         379  -13.58    4.36  1.0000
   0  -8   3     115      77                                                         375   13.57    4.33  1.0000
   0  -8  -3      43      73                                                         218  -13.58    4.36  1.0000
   0   8  -3      86      72                                                         318   13.57   -4.33  1.0000
   0   8   3     130      93                                                         403  -13.58   -4.36  1.0000
  -2  -8  -3     850     155                                                        1448  -12.36    5.44  1.0000
   2  -8   3    1096     131                                                        1768   12.39    5.44  1.0000
  -2  -8  -3    1127     158                                                        1805  -12.36    5.44  1.0000
   2  -8   3    1058     119                                                        1719   12.39    5.44  1.0000
   2   8   3    1233     164                                                        1939  -12.36   -5.44  1.0000
  -2   8  -3    1085     130                                                        1753   12.39   -5.44  1.0000
   4  -8   3      18      41                                                         -68    5.91    1.32  1.0000
  -4  -8  -3      18      73                                                         -13   -5.91    1.31  1.0000
  -4  -8  -3      44      62                                                          32   -5.91    1.31  1.0000
   4  -8   3      18      54                                                          -6    5.91    1.32  1.0000
   4   8   3      20      59                                                           5   -5.91   -1.31  1.0000
  -4   8  -3      49      54                                                          37    5.91   -1.32  1.0000
  -6  -8  -3    1806     171                                                        1326    8.66   -1.45  1.0000
   6  -8   3    1805     152                                                        1324   -8.68   -1.49  1.0000
  -6  -8  -3    1682     136                                                        1220    8.66   -1.45  1.0000
   6   8   3    1968     144                                                        1465    8.66    1.45  1.0000
  -6   8  -3    1614     140                                                        1161   -8.68    1.49  1.0000
  -8  -8  -3    1435     200                                                        1800   -5.30    4.93  1.0000
  -8  -8  -3    1437     163                                                        1802   -5.30    4.93  1.0000
   8  -8   3    1548     188                                                        1927    5.32    4.93  1.0000
  -8   8  -3    1483     184                                                        1854    5.32   -4.93  1.0000
   8   8   3    1675     152                                                        2067   -5.30   -4.93  1.0000
 -10  -8  -3      15      74                                                          27   -3.24    1.92  1.0000
  10  -8   3       7      63                                                         -90    3.23    1.92  1.0000
 -10  -8  -3       7      86                                                         -32   -3.24    1.92  1.0000
 -10   8  -3     118      88                                                         157    3.23   -1.92  1.0000
 -11  -9   3     770     104                                                         808    0.72   -3.73  1.0000
  11  -9  -3     945     153                                                         988   -0.73   -3.73  1.0000
 -11  -9   3     830     170                                                         870    0.72   -3.73  1.0000
 -11   9   3    1185     170                                                        1234   -0.73    3.73  1.0000
  -9  -9   3       9      56                                                         -19   -0.72   -4.31  1.0000
  -9  -9   3      49      93                                                          31   -0.72   -4.31  1.0000
   9  -9  -3       9      71                                                         -50    0.73   -4.28  1.0000
  -9   9   3      37      75                                                          20    0.73    4.28  1.0000
  -7  -9   3     650      93                                                         644    0.40   -2.97  1.0000
   7  -9  -3     587     119                                                         581   -0.40   -2.98  1.0000
  -7  -9   3     608     132                                                         602    0.40   -2.97  1.0000
   7  -9  -3     529      79                                                         523   -0.40   -2.98  1.0000
  -5  -9   3      71      90                                                         116    3.68   -3.83  1.0000
   5  -9  -3      14      61                                                         -35   -3.70   -3.81  1.0000
   5  -9  -3      40      61                                                          74   -3.70   -3.81  1.0000
  -5  -9   3      11      52                                                          24    3.68   -3.83  1.0000
  -5   9   3      31      70                                                          60   -3.70    3.81  1.0000
  -3  -9   3     184      96                                                         275    4.74    3.46  1.0000
  -3  -9   3     344      85                                                         468    4.74    3.46  1.0000
   3  -9  -3     255      85                                                         361   -4.71    3.52  1.0000
   3  -9  -3     303      99                                                         418   -4.71    3.52  1.0000
   3   9  -3     213      72                                                         311    4.74   -3.46  1.0000
  -3   9   3     223      92                                                         322   -4.71   -3.52  1.0000
  -1  -9   3      20      57                                                          25   -9.65    0.96  1.0000
  -1  -9   3      41      73                                                          91   -9.65    0.96  1.0000
   1  -9  -3      45      65                                                         -19    9.64    0.91  1.0000
   1  -9  -3      45      53                                                         -41    9.64    0.91  1.0000
  -1   9   3      78      75                                                         158    9.64   -0.91  1.0000
  -1  -9  -3     364      69                                                          53   11.96   12.57  1.0000
  -1  -9  -3     514      77                                                         120   11.96   12.57  1.0000
   1  -9   3     346      65                                                          46  -12.00   12.55  1.0000
   1  -9   3     427      66                                                          79  -12.00   12.55  1.0000
  -1   9  -3     456      64                                                          92  -12.00  -12.55  1.0000
   1   9   3     687      83                                                         211   11.96  -12.57  1.0000
   3  -9   3     661      98                                                         492   -5.52    2.41  1.0000
  -3  -9  -3     764     120                                                         581    5.53    2.46  1.0000
  -3  -9  -3     712     101                                                         536    5.53    2.46  1.0000
   3  -9   3     660      84                                                         491   -5.52    2.41  1.0000
   3   9   3     824     112                                                         634    5.53   -2.46  1.0000
  -3   9  -3     674      96                                                         503   -5.52   -2.41  1.0000
  -5  -9  -3    2063     218                                                        2202   -0.23    7.96  1.0000
   5  -9   3    2313     180                                                        2464    0.25    7.99  1.0000
  -5  -9  -3    2281     176                                                        2429   -0.23    7.96  1.0000
  -5   9  -3    2301     173                                                        2451    0.25   -7.99  1.0000
   5   9   3    2257     170                                                        2404   -0.23   -7.96  1.0000
  -7  -9  -3     350      87                                                         275    4.07   -0.69  1.0000
   7  -9   3     418     101                                                         335   -4.11   -0.68  1.0000
  -7  -9  -3     284     111                                                         216    4.07   -0.69  1.0000
  -7   9  -3     498     101                                                         407   -4.11    0.68  1.0000
   7   9   3     481     101                                                         393    4.07    0.69  1.0000
   9  -9   3       5      73                                                         -33   -3.09   -0.94  1.0000
  -9  -9  -3       5      73                                                         -43    3.09   -0.91  1.0000
  -9  -9  -3      14      98                                                           8    3.09   -0.91  1.0000
  -9   9  -3       5      70                                                         -65   -3.09    0.94  1.0000
  -8 -10   3    1918     140                                                        1865    0.74   -1.66  1.0000
  -8 -10   3    1741     201                                                        1690    0.74   -1.66  1.0000
   8 -10  -3    1502     178                                                        1453   -0.77   -1.66  1.0000
  -6 -10   3     805     156                                                         929   -2.76    1.57  1.0000
   6 -10  -3     786     143                                                         909    2.76    1.61  1.0000
   6 -10  -3     899     120                                                        1030    2.76    1.61  1.0000
  -6 -10   3     847     118                                                         974   -2.76    1.57  1.0000
  -6  10   3    1025     165                                                        1165    2.76   -1.61  1.0000
  -4 -10   3    1599     187                                                        1849   -4.27    0.78  1.0000
   4 -10  -3    1433     159                                                        1672    4.30    0.76  1.0000
  -4 -10   3    1400     145                                                        1634   -4.27    0.78  1.0000
   4 -10  -3    1177     165                                                        1394    4.30    0.76  1.0000
  -4  10   3    1511     180                                                        1756    4.30   -0.76  1.0000
   2 -10  -3    4112     246                                                        4859    8.16    0.52  1.0000
  -2 -10   3    4223     233                                                        4982   -8.19    0.53  1.0000
  -2 -10   3    4352     256                                                        5123   -8.19    0.53  1.0000
   2 -10  -3    4653     270                                                        5445    8.16    0.52  1.0000
  -2  10   3    4347     261                                                        5114    8.16   -0.52  1.0000
   0 -10   3     395      90                                                         330    2.87   -1.00  1.0000
   0 -10  -3     225      82                                                         176   -2.86   -0.95  1.0000
   0 -10  -3     414     103                                                         348   -2.86   -0.95  1.0000
   0 -10   3     250      86                                                         199    2.87   -1.00  1.0000
   0  10   3     330      93                                                         271   -2.86    0.95  1.0000
   2 -10   3    1483     133                                                        1343    2.72    4.30  1.0000
  -2 -10  -3    1299     151                                                        1169   -2.70    4.30  1.0000
  -2 -10  -3    1005     147                                                         890   -2.70    4.30  1.0000
   2 -10   3    1250     139                                                        1121    2.72    4.30  1.0000
   2  10   3    1198     141                                                        1073   -2.70   -4.30  1.0000
  -2  10  -3    1357     142                                                        1223    2.72   -4.30  1.0000
  -4 -10  -3    1207     169                                                        1138   -1.40    1.72  1.0000
  -4 -10  -3     856     128                                                         798   -1.40    1.72  1.0000
   4 -10   3    1301     154                                                        1230    1.38    1.73  1.0000
   4  10   3    1253     142                                                        1183   -1.40   -1.72  1.0000
  -4  10  -3    1292     150                                                        1221    1.38   -1.73  1.0000
  -6 -10  -3    1148     142                                                        1128   -0.33    0.84  1.0000
   6 -10   3    1074     150                                                        1055    0.34    0.80  1.0000
  -6 -10  -3    1074     168                                                        1055   -0.33    0.84  1.0000
  -6  10  -3    1211     159                                                        1190    0.34   -0.80  1.0000
  -5 -11   3     198     113                                                         223    1.13    1.31  1.0000
   5 -11  -3     130     101                                                         151   -1.15    1.31  1.0000
  -5 -11   3     130      87                                                         151    1.13    1.31  1.0000
   5 -11  -3     178      87                                                         202   -1.15    1.31  1.0000
  -5  11   3      55      95                                                          69   -1.15   -1.31  1.0000
   3 -11  -3    1165     153                                                        1275   -1.81   -3.02  1.0000
   3 -11  -3    1041     164                                                        1145   -1.81   -3.02  1.0000
  -3 -11   3    1079     166                                                        1185    1.80   -3.05  1.0000
  -3 -11   3     862     130                                                         957    1.80   -3.05  1.0000
  -3  11   3    1109     170                                                        1217   -1.81    3.02  1.0000
  -1 -11   3      16      67                                                          -4    5.39    2.10  1.0000
   1 -11  -3      25      78                                                          68   -5.35    2.14  1.0000
  -1 -11   3      16      76                                                         -70    5.39    2.10  1.0000
   1 -11  -3       5      80                                                           6   -5.35    2.14  1.0000
  -1  11   3      16      87                                                          -6   -5.35   -2.14  1.0000
   1 -11   3      56      76                                                          57    0.95   -2.21  1.0000
  -1 -11  -3       3      77                                                         -39   -0.97   -2.24  1.0000
   1 -11   3      31      77                                                          31    0.95   -2.21  1.0000
  -1 -11  -3       3      81                                                         -42   -0.97   -2.24  1.0000
   1  11   3      95      90                                                          98   -0.97    2.24  1.0000
   3 -11   3     676     128                                                         721    1.08    0.65  1.0000
  -3 -11  -3     610     128                                                         653   -1.07    0.68  1.0000
  -3 -11  -3     507     140                                                         546   -1.07    0.68  1.0000
   3  11   3     392     115                                                         427   -1.07   -0.68  1.0000
  -3  11  -3     757     128                                                         805    1.08   -0.65  1.0000
 -18   0   4    7086     324                                                        7568    3.03   -2.70  1.0000
 -16   0   4    3607     210                                                        3435   -2.34    0.27  1.0000
 -16   0   4    3343     171                                                        3177   -2.34    0.27  1.0000
 -14   0   4    6371     265                                                        6437    1.07    0.88  1.0000
 -14   0   4    6597     231                                                        6664    1.07    0.88  1.0000
 -12   0   4    6377     198                                                        5867   -4.56    1.17  1.0000
 -12   0   4    6595     239                                                        6076   -4.56    1.17  1.0000
  12   0  -4    6237     182                                                        5733   -4.56   -1.17  1.0000
 -10   0   4    6588     337                                                       11113   34.78  -10.53  1.0000
 -10   0   4    6578     290                                                       11101   34.78  -10.53  1.0000
  -8   0   4    1011      82                                                        1706  -16.33    1.66  1.0000
  -8   0   4     977     114                                                        1660  -16.33    1.66  1.0000
  -6   0   4    1287      49                                                         120  -37.07   -0.84  1.0000
  -6   0   4    1278      31                                                         117  -37.07   -0.84  1.0000
  -4   0   4    7470      94                                                        2797  -48.75    1.77  1.0000
   4   0  -4    7503      90                                                        2817  -48.75   -1.77  1.0000
   2   0  -4   14350     462                                                       21350   37.78   12.93  1.0000
  -2   0   4   14228     464                                                       21201   37.78  -12.93  1.0000
   0   0   4    1058      92                                                        1980  -19.84   -0.96  1.0000
   0   0  -4    1136      93                                                        2088  -19.84    0.96  1.0000
  -2   0  -4   10050     181                                                        5752  -34.44   -7.39  1.0000
   2   0   4    9512     178                                                        5347  -34.44    7.39  1.0000
   4   0   4    1827      38                                                           0  -61.18   -7.09  1.0000
  -4   0  -4    2187      41                                                          37  -61.18    7.09  1.0000
   6   0   4   16221     443                                                       16637    2.02    2.51  1.0000
  -6   0  -4   16671     444                                                       17093    2.02   -2.51  1.0000
  -8   0  -4    4613     184                                                        3906   -9.28    5.09  1.0000
   8   0   4    4349     175                                                        3662   -9.28   -5.09  1.0000
  10   0   4     239      74                                                         250    0.05   -2.27  1.0000
 -10   0  -4     199      72                                                         209    0.05    2.27  1.0000
  12   0   4     552      99                                                         443   -4.92   -4.24  1.0000
 -12   0  -4     489      98                                                         386   -4.92    4.24  1.0000
 -12   0  -4     556      96                                                         447   -4.92    4.24  1.0000
  14   0   4    2188     197                                                        2189    1.75   -3.16  1.0000
 -14   0  -4    2184     179                                                        2185    1.75    3.16  1.0000
 -14   0  -4    1698     183                                                        1698    1.75    3.16  1.0000
 -17  -1   4     528      97                                                         584   -1.55    1.22  1.0000
 -17  -1   4     685     134                                                         749   -1.55    1.22  1.0000
 -17   1   4     592     107                                                         651   -1.56    1.21  1.0000
 -17   1   4     690     125                                                         754   -1.56    1.21  1.0000
 -15  -1   4    3069     185                                                        2572    5.62   -3.82  1.0000
 -15  -1   4    3110     143                                                        2610    5.62   -3.82  1.0000
 -15   1   4    2811     148                                                        2336    5.62   -3.82  1.0000
 -15   1   4    3066     169                                                        2569    5.62   -3.82  1.0000
 -13  -1   4      82      45                                                          73    0.68   -0.39  1.0000
  13  -1  -4      25      40                                                          20    0.67    0.39  1.0000
 -13  -1   4     165      75                                                         152    0.68   -0.39  1.0000
 -13   1   4     156      57                                                         143    0.67   -0.39  1.0000
 -13   1   4     101      64                                                          91    0.67   -0.39  1.0000
 -11  -1   4      55      56                                                         -21   -8.49    6.50  1.0000
  11  -1  -4      55      33                                                           0   -8.48   -6.48  1.0000
 -11  -1   4      55      35                                                         -42   -8.49    6.50  1.0000
 -11   1   4     189      53                                                          80   -8.48    6.48  1.0000
 -11   1   4     243      60                                                         122   -8.48    6.48  1.0000
   9  -1  -4    8734     313                                                       12438  -25.07   -7.06  1.0000
  -9  -1   4    8547     369                                                       12214  -25.07    7.07  1.0000
  -9  -1   4    8928     294                                                       12668  -25.07    7.07  1.0000
  -9  -1   4    8716     291                                                       12415  -25.07    7.07  1.0000
  -9   1   4    8887     326                                                       12620  -25.07    7.06  1.0000
  -9   1   4    8888     350                                                       12621  -25.07    7.06  1.0000
   7  -1  -4       2      36                                                         157   14.99    7.44  1.0000
  -7  -1   4      23      32                                                         265   14.99   -7.44  1.0000
  -7  -1   4       1      59                                                         144   14.99   -7.44  1.0000
  -7  -1   4       2      29                                                         165   14.99   -7.44  1.0000
  -7   1   4       8      44                                                         203   14.99   -7.44  1.0000
  -5  -1   4    2497     145                                                        6128   41.25   -6.22  1.0000
  -5  -1   4    2609     147                                                        6304   41.25   -6.22  1.0000
   5  -1  -4    2535     170                                                        6188   41.25    6.23  1.0000
  -5  -1   4    2567     208                                                        6237   41.25   -6.22  1.0000
  -5   1   4    2558     177                                                        6223   41.25   -6.23  1.0000
   3  -1  -4    9371     167                                                        5918   28.89    0.88  1.0000
  -3  -1   4    9655     152                                                        6144   28.89   -0.87  1.0000
  -3  -1   4    9205     194                                                        5786   28.89   -0.87  1.0000
  -3   1   4    9730     173                                                        6204   28.89   -0.88  1.0000
  -1  -1   4      42      34                                                          88  -12.88   -0.19  1.0000
   1  -1  -4      47      36                                                         104  -12.88    0.19  1.0000
  -1   1   4      59      40                                                         135  -12.88   -0.19  1.0000
   1   1  -4      51      33                                                         116  -12.88    0.19  1.0000
   1  -1   4     713      44                                                         163   16.63  -11.39  1.0000
  -1  -1  -4     539      38                                                          86   16.62   11.40  1.0000
  -1   1  -4     694      39                                                         154   16.63   11.39  1.0000
   1   1   4     622      41                                                         121   16.62  -11.40  1.0000
   3  -1   4     963      45                                                          86   32.10   -3.52  1.0000
  -3  -1  -4    1134      47                                                         145   32.10    3.51  1.0000
   3   1   4     882      42                                                          62   32.10   -3.51  1.0000
  -3   1  -4     785      38                                                          37   32.10    3.52  1.0000
  -5  -1  -4    5721     163                                                        3919   20.23    1.92  1.0000
   5  -1   4    5661     163                                                        3868   20.24   -1.92  1.0000
  -5   1  -4    5480     162                                                        3718   20.24    1.92  1.0000
   5   1   4    5733     165                                                        3929   20.23   -1.92  1.0000
  -7  -1  -4    7312     258                                                        7397   -0.87    3.83  1.0000
   7  -1   4    7537     262                                                        7623   -0.87   -3.83  1.0000
  -7   1  -4    7348     261                                                        7433   -0.87    3.83  1.0000
   7   1   4    7348     256                                                        7433   -0.87   -3.83  1.0000
   9  -1   4      37      56                                                          43    2.45    3.26  1.0000
  -9  -1  -4       8      44                                                         -16    2.45   -3.26  1.0000
   9   1   4      56      57                                                          65    2.45    3.26  1.0000
  -9   1  -4     109      64                                                         124    2.45   -3.26  1.0000
 -11  -1  -4     293      91                                                         373    2.76   -3.23  1.0000
  11  -1   4     302      91                                                         384    2.77    3.23  1.0000
 -11  -1  -4     214      78                                                         282    2.76   -3.23  1.0000
 -11   1  -4     235      84                                                         307    2.77   -3.23  1.0000
  11   1   4     239      82                                                         311    2.76    3.23  1.0000
 -11   1  -4     200      73                                                         266    2.77   -3.23  1.0000
 -13  -1  -4      18      63                                                           8    2.78   -0.27  1.0000
  13  -1   4      91      71                                                          69    2.78    0.27  1.0000
 -13  -1  -4       4      74                                                          -7    2.78   -0.27  1.0000
  13   1   4      84      67                                                          63    2.78    0.27  1.0000
 -13   1  -4      71      68                                                          52    2.78   -0.27  1.0000
 -13   1  -4      23      64                                                          12    2.78   -0.27  1.0000
 -15  -1  -4       4      84                                                         -65   -0.89   -2.73  1.0000
  15  -1   4       4      73                                                         -33   -0.89    2.74  1.0000
 -15  -1  -4       4      70                                                         -96   -0.89   -2.73  1.0000
 -15   1  -4      87      80                                                          60   -0.89   -2.74  1.0000
 -15   1  -4       4      73                                                         -19   -0.89   -2.74  1.0000
  15   1   4      63      85                                                          40   -0.89    2.73  1.0000
 -16  -2   4    3541     235                                                        3663    0.37    3.15  1.0000
 -16  -2   4    3493     165                                                        3614    0.37    3.15  1.0000
 -16   2   4    3348     192                                                        3467    0.37    3.16  1.0000
 -16   2   4    3076     191                                                        3190    0.37    3.16  1.0000
  14  -2  -4    2053     142                                                        2513   -5.94   -3.65  1.0000
 -14  -2   4    2060     123                                                        2521   -5.92    3.66  1.0000
 -14  -2   4    1918     198                                                        2363   -5.92    3.66  1.0000
 -14   2   4    1775     148                                                        2204   -5.94    3.65  1.0000
 -14   2   4    1884     150                                                        2326   -5.94    3.65  1.0000
 -12  -2   4    1641      80                                                        1259    7.41   -1.73  1.0000
 -12  -2   4    1463      77                                                        1103    7.41   -1.73  1.0000
 -12  -2   4    1596     141                                                        1219    7.41   -1.73  1.0000
  12  -2  -4    1623     109                                                        1243    7.41    1.74  1.0000
 -12   2   4    1674     117                                                        1288    7.41   -1.74  1.0000
  10  -2  -4    1315      87                                                        1160    3.05    2.71  1.0000
 -10  -2   4    1185     123                                                        1037    3.06   -2.71  1.0000
 -10  -2   4    1319      61                                                        1163    3.06   -2.71  1.0000
 -10  -2   4    1451      66                                                        1287    3.06   -2.71  1.0000
 -10   2   4    1202      99                                                        1054    3.05   -2.71  1.0000
   8  -2  -4     315      32                                                         -21   25.07    5.14  1.0000
  -8  -2   4      44      65                                                         130   25.10   -5.13  1.0000
  -8   2   4     181      41                                                          19   25.07   -5.14  1.0000
  -6  -2   4    1643     133                                                        2307  -10.39    2.98  1.0000
   6  -2  -4    1611     103                                                        2269  -10.39   -2.99  1.0000
  -6   2   4    1563     107                                                        2211  -10.39    2.99  1.0000
  -4  -2   4   14586     323                                                       15467   -6.27  -12.88  1.0000
  -4  -2   4   14503     323                                                       15381   -6.27  -12.88  1.0000
   4  -2  -4   14306     365                                                       15178   -6.27   12.87  1.0000
  -4  -2   4   14343     401                                                       15216   -6.27  -12.88  1.0000
  -4   2   4   14217     370                                                       15086   -6.27  -12.87  1.0000
  -2  -2   4      42      46                                                          73   13.65    3.83  1.0000
  -2  -2   4      41      28                                                          51   13.65    3.83  1.0000
   2  -2  -4      97      29                                                         -26   13.64   -3.81  1.0000
  -2   2   4      45      35                                                          30   13.64    3.81  1.0000
   2   2  -4      42      24                                                          37   13.65   -3.83  1.0000
   0  -2  -4     707      89                                                        1541   39.92   -2.21  1.0000
   0  -2   4     664      79                                                        1450   39.92    2.22  1.0000
   0   2  -4     736      82                                                        1601   39.92   -2.22  1.0000
   0   2   4     652      88                                                        1424   39.92    2.21  1.0000
  -2  -2  -4    1147      91                                                        1379    4.95    1.14  1.0000
   2  -2   4    1087      89                                                        1313    4.96   -1.13  1.0000
  -2   2  -4    1135      89                                                        1366    4.96    1.13  1.0000
   2   2   4    1114      93                                                        1343    4.95   -1.14  1.0000
  -4  -2  -4   10144     260                                                        8606   11.48    4.25  1.0000
   4  -2   4   10440     266                                                        8879   11.48   -4.22  1.0000
   4   2   4    9656     258                                                        8157   11.48   -4.25  1.0000
  -4   2  -4   10046     263                                                        8516   11.48    4.22  1.0000
  -6  -2  -4      57      48                                                          45   -2.14   -4.94  1.0000
   6  -2   4      29      47                                                          17   -2.14    4.94  1.0000
  -6   2  -4      14      48                                                          -4   -2.14   -4.94  1.0000
   6   2   4      63      50                                                          52   -2.14    4.94  1.0000
  -8  -2  -4    3364     151                                                        2578   11.44   -6.77  1.0000
   8  -2   4    3764     163                                                        2931   11.45    6.76  1.0000
   8   2   4    3404     150                                                        2613   11.44    6.77  1.0000
  -8   2  -4    3360     153                                                        2574   11.45   -6.76  1.0000
 -10  -2  -4     281      88                                                         308   -1.10   -0.79  1.0000
 -10  -2  -4     247      78                                                         272   -1.10   -0.79  1.0000
  10  -2   4     463      92                                                         497   -1.09    0.80  1.0000
  10   2   4     503      92                                                         539   -1.10    0.79  1.0000
 -10   2  -4     436      95                                                         469   -1.09   -0.80  1.0000
 -12  -2  -4    1729     162                                                        1654    1.41   -1.88  1.0000
  12  -2   4    1999     175                                                        1918    1.42    1.87  1.0000
 -12  -2  -4    1760     169                                                        1685    1.41   -1.88  1.0000
 -12   2  -4    1863     176                                                        1785    1.42   -1.87  1.0000
 -12   2  -4    1743     124                                                        1668    1.42   -1.87  1.0000
  12   2   4    1765     158                                                        1690    1.41    1.88  1.0000
 -14  -2  -4     139      99                                                         171   -0.19   -2.64  1.0000
 -14  -2  -4     335     100                                                         384   -0.19   -2.64  1.0000
  14  -2   4     309     104                                                         357   -0.18    2.67  1.0000
 -14   2  -4     295     105                                                         342   -0.18   -2.67  1.0000
  14   2   4     220      91                                                         260   -0.19    2.64  1.0000
 -17  -3   4     248      76                                                         312    2.94   -1.05  1.0000
 -17  -3   4     299     120                                                         370    2.94   -1.05  1.0000
 -17   3   4     285     100                                                         354    2.94   -1.06  1.0000
 -15  -3   4    1360     102                                                        1149   -3.78    2.36  1.0000
 -15  -3   4    1418     164                                                        1202   -3.78    2.36  1.0000
 -15   3   4    1240     129                                                        1038   -3.78    2.39  1.0000
 -13  -3   4     948     152                                                        1223    6.54   -0.06  1.0000
  13  -3  -4     874     118                                                        1138    6.52    0.11  1.0000
 -13  -3   4     967      83                                                        1244    6.54   -0.06  1.0000
 -13   3   4     992     129                                                        1273    6.52   -0.11  1.0000
 -11  -3   4    2437      85                                                        2118   -6.14   -2.16  1.0000
  11  -3  -4    2482     126                                                        2161   -6.14    2.16  1.0000
 -11  -3   4    2616     170                                                        2286   -6.14   -2.16  1.0000
 -11  -3   4    2389      81                                                        2073   -6.14   -2.16  1.0000
 -11   3   4    2294     133                                                        1985   -6.14   -2.16  1.0000
  -9  -3   4     155      99                                                         582   15.67   -7.61  1.0000
   9  -3  -4      51      65                                                         347   15.67    7.60  1.0000
  -9   3   4      64      71                                                         383   15.67   -7.60  1.0000
   7  -3  -4    5571     174                                                        4844   -8.13    1.78  1.0000
  -7  -3   4    5630     213                                                        4902   -8.10   -1.77  1.0000
  -7   3   4    5301     179                                                        4593   -8.13   -1.78  1.0000
   5  -3  -4   25154     593                                                       26246    5.18   -1.85  1.0000
  -5  -3   4   24058     630                                                       25123    5.16    1.88  1.0000
   3  -3  -4   10975     148                                                        3990  -57.99  -15.20  1.0000
  -3  -3   4   10791     117                                                        3879  -58.00   15.17  1.0000
  -3  -3   4   11047     167                                                        4033  -58.00   15.17  1.0000
  -3   3   4   10817     153                                                        3895  -57.99   15.20  1.0000
  -1  -3   4    3067      94                                                        1187  -32.07    1.26  1.0000
  -1  -3   4    3053      71                                                        1178  -32.07    1.26  1.0000
   1  -3  -4    2958      83                                                        1118  -32.09   -1.26  1.0000
   1   3  -4    2883      66                                                        1072  -32.07   -1.26  1.0000
  -1   3   4    3094      88                                                        1203  -32.09    1.26  1.0000
  -1  -3  -4     517     107                                                        2088  -42.09   -4.12  1.0000
   1  -3   4     454     103                                                        1933  -42.11    4.15  1.0000
   1   3   4     469     112                                                        1971  -42.09    4.12  1.0000
  -1   3  -4     449      98                                                        1922  -42.11   -4.15  1.0000
  -3  -3  -4    8190     226                                                        6784  -12.41   -4.36  1.0000
   3  -3   4    8640     232                                                        7194  -12.41    4.36  1.0000
   3   3   4    8166     228                                                        6762  -12.41    4.36  1.0000
  -3   3  -4    8766     229                                                        7309  -12.41   -4.36  1.0000
   5  -3   4    5025     161                                                        3434  -20.36    2.57  1.0000
  -5  -3  -4    4746     154                                                        3203  -20.36   -2.59  1.0000
   5   3   4    4638     150                                                        3114  -20.36    2.59  1.0000
  -5   3  -4    4695     154                                                        3160  -20.36   -2.57  1.0000
   7  -3   4    4946     193                                                        4217   -8.09    2.36  1.0000
  -7  -3  -4    4885     189                                                        4160   -8.10   -2.31  1.0000
   7   3   4    5224     193                                                        4474   -8.10    2.31  1.0000
  -7   3  -4    5180     200                                                        4434   -8.09   -2.36  1.0000
  -9  -3  -4    1920     141                                                        1504   -7.81    4.65  1.0000
   9  -3   4    1845     142                                                        1436   -7.83   -4.65  1.0000
  -9   3  -4    1909     147                                                        1493   -7.83    4.65  1.0000
   9   3   4    1759     132                                                        1361   -7.81   -4.65  1.0000
 -11  -3  -4    1076     132                                                        1037   -0.94    0.15  1.0000
  11  -3   4    1102     136                                                        1063   -0.93   -0.17  1.0000
 -11  -3  -4    1023     136                                                         985   -0.94    0.15  1.0000
  11   3   4    1017     121                                                         979   -0.94   -0.15  1.0000
 -11   3  -4    1252     145                                                        1211   -0.93    0.17  1.0000
  13  -3   4     609     118                                                         585   -2.31    3.06  1.0000
 -13  -3  -4     630     114                                                         605   -2.33   -3.05  1.0000
 -13  -3  -4     692     137                                                         666   -2.33   -3.05  1.0000
 -13   3  -4     618     125                                                         594   -2.31   -3.06  1.0000
  13   3   4     654     115                                                         629   -2.33    3.05  1.0000
 -16  -4   4    1025     101                                                        1030   -0.42   -1.04  1.0000
 -16  -4   4     634     141                                                         637   -0.42   -1.04  1.0000
 -16   4   4     917     137                                                         922   -0.43   -1.05  1.0000
  14  -4  -4      81      65                                                         102    1.11    1.97  1.0000
 -14  -4   4      27      91                                                          39    1.11   -1.98  1.0000
 -14  -4   4     106      46                                                         131    1.11   -1.98  1.0000
 -14   4   4     144      77                                                         173    1.11   -1.97  1.0000
  12  -4  -4     108      60                                                         121    1.26   -1.29  1.0000
 -12  -4   4      16      74                                                          20    1.26    1.30  1.0000
 -12  -4   4      39      33                                                          47    1.26    1.30  1.0000
 -12  -4   4      93      34                                                         105    1.26    1.30  1.0000
 -12   4   4      55      56                                                          64    1.26    1.29  1.0000
  10  -4  -4      44      60                                                         149   -9.01   -4.86  1.0000
 -10  -4   4      66      83                                                         191   -9.00    4.86  1.0000
 -10  -4   4     103      33                                                         256   -9.00    4.86  1.0000
 -10   4   4      67      67                                                         193   -9.01    4.86  1.0000
  -8  -4   4    1005     152                                                        1764  -10.94   10.05  1.0000
   8  -4  -4    1057     116                                                        1833  -10.92  -10.05  1.0000
  -8   4   4     827     129                                                        1525  -10.92   10.05  1.0000
   6  -4  -4    1165     100                                                        1373    7.70   -5.89  1.0000
  -6  -4   4    1295      60                                                        1516    7.71    5.88  1.0000
  -6  -4   4    1263     137                                                        1481    7.71    5.88  1.0000
  -6  -4   4    1233      59                                                        1448    7.71    5.88  1.0000
  -6   4   4    1247     106                                                        1463    7.70    5.89  1.0000
  -4  -4   4   15690     317                                                       10388   34.13    2.66  1.0000
  -4  -4   4   15295     245                                                       10067   34.13    2.66  1.0000
   4  -4  -4   14866     294                                                        9722   34.11   -2.66  1.0000
  -4   4   4   15642     301                                                       10352   34.11    2.66  1.0000
  -2  -4   4      21      30                                                         -10    2.51   -6.08  1.0000
  -2  -4   4      54      50                                                          62    2.51   -6.08  1.0000
   2  -4  -4      41      40                                                          45    2.51    6.11  1.0000
  -2   4   4      23      43                                                          17    2.51   -6.11  1.0000
   2   4  -4      18      28                                                           3    2.51    6.08  1.0000
   0  -4  -4     145      58                                                         244    0.33   -7.10  1.0000
   0  -4   4     258      60                                                         389    0.34    7.11  1.0000
   0  -4   4     218      62                                                         339    0.34    7.11  1.0000
   0   4   4     245      65                                                         372    0.33    7.10  1.0000
   0   4  -4     163      51                                                         267    0.34   -7.11  1.0000
   2  -4   4     439      48                                                          70   17.49   -5.13  1.0000
  -2  -4  -4     160      40                                                          -7   17.47    5.13  1.0000
   2   4   4     320      47                                                          28   17.47   -5.13  1.0000
  -2   4  -4     272      36                                                          15   17.49    5.13  1.0000
   4  -4   4    1711     129                                                        2042   15.97    6.36  1.0000
  -4  -4  -4    1801     127                                                        2145   15.98   -6.36  1.0000
  -4   4  -4    1691     123                                                        2020   15.97   -6.36  1.0000
   4   4   4    1731     128                                                        2066   15.98    6.36  1.0000
  -6  -4  -4     197      58                                                         158    5.95    5.83  1.0000
   6  -4   4     247      64                                                         207    5.96   -5.85  1.0000
  -6   4  -4     244      65                                                         204    5.96    5.85  1.0000
   6   4   4     213      63                                                         174    5.95   -5.83  1.0000
  -8  -4  -4     346      83                                                         440   -3.23   -1.18  1.0000
   8  -4   4     403      94                                                         504   -3.23    1.19  1.0000
   8   4   4     447      87                                                         553   -3.23    1.18  1.0000
  -8   4  -4     270      87                                                         354   -3.23   -1.19  1.0000
 -10  -4  -4       6      71                                                          -2    1.50   -3.10  1.0000
 -10  -4  -4     172      69                                                         127    1.50   -3.10  1.0000
  10  -4   4      13      60                                                           2    1.50    3.10  1.0000
 -10   4  -4       6      61                                                           0    1.50   -3.10  1.0000
  10   4   4     159      67                                                         116    1.50    3.10  1.0000
  12  -4   4    1250     157                                                        1297   -1.07    0.54  1.0000
 -12  -4  -4    1435     177                                                        1486   -1.07   -0.53  1.0000
 -12  -4  -4    1068     141                                                        1112   -1.07   -0.53  1.0000
  12   4   4    1051     133                                                        1095   -1.07    0.53  1.0000
 -12   4  -4    1335     165                                                        1384   -1.07   -0.54  1.0000
 -14  -4  -4      94      80                                                          81   -0.33    0.94  1.0000
  14  -4   4     170      96                                                         153   -0.32   -0.92  1.0000
 -14  -4  -4     107      98                                                          93   -0.33    0.94  1.0000
 -14   4  -4       0      83                                                         -47   -0.32    0.92  1.0000
 -15  -5   4     958     155                                                         931    1.05    1.60  1.0000
  15  -5  -4    1424     154                                                        1392    1.05   -1.61  1.0000
 -15  -5   4    1282     100                                                        1251    1.05    1.60  1.0000
 -15   5   4    1237     149                                                        1207    1.05    1.61  1.0000
 -13  -5   4      33      36                                                          53   -7.08    0.18  1.0000
  13  -5  -4      24      54                                                         -54   -7.11   -0.18  1.0000
 -13  -5   4      15      91                                                          12   -7.08    0.18  1.0000
 -13   5   4      24      60                                                         -31   -7.11    0.18  1.0000
 -11  -5   4     772      42                                                         284   15.66   -3.09  1.0000
  11  -5  -4     853      81                                                         334   15.67    3.11  1.0000
 -11  -5   4     970      47                                                         409   15.66   -3.09  1.0000
 -11  -5   4     811      99                                                         308   15.66   -3.09  1.0000
 -11   5   4     880      87                                                         351   15.67   -3.11  1.0000
   9  -5  -4      78      47                                                         -10   11.54    5.45  1.0000
  -9  -5   4     249      80                                                         116   11.55   -5.50  1.0000
  -9  -5   4     248      30                                                         115   11.55   -5.50  1.0000
  -9   5   4     398      72                                                         240   11.54   -5.45  1.0000
  -7  -5   4    2889      77                                                        1934   13.54   -6.14  1.0000
   7  -5  -4    2692     123                                                        1774   13.51    6.17  1.0000
  -7  -5   4    2815     161                                                        1874   13.54   -6.14  1.0000
  -7  -5   4    2841      77                                                        1895   13.54   -6.14  1.0000
  -7   5   4    2993     136                                                        2020   13.51   -6.17  1.0000
  -5  -5   4    7666     412                                                       13650  -39.46   15.31  1.0000
  -5  -5   4    8013     330                                                       14112  -39.46   15.31  1.0000
   5  -5  -4    8183     393                                                       14335  -39.45  -15.29  1.0000
  -5   5   4    7622     395                                                       13589  -39.45   15.29  1.0000
  -3  -5   4     454      41                                                         123   24.48   -1.13  1.0000
  -3  -5   4     393      60                                                          72   24.48   -1.13  1.0000
   3  -5  -4     455      52                                                         125   24.49    1.12  1.0000
   3   5  -4     478      39                                                         144   24.48    1.13  1.0000
  -3   5   4     497      57                                                         161   24.49   -1.12  1.0000
  -1  -5   4   11374     255                                                        8836   18.56    2.43  1.0000
   1  -5  -4   10954     274                                                        8470   18.53   -2.47  1.0000
  -1  -5   4   11617     279                                                        9050   18.56    2.43  1.0000
   1   5  -4   11162     248                                                        8649   18.56   -2.43  1.0000
  -1   5   4   11756     286                                                        9178   18.53    2.47  1.0000
   1  -5   4    3368     129                                                        2476   12.18    2.26  1.0000
   1  -5   4    3601     128                                                        2677   12.18    2.26  1.0000
  -1  -5  -4    3623     143                                                        2696   12.17   -2.19  1.0000
   1   5   4    4012     150                                                        3033   12.17    2.19  1.0000
  -1   5  -4    3634     128                                                        2705   12.18   -2.26  1.0000
   3  -5   4    1993     176                                                        4098  -27.85    1.98  1.0000
  -3  -5  -4    1800     173                                                        3817  -27.82   -2.01  1.0000
  -3   5  -4    1854     172                                                        3897  -27.85   -1.98  1.0000
   3   5   4    1675     170                                                        3634  -27.82    2.01  1.0000
   5  -5   4      64      56                                                         104   -2.87    1.32  1.0000
  -5  -5  -4      46      52                                                          81   -2.90   -1.32  1.0000
   5   5   4      74      60                                                         117   -2.90    1.32  1.0000
  -5   5  -4       5      47                                                         -36   -2.87   -1.32  1.0000
   7  -5   4    1371     116                                                         915    9.78    1.00  1.0000
  -7  -5  -4    1180     101                                                         760    9.77   -0.99  1.0000
   7   5   4    1139      97                                                         727    9.77    0.99  1.0000
  -7   5  -4    1493     124                                                        1015    9.78   -1.00  1.0000
  -9  -5  -4    3176     197                                                        2811    5.26    1.03  1.0000
   9  -5   4    2715     166                                                        2380    5.24   -1.02  1.0000
  -9  -5  -4    2643     159                                                        2311    5.26    1.03  1.0000
   9   5   4    2837     164                                                        2493    5.26   -1.03  1.0000
  -9   5  -4    2634     166                                                        2304    5.24    1.02  1.0000
 -11  -5  -4      97      95                                                         109    0.35   -3.76  1.0000
 -11  -5  -4      87      74                                                          98    0.35   -3.76  1.0000
  11  -5   4       7      70                                                         -17    0.37    3.74  1.0000
 -11   5  -4     103      80                                                         115    0.37   -3.74  1.0000
  11   5   4     122      78                                                         136    0.35    3.76  1.0000
 -13  -5  -4    2274     219                                                        2145    1.96   -0.32  1.0000
  13  -5   4    2322     207                                                        2191    1.97    0.33  1.0000
 -13  -5  -4    2333     200                                                        2203    1.96   -0.32  1.0000
 -13   5  -4    2457     219                                                        2322    1.97   -0.33  1.0000
 -14  -6   4    3622     148                                                        4199    5.27   -4.27  1.0000
 -14  -6   4    2958     254                                                        3481    5.27   -4.27  1.0000
  14  -6  -4    3220     222                                                        3765    5.26    4.29  1.0000
 -14   6   4    3033     224                                                        3563    5.26   -4.29  1.0000
 -12  -6   4     216      44                                                         200   -7.71   -3.33  1.0000
  12  -6  -4     122      74                                                         101   -7.69    3.33  1.0000
 -12  -6   4     214     100                                                         198   -7.71   -3.33  1.0000
 -12   6   4     104      75                                                          82   -7.69   -3.33  1.0000
  10  -6  -4    1227     113                                                         781  -10.33   -2.09  1.0000
 -10  -6   4    1202      65                                                         761  -10.31    2.09  1.0000
 -10  -6   4    1249     134                                                         799  -10.31    2.09  1.0000
 -10   6   4    1104     114                                                         683  -10.33    2.09  1.0000
  -8  -6   4    1492      61                                                         668  -17.15    9.84  1.0000
  -8  -6   4    1587      64                                                         733  -17.15    9.84  1.0000
   8  -6  -4    1452      99                                                         641  -17.15   -9.83  1.0000
  -8  -6   4    1013      99                                                         359  -17.15    9.84  1.0000
  -8   6   4    1349      99                                                         572  -17.15    9.83  1.0000
  -6  -6   4   12000     463                                                       15054   17.93   -8.29  1.0000
   6  -6  -4   11950     433                                                       14999   17.93    8.31  1.0000
  -6  -6   4   12536     369                                                       15653   17.93   -8.29  1.0000
   4  -6  -4      73      56                                                         114   -6.09    1.56  1.0000
  -4  -6   4      65      43                                                         104   -6.08   -1.57  1.0000
  -4  -6   4      11      54                                                          10   -6.08   -1.57  1.0000
   4   6  -4      63      40                                                         101   -6.08    1.57  1.0000
  -4   6   4      22      54                                                          38   -6.09   -1.56  1.0000
   2  -6  -4    3012     117                                                        1560  -21.96   -7.22  1.0000
  -2  -6   4    3365     131                                                        1817  -21.96    7.24  1.0000
  -2  -6   4    3305     104                                                        1773  -21.96    7.24  1.0000
  -2   6   4    3127     124                                                        1643  -21.96    7.22  1.0000
   2   6  -4    3407     102                                                        1848  -21.96   -7.24  1.0000
   0  -6   4    3330     118                                                        1341  -31.00   -1.29  1.0000
   0  -6  -4    3328     123                                                        1339  -31.00    1.30  1.0000
   0  -6   4    3465     105                                                        1427  -31.00   -1.29  1.0000
   0   6  -4    3565      99                                                        1492  -31.00    1.29  1.0000
   0   6   4    3555     132                                                        1485  -31.00   -1.30  1.0000
  -2  -6  -4     391      58                                                          84  -14.41   -6.61  1.0000
   2  -6   4     430      54                                                         103  -14.41    6.62  1.0000
   2  -6   4     596      54                                                         193  -14.41    6.62  1.0000
  -2   6  -4     467      54                                                         122  -14.41   -6.62  1.0000
   2   6   4     457      61                                                         117  -14.41    6.61  1.0000
   4  -6   4     300      73                                                         266   -1.34   -1.23  1.0000
  -4  -6  -4     389      74                                                         350   -1.34    1.22  1.0000
   4   6   4     414      79                                                         374   -1.34   -1.22  1.0000
  -4   6  -4     380      73                                                         341   -1.34    1.23  1.0000
   6  -6   4    1885     137                                                        1232  -11.98   -0.28  1.0000
  -6  -6  -4    2329     141                                                        1596  -11.98    0.25  1.0000
  -6   6  -4    2245     151                                                        1526  -11.98    0.28  1.0000
   6   6   4    2158     137                                                        1455  -11.98   -0.25  1.0000
  -8  -6  -4    1360     142                                                         959   -8.95   -0.24  1.0000
  -8  -6  -4    1539     130                                                        1110   -8.95   -0.24  1.0000
   8  -6   4    1574     139                                                        1141   -8.94    0.26  1.0000
   8   6   4    1816     138                                                        1348   -8.95    0.24  1.0000
  -8   6  -4    1788     151                                                        1324   -8.94   -0.26  1.0000
 -10  -6  -4    2454     170                                                        2320   -1.93   -0.44  1.0000
 -10  -6  -4    2830     235                                                        2686   -1.93   -0.44  1.0000
  10  -6   4    2410     204                                                        2278   -1.93    0.42  1.0000
  10   6   4    2729     176                                                        2588   -1.93    0.44  1.0000
 -10   6  -4    2930     194                                                        2784   -1.93   -0.42  1.0000
  12  -6   4      56      81                                                          65    0.55   -0.68  1.0000
 -12  -6  -4      42      79                                                          50    0.55    0.67  1.0000
 -12  -6  -4      90     102                                                         101    0.55    0.67  1.0000
 -12   6  -4      64      84                                                          74    0.55    0.68  1.0000
 -13  -7   4     502      69                                                         520    1.73    2.05  1.0000
  13  -7  -4     426     113                                                         443    1.71   -2.03  1.0000
 -13  -7   4     357     130                                                         372    1.73    2.05  1.0000
 -13   7   4     335     106                                                         349    1.71    2.03  1.0000
 -11  -7   4      53      96                                                          29    2.40    1.42  1.0000
  11  -7  -4     208      81                                                         157    2.41   -1.41  1.0000
 -11  -7   4     125      43                                                          86    2.40    1.42  1.0000
 -11   7   4     184      87                                                         136    2.41    1.41  1.0000
  -9  -7   4     430      72                                                         673    4.30   -7.40  1.0000
   9  -7  -4     594     123                                                         876    4.32    7.36  1.0000
  -9  -7   4     554     143                                                         827    4.30   -7.40  1.0000
  -9   7   4     586     124                                                         867    4.32   -7.36  1.0000
  -7  -7   4    1169      71                                                         585  -13.55    6.32  1.0000
   7  -7  -4    1335     108                                                         703  -13.61   -6.29  1.0000
  -7  -7   4    1191     117                                                         601  -13.55    6.32  1.0000
  -5  -7   4    3475     140                                                        3206    3.30   -7.65  1.0000
  -5  -7   4    3673     197                                                        3397    3.30   -7.65  1.0000
   5  -7  -4    3233     172                                                        2971    3.32    7.70  1.0000
  -5   7   4    3373     181                                                        3106    3.32   -7.70  1.0000
   5   7  -4    3584     134                                                        3311    3.30    7.65  1.0000
  -3  -7   4      40      41                                                         -26    9.12    0.48  1.0000
  -3  -7   4      40      55                                                          -2    9.12    0.48  1.0000
   3  -7  -4      40      47                                                          -3    9.12   -0.52  1.0000
  -3   7   4      93      57                                                          11    9.12    0.52  1.0000
   1  -7  -4    3696     239                                                        6085   24.80    0.56  1.0000
  -1  -7   4    3242     213                                                        5502   24.83   -0.55  1.0000
  -1  -7   4    3521     232                                                        5863   24.83   -0.55  1.0000
   1   7  -4    3551     211                                                        5902   24.83    0.55  1.0000
  -1   7   4    3440     240                                                        5756   24.80   -0.56  1.0000
   1  -7   4      31      48                                                           5    9.08    0.67  1.0000
  -1  -7  -4      85      61                                                         109    9.09   -0.65  1.0000
   1  -7   4      35      48                                                          26    9.08    0.67  1.0000
   1   7   4     100      62                                                         130    9.09    0.65  1.0000
  -1   7  -4      89      50                                                         115    9.08   -0.67  1.0000
   3  -7   4    1154     136                                                        1448    5.98    2.37  1.0000
   3  -7   4    1037     100                                                        1317    5.98    2.37  1.0000
  -3  -7  -4     867     126                                                        1124    5.98   -2.40  1.0000
   3   7   4    1172     139                                                        1469    5.98    2.40  1.0000
  -3   7  -4    1256     137                                                        1563    5.98   -2.37  1.0000
  -5  -7  -4    1689     154                                                        1742   -1.06   -0.64  1.0000
   5  -7   4    1944     172                                                        2000   -1.04    0.60  1.0000
  -5   7  -4    2318     155                                                        2379   -1.04   -0.60  1.0000
   5   7   4    1858     142                                                        1914   -1.06    0.64  1.0000
   7  -7   4     312      79                                                         200    4.57    5.45  1.0000
  -7  -7  -4     490      87                                                         350    4.56   -5.41  1.0000
  -7  -7  -4     222      94                                                         128    4.56   -5.41  1.0000
   7   7   4     301      77                                                         191    4.56    5.41  1.0000
  -7   7  -4     305      79                                                         194    4.57   -5.45  1.0000
   9  -7   4       5      70                                                          14    0.91    2.99  1.0000
  -9  -7  -4       5      77                                                         -31    0.94   -2.99  1.0000
  -9  -7  -4       5      63                                                         -21    0.94   -2.99  1.0000
   9   7   4       9      67                                                          22    0.94    2.99  1.0000
  -9   7  -4       5      54                                                         -90    0.91   -2.99  1.0000
  11  -7   4     457     116                                                         457   -0.25   -1.95  1.0000
 -11  -7  -4     312      98                                                         311   -0.26    1.94  1.0000
 -11  -7  -4     410     129                                                         409   -0.26    1.94  1.0000
 -11   7  -4     402     115                                                         402   -0.25    1.95  1.0000
  12  -8  -4    3272     212                                                        3024    2.19    2.56  1.0000
 -12  -8   4    3029     135                                                        2791    2.19   -2.55  1.0000
 -12  -8   4    3325     269                                                        3076    2.19   -2.55  1.0000
 -12   8   4    3185     218                                                        2941    2.19   -2.56  1.0000
 -10  -8   4    1809     107                                                        1665    2.09   -1.58  1.0000
  10  -8  -4    2141     192                                                        1985    2.08    1.58  1.0000
 -10  -8   4    2010     206                                                        1858    2.09   -1.58  1.0000
 -10   8   4    1908     185                                                        1761    2.08   -1.58  1.0000
   8  -8  -4    2707     173                                                        1766   14.63    9.11  1.0000
  -8  -8   4    2551     187                                                        1639   14.63   -9.11  1.0000
  -8  -8   4    2662     110                                                        1729   14.63   -9.11  1.0000
  -6  -8   4     166      50                                                         143    1.30    0.40  1.0000
  -6  -8   4     196      90                                                         171    1.30    0.40  1.0000
   6  -8  -4     106      66                                                          88    1.30   -0.38  1.0000
  -6   8   4     166      80                                                         143    1.30    0.38  1.0000
   4  -8  -4    1270     141                                                        1273    0.19   -1.70  1.0000
  -4  -8   4    1457     152                                                        1460    0.19    1.70  1.0000
  -4  -8   4    1453     122                                                        1456    0.19    1.70  1.0000
  -4   8   4    1478     154                                                        1482    0.19    1.70  1.0000
   4   8  -4    1504     103                                                        1508    0.19   -1.70  1.0000
  -2  -8   4       7      72                                                         108  -11.98    0.41  1.0000
  -2  -8   4      18      60                                                         148  -11.98    0.41  1.0000
   2  -8  -4      37      72                                                         198  -11.97   -0.41  1.0000
  -2   8   4       9      61                                                          32  -11.97    0.41  1.0000
   2   8  -4       8      51                                                         112  -11.98   -0.41  1.0000
   0  -8   4     450      85                                                         455   -1.08    9.63  1.0000
   0  -8  -4     671     106                                                         688   -1.08   -9.62  1.0000
   0  -8   4     615      92                                                         629   -1.08    9.63  1.0000
   0   8  -4     586      88                                                         599   -1.08   -9.63  1.0000
   0   8   4     520     103                                                         529   -1.08    9.62  1.0000
  -2  -8  -4    2835     174                                                        2801    2.11   -4.98  1.0000
   2  -8   4    2943     171                                                        2909    2.10    4.97  1.0000
   2  -8   4    2883     153                                                        2849    2.10    4.97  1.0000
  -2   8  -4    3096     168                                                        3062    2.10   -4.97  1.0000
   2   8   4    3228     181                                                        3193    2.11    4.98  1.0000
   4  -8   4    2185     124                                                        2220    0.19    6.76  1.0000
   4  -8   4    2131     161                                                        2165    0.19    6.76  1.0000
  -4  -8  -4    2125     197                                                        2159    0.19   -6.73  1.0000
  -4  -8  -4    2246     159                                                        2282    0.19   -6.73  1.0000
  -4   8  -4    2119     153                                                        2153    0.19   -6.76  1.0000
   4   8   4    2399     167                                                        2437    0.19    6.73  1.0000
  -6  -8  -4    2076     164                                                        2244   -2.35   -1.46  1.0000
   6  -8   4    1840     184                                                        1998   -2.34    1.47  1.0000
  -6  -8  -4    1713     195                                                        1866   -2.35   -1.46  1.0000
  -6   8  -4    1646     172                                                        1796   -2.34   -1.47  1.0000
   6   8   4    1605     166                                                        1753   -2.35    1.46  1.0000
  -8  -8  -4    1191     139                                                        1080    2.37    1.69  1.0000
  -8  -8  -4    1387     179                                                        1267    2.37    1.69  1.0000
   8  -8   4    1632     170                                                        1502    2.37   -1.68  1.0000
  -8   8  -4    1357     154                                                        1238    2.37    1.68  1.0000
   8   8   4    1212     141                                                        1100    2.37   -1.69  1.0000
  10  -8   4       2      74                                                           5    1.09    1.06  1.0000
 -10  -8  -4       1      69                                                         -81    1.09   -1.06  1.0000
 -10  -8  -4       1      93                                                         -55    1.09   -1.06  1.0000
 -10   8  -4       1      70                                                         -36    1.09   -1.06  1.0000
 -11  -9   4      85     114                                                          82   -1.90    0.42  1.0000
  11  -9  -4       2      66                                                        -129   -1.87   -0.40  1.0000
 -11  -9   4       2      55                                                         -52   -1.90    0.42  1.0000
 -11   9   4      64      95                                                          61   -1.87    0.40  1.0000
  -9  -9   4     219     107                                                         156   -5.84    5.32  1.0000
   9  -9  -4     111      77                                                          61   -5.83   -5.33  1.0000
  -9  -9   4     164      59                                                         107   -5.84    5.32  1.0000
  -7  -9   4    1661     185                                                        1590   -1.02    0.83  1.0000
   7  -9  -4    1360     154                                                        1295   -1.05   -0.82  1.0000
  -7  -9   4    1267     115                                                        1205   -1.02    0.83  1.0000
  -7   9   4     860     145                                                         808   -1.05    0.82  1.0000
  -5  -9   4     629     131                                                         690    2.49    2.74  1.0000
   5  -9  -4     792     131                                                         862    2.51   -2.68  1.0000
  -5  -9   4     776     101                                                         844    2.49    2.74  1.0000
  -5   9   4     537     123                                                         594    2.51    2.68  1.0000
   3  -9  -4    1186     127                                                         850   -8.52    1.80  1.0000
  -3  -9   4    1045     118                                                         729   -8.57   -1.80  1.0000
  -3  -9   4    1074     105                                                         754   -8.57   -1.80  1.0000
  -3   9   4     871     117                                                         586   -8.52   -1.80  1.0000
  -1  -9   4     898     112                                                         673   -5.04   -3.46  1.0000
   1  -9  -4     710     108                                                         511   -5.08    3.42  1.0000
  -1  -9   4     583      84                                                         405   -5.04   -3.46  1.0000
  -1   9   4     479      97                                                         318   -5.08   -3.42  1.0000
   1   9  -4     900      97                                                         675   -5.04    3.46  1.0000
   1  -9   4    1361     135                                                        1264   -2.14    1.63  1.0000
   1  -9   4    1631     139                                                        1525   -2.14    1.63  1.0000
  -1  -9  -4    1477     158                                                        1375   -2.14   -1.56  1.0000
  -1  -9  -4    1446     149                                                        1346   -2.14   -1.56  1.0000
  -1   9  -4    1714     151                                                        1605   -2.14   -1.63  1.0000
   1   9   4    1191     140                                                        1100   -2.14    1.56  1.0000
   3  -9   4     606     110                                                         652    1.13   -0.69  1.0000
  -3  -9  -4     691     121                                                         741    1.17    0.65  1.0000
  -3  -9  -4     741     140                                                         792    1.17    0.65  1.0000
   3  -9   4     589      92                                                         634    1.13   -0.69  1.0000
   3   9   4     533     112                                                         577    1.17   -0.65  1.0000
  -3   9  -4     590     105                                                         635    1.13    0.69  1.0000
  -5  -9  -4    2946     231                                                        3086    1.87   -0.40  1.0000
  -5  -9  -4    2948     193                                                        3088    1.87   -0.40  1.0000
   5  -9   4    2665     194                                                        2800    1.90    0.38  1.0000
  -5   9  -4    3071     198                                                        3216    1.90   -0.38  1.0000
   5   9   4    2930     196                                                        3069    1.87    0.40  1.0000
  -7  -9  -4    1264     175                                                        1134   -2.94    3.45  1.0000
   7  -9   4    1137     150                                                        1014   -2.94   -3.41  1.0000
  -7  -9  -4    1081     139                                                         961   -2.94    3.45  1.0000
   7   9   4    1339     145                                                        1206   -2.94   -3.45  1.0000
  -7   9  -4    1262     152                                                        1133   -2.94    3.41  1.0000
  -8 -10   4      66      99                                                          74    2.83    1.05  1.0000
  -8 -10   4       5      58                                                           3    2.83    1.05  1.0000
   8 -10  -4      12      77                                                          13    2.83   -1.04  1.0000
  -8  10   4       4      88                                                         -55    2.83    1.04  1.0000
  -6 -10   4       1      82                                                         -70   -1.46    0.62  1.0000
   6 -10  -4      55      81                                                          40   -1.45   -0.60  1.0000
   6 -10  -4       1      63                                                         -39   -1.45   -0.60  1.0000
  -6 -10   4       1      53                                                         -65   -1.46    0.62  1.0000
  -6  10   4      75      83                                                          57   -1.45    0.60  1.0000
  -4 -10   4     105      86                                                          58    1.65   -3.66  1.0000
   4 -10  -4      20      78                                                           3    1.66    3.66  1.0000
  -4 -10   4     125      62                                                          73    1.65   -3.66  1.0000
   4 -10  -4       8      69                                                         -27    1.66    3.66  1.0000
  -4  10   4       8      76                                                          -3    1.66   -3.66  1.0000
  -2 -10   4    1048     166                                                        1890   16.03    0.56  1.0000
   2 -10  -4     859     175                                                        1632   16.01   -0.59  1.0000
  -2 -10   4     968     176                                                        1782   16.03    0.56  1.0000
   2 -10  -4     807     164                                                        1559   16.01   -0.59  1.0000
  -2  10   4     804     181                                                        1555   16.01    0.59  1.0000
   0 -10  -4     454     108                                                         388    4.79    4.56  1.0000
   0 -10   4     483      98                                                         416    4.79   -4.54  1.0000
   0 -10   4     615     109                                                         541    4.79   -4.54  1.0000
   0 -10  -4     534     108                                                         464    4.79    4.56  1.0000
   0  10   4     630     124                                                         556    4.79   -4.56  1.0000
   0  10  -4     572      94                                                         500    4.79    4.54  1.0000
   2 -10   4       6      62                                                         -43    3.00   -1.77  1.0000
  -2 -10  -4      14      85                                                          32    3.01    1.77  1.0000
  -2 -10  -4       6      70                                                         -10    3.01    1.77  1.0000
   2 -10   4       6      65                                                         -29    3.00   -1.77  1.0000
   2  10   4      49      83                                                          82    3.01   -1.77  1.0000
  -2  10  -4      14      63                                                          32    3.00    1.77  1.0000
   4 -10   4     488     110                                                         501   -2.58   -4.02  1.0000
  -4 -10  -4     446     125                                                         458   -2.57    4.01  1.0000
  -4 -10  -4     461     107                                                         473   -2.57    4.01  1.0000
   4  10   4     420     111                                                         431   -2.57   -4.01  1.0000
  -4  10  -4     513     107                                                         527   -2.58    4.02  1.0000
  -6 -10  -4     167     107                                                          83    5.29   -4.35  1.0000
   6 -10   4      23      76                                                         -16    5.29    4.36  1.0000
  -6 -10  -4      23      79                                                          -6    5.29   -4.35  1.0000
  -6  10  -4     127      68                                                          55    5.29   -4.36  1.0000
   5 -11  -4    1233     135                                                        1057    4.57   -0.27  1.0000
  -5 -11   4     997     153                                                         840    4.55    0.28  1.0000
   3 -11  -4    3104     216                                                        2941    2.92   -2.23  1.0000
   3 -11  -4    3457     213                                                        3285    2.92   -2.23  1.0000
  -3 -11   4    3419     223                                                        3250    2.89    2.20  1.0000
  -3 -11   4    3316     192                                                        3149    2.89    2.20  1.0000
  -3  11   4    3067     254                                                        2905    2.92    2.23  1.0000
  -1 -11   4     265     103                                                         339   -3.09    0.32  1.0000
  -1 -11   4     377     105                                                         465   -3.09    0.32  1.0000
   1 -11  -4     128      93                                                         182   -3.13   -0.34  1.0000
   1 -11  -4     262     112                                                         337   -3.13   -0.34  1.0000
  -1  11   4     367     121                                                         455   -3.13    0.34  1.0000
  -1 -11  -4    1423     174                                                        1263    2.64    2.64  1.0000
  -1 -11  -4    1738     179                                                        1561    2.64    2.64  1.0000
   1 -11   4    1345     142                                                        1191    2.63   -2.60  1.0000
   1 -11   4    1646     169                                                        1475    2.63   -2.60  1.0000
   1  11   4    1472     172                                                        1309    2.64   -2.64  1.0000
 -17  -1   5    5749     230                                                        6107    3.56   -0.80  1.0000
 -17  -1   5    5653     299                                                        6008    3.56   -0.80  1.0000
 -17   1   5    5995     258                                                        6360   -3.58    0.76  1.0000
 -17   1   5    5742     276                                                        6099   -3.58    0.76  1.0000
 -15  -1   5    2717     133                                                        2415   -4.73    1.11  1.0000
 -15  -1   5    2852     194                                                        2542   -4.73    1.11  1.0000
 -15   1   5    2827     176                                                        2517    4.75   -1.11  1.0000
 -15   1   5    2954     153                                                        2637    4.75   -1.11  1.0000
  13  -1  -5    3025     146                                                        3441   -6.30    0.13  1.0000
 -13  -1   5    3248     205                                                        3675    6.29    0.17  1.0000
 -13  -1   5    3161     143                                                        3583    6.29    0.17  1.0000
 -13   1   5    3022     185                                                        3437   -6.30   -0.13  1.0000
 -13   1   5    3049     162                                                        3466   -6.30   -0.13  1.0000
 -11  -1   5    2206      81                                                        1461  -15.16    1.64  1.0000
  11  -1  -5    2501      93                                                        1705   15.11    1.70  1.0000
 -11  -1   5    2341     143                                                        1572  -15.16    1.64  1.0000
 -11  -1   5    2437      84                                                        1652  -15.16    1.64  1.0000
 -11   1   5    2352     102                                                        1581   15.11   -1.70  1.0000
 -11   1   5    2514     131                                                        1716   15.11   -1.70  1.0000
  -9  -1   5    2954     167                                                        6234   34.93  -10.09  1.0000
  -9  -1   5    2987     166                                                        6282   34.93  -10.09  1.0000
   9  -1  -5    2888     185                                                        6133  -34.88  -10.06  1.0000
  -9  -1   5    2888     242                                                        6138   34.93  -10.09  1.0000
  -9   1   5    3045     199                                                        6362  -34.88   10.06  1.0000
   7  -1  -5   15060     446                                                       19515  -24.45   -3.83  1.0000
  -7  -1   5   15311     421                                                       19797   24.44   -3.78  1.0000
  -7  -1   5   15199     420                                                       19670   24.44   -3.78  1.0000
  -7  -1   5   15481     515                                                       19991   24.44   -3.78  1.0000
  -5  -1   5    2154     160                                                        3599   21.48   -8.22  1.0000
   5  -1  -5    1972     120                                                        3363  -21.52   -8.21  1.0000
  -5  -1   5    2049     103                                                        3461   21.48   -8.22  1.0000
  -5  -1   5    1970     103                                                        3357   21.48   -8.22  1.0000
  -5   1   5    2029     126                                                        3438  -21.52    8.21  1.0000
  -3  -1   5     419      32                                                         103  -14.41   11.48  1.0000
   3  -1  -5     431      39                                                         109   14.45   11.51  1.0000
   3   1  -5     483      31                                                         141  -14.41  -11.48  1.0000
  -3   1   5     225      33                                                          11   14.45  -11.51  1.0000
  -1  -1   5     321      93                                                        2005   39.09   -5.51  1.0000
   1  -1  -5     318     100                                                        1997  -39.09   -5.57  1.0000
  -1   1   5     387     104                                                        2170  -39.09    5.57  1.0000
   1   1  -5     299      90                                                        1948   39.09    5.51  1.0000
  -1  -1  -5   11352     412                                                       16545  -31.84   -1.60  1.0000
   1  -1   5   11176     409                                                       16326   31.81   -1.60  1.0000
  -1   1  -5   11504     406                                                       16722   31.81    1.60  1.0000
   1   1   5   11964     419                                                       17282  -31.84    1.60  1.0000
  -3  -1  -5    8813     354                                                       13043  -29.54   -1.44  1.0000
   3  -1   5    8972     355                                                       13239   29.56   -1.47  1.0000
   3   1   5    8658     356                                                       12854  -29.54    1.44  1.0000
  -3   1  -5    8611     349                                                       12799   29.56    1.47  1.0000
  -5  -1  -5    4534     169                                                        3763    8.44    2.99  1.0000
   5  -1   5    4513     169                                                        3744   -8.43    3.01  1.0000
   5   1   5    4420     167                                                        3659    8.44   -2.99  1.0000
  -5   1  -5    4243     166                                                        3499   -8.43   -3.01  1.0000
  -7  -1  -5    3266     184                                                        3828   -7.53    4.65  1.0000
   7  -1   5    2907     178                                                        3434    7.49    4.65  1.0000
  -7   1  -5    2804     176                                                        3322    7.49   -4.65  1.0000
   7   1   5    3068     180                                                        3613   -7.53   -4.65  1.0000
  -9  -1  -5      47      56                                                          20    0.44    5.17  1.0000
   9  -1   5      70      60                                                          38   -0.44    5.14  1.0000
   9   1   5      76      62                                                          42    0.44   -5.17  1.0000
  -9   1  -5      13      54                                                          -8   -0.44   -5.14  1.0000
 -11  -1  -5    2174     172                                                        2342   -2.55    0.85  1.0000
  11  -1   5    2134     167                                                        2302    2.57    0.85  1.0000
 -11   1  -5    1822     185                                                        1978    2.57   -0.85  1.0000
  11   1   5    1865     176                                                        2021   -2.55   -0.85  1.0000
 -13  -1  -5     587     118                                                         552    3.98    4.48  1.0000
 -13  -1  -5     774     130                                                         736    3.98    4.48  1.0000
  13  -1   5     480     108                                                         446   -4.00    4.49  1.0000
 -13   1  -5     511     114                                                         477   -4.00   -4.49  1.0000
 -13   1  -5     572     101                                                         537   -4.00   -4.49  1.0000
  13   1   5     670     117                                                         634    3.98   -4.48  1.0000
 -16  -2   5    1121     113                                                        1410   -4.07    4.58  1.0000
 -16  -2   5    1024     170                                                        1301   -4.07    4.58  1.0000
 -16   2   5     876     131                                                        1133    4.06   -4.58  1.0000
 -14  -2   5    1019      78                                                         839    4.10   -1.70  1.0000
 -14  -2   5    1050     133                                                         867    4.10   -1.70  1.0000
 -14   2   5     830      98                                                         668   -4.10    1.70  1.0000
 -12  -2   5     314      38                                                         134    7.83   -5.88  1.0000
 -12  -2   5     411      82                                                         201    7.83   -5.88  1.0000
 -12  -2   5     547      44                                                         300    7.83   -5.88  1.0000
  12  -2  -5     238      47                                                          85   -7.82   -5.90  1.0000
 -12   2   5     664      69                                                         390   -7.82    5.90  1.0000
 -10  -2   5      55      62                                                          44   -0.35   -3.87  1.0000
  10  -2  -5       7      38                                                         -16    0.34   -3.86  1.0000
 -10  -2   5      28      24                                                          18   -0.35   -3.87  1.0000
 -10   2   5      11      42                                                           3    0.34    3.86  1.0000
  -8  -2   5    2648     229                                                        5357  -30.57    9.41  1.0000
   8  -2  -5    2755     182                                                        5508   30.56    9.43  1.0000
  -8   2   5    2864     193                                                        5662   30.56   -9.43  1.0000
   6  -2  -5    6668     277                                                       10214   27.33    6.40  1.0000
  -6  -2   5    6882     325                                                       10476  -27.30    6.42  1.0000
  -6   2   5    7113     289                                                       10764   27.33   -6.40  1.0000
  -4  -2   5   10503     280                                                       12312   -9.61    9.51  1.0000
  -4  -2   5   10391     279                                                       12191   -9.61    9.51  1.0000
   4  -2  -5   10525     314                                                       12330    9.56    9.53  1.0000
  -4  -2   5   10811     353                                                       12645   -9.61    9.51  1.0000
  -4   2   5   10594     322                                                       12405    9.56   -9.53  1.0000
  -2  -2   5     333      63                                                         780  -23.11    3.27  1.0000
   2  -2  -5     351      75                                                         812   23.11    3.29  1.0000
   2   2  -5     334      56                                                         781  -23.11   -3.27  1.0000
  -2   2   5     362      79                                                         832   23.11   -3.29  1.0000
   0  -2   5     657      42                                                          92  -47.30   18.41  1.0000
   0  -2  -5     548      46                                                         140   47.33   18.40  1.0000
   0   2   5    1242      42                                                         -10   47.33  -18.40  1.0000
   0   2  -5     793      37                                                          50  -47.30  -18.41  1.0000
  -2  -2  -5    1853     163                                                        3825   32.98    1.16  1.0000
   2  -2   5    2069     163                                                        4143  -33.02    1.21  1.0000
  -2   2  -5    1982     159                                                        4016  -33.02   -1.21  1.0000
   2   2   5    2077     164                                                        4154   32.98   -1.16  1.0000
  -4  -2  -5    8571     285                                                        9038    1.57    7.84  1.0000
   4  -2   5    8603     285                                                        9070   -1.59    7.78  1.0000
  -4   2  -5    8375     281                                                        8836   -1.59   -7.78  1.0000
   4   2   5    8542     284                                                        9008    1.57   -7.84  1.0000
  -6  -2  -5   11813     357                                                       11889    0.59   -0.52  1.0000
   6  -2   5   11422     355                                                       11492   -0.55   -0.50  1.0000
   6   2   5   12170     360                                                       12247    0.59    0.52  1.0000
  -6   2  -5   11370     357                                                       11440   -0.55    0.50  1.0000
  -8  -2  -5     150      72                                                         250    3.35   -4.42  1.0000
   8  -2   5     113      71                                                         201   -3.37   -4.36  1.0000
  -8   2  -5     171      79                                                         276   -3.37    4.36  1.0000
   8   2   5     188      80                                                         298    3.35    4.42  1.0000
 -10  -2  -5     671     111                                                         753    1.71   -2.35  1.0000
  10  -2   5     719     119                                                         806   -1.74   -2.43  1.0000
  10   2   5     918     131                                                        1014    1.71    2.35  1.0000
 -10   2  -5    1001     135                                                        1103   -1.74    2.43  1.0000
  12  -2   5     348      93                                                         300    1.39    1.74  1.0000
 -12  -2  -5     370      97                                                         321   -1.35    1.76  1.0000
 -12  -2  -5     269      96                                                         227   -1.35    1.76  1.0000
  12   2   5      12      70                                                           4   -1.35   -1.76  1.0000
 -12   2  -5     315      76                                                         269    1.39   -1.74  1.0000
 -12   2  -5     189      87                                                         154    1.39   -1.74  1.0000
  14  -2   5     458     110                                                         418    1.59   -1.56  1.0000
 -14  -2  -5     412     113                                                         374   -1.59   -1.60  1.0000
 -14  -2  -5     453     123                                                         413   -1.59   -1.60  1.0000
 -14   2  -5     222      95                                                         194    1.59    1.56  1.0000
  14   2   5     276      92                                                         245   -1.59    1.60  1.0000
 -17  -3   5       9      56                                                         -16    1.28   -4.10  1.0000
 -17  -3   5       9      98                                                         -18    1.28   -4.10  1.0000
 -17   3   5       9      64                                                         -14   -1.29    4.06  1.0000
 -15  -3   5     364     100                                                         297    2.32   -1.40  1.0000
 -15  -3   5     510      65                                                         430    2.32   -1.40  1.0000
 -15   3   5     546      93                                                         463   -2.30    1.41  1.0000
 -13  -3   5     204      52                                                         424  -10.22    4.87  1.0000
  13  -3  -5     261      84                                                         507   10.20    4.83  1.0000
 -13  -3   5     296     116                                                         558  -10.22    4.87  1.0000
 -13  -3   5     288      56                                                         546  -10.22    4.87  1.0000
 -13   3   5     218      88                                                         444   10.20   -4.83  1.0000
  11  -3  -5      18      39                                                         -23    3.55    5.08  1.0000
 -11  -3   5       3      70                                                           8   -3.59    5.05  1.0000
 -11   3   5       1      50                                                          23    3.55   -5.08  1.0000
  -9  -3   5     129      74                                                         124    0.49    2.86  1.0000
   9  -3  -5      43      37                                                          38   -0.46    2.89  1.0000
  -9   3   5      55      49                                                          50   -0.46   -2.89  1.0000
  -7  -3   5    6667     207                                                        4460   23.80   -0.04  1.0000
   7  -3  -5    6597     169                                                        4401  -23.79   -0.10  1.0000
  -5  -3   5     704      39                                                         566   -8.40   15.97  1.0000
   5  -3  -5     761      73                                                         623    8.37   15.97  1.0000
  -5  -3   5     404      73                                                         260   -8.40   15.97  1.0000
  -5  -3   5     597      40                                                         457   -8.40   15.97  1.0000
  -5   3   5     687      75                                                         548    8.37  -15.97  1.0000
   3  -3  -5     673      86                                                        1201   19.07   -4.36  1.0000
  -3  -3   5     664     107                                                        1186  -19.04   -4.38  1.0000
  -3  -3   5     631      66                                                        1139  -19.04   -4.38  1.0000
  -3   3   5     680     101                                                        1211   19.07    4.36  1.0000
   3   3  -5     597      60                                                        1090  -19.04    4.38  1.0000
   1  -3  -5      15      36                                                          -1    3.82    4.04  1.0000
  -1  -3   5      15      32                                                         -12   -3.81    4.08  1.0000
  -1   3   5      15      38                                                         -10    3.82   -4.04  1.0000
   1   3  -5      15      29                                                          -9   -3.81   -4.08  1.0000
  -1  -3  -5     557     103                                                        1188  -25.54   -1.93  1.0000
   1  -3   5     506      96                                                        1101   25.51   -1.94  1.0000
   1   3   5     531     105                                                        1144  -25.54    1.93  1.0000
  -1   3  -5     507      83                                                        1102   25.51    1.94  1.0000
  -3  -3  -5    2670     158                                                        3294    7.32    9.68  1.0000
   3  -3   5    2848     162                                                        3491   -7.31    9.63  1.0000
  -3   3  -5    3083     160                                                        3752   -7.31   -9.63  1.0000
   3   3   5    2786     160                                                        3424    7.32   -9.68  1.0000
  -5  -3  -5    2824     146                                                        2542    7.89   -7.15  1.0000
   5  -3   5    2670     147                                                        2394   -7.87   -7.11  1.0000
   5   3   5    3162     154                                                        2866    7.89    7.15  1.0000
  -5   3  -5    2775     142                                                        2495   -7.87    7.11  1.0000
  -7  -3  -5     808     116                                                        1058    6.08    3.01  1.0000
   7  -3   5     643     111                                                         869   -6.11    2.99  1.0000
  -7   3  -5     653     115                                                         881   -6.11   -2.99  1.0000
   7   3   5     872     122                                                        1132    6.08   -3.01  1.0000
   9  -3   5     923     118                                                         870    1.35   -0.97  1.0000
  -9  -3  -5     849     113                                                         798   -1.34   -0.94  1.0000
  -9   3  -5    1065     128                                                        1008    1.35    0.97  1.0000
   9   3   5     986     125                                                         931   -1.34    0.94  1.0000
  11  -3   5     567     109                                                         581   -0.55    1.71  1.0000
 -11  -3  -5     427     103                                                         440    0.56    1.69  1.0000
 -11  -3  -5     427     110                                                         440    0.56    1.69  1.0000
  11   3   5     703     119                                                         720    0.56   -1.69  1.0000
 -11   3  -5     590     117                                                         605   -0.55   -1.71  1.0000
 -13  -3  -5      36      73                                                          28    0.77   -1.67  1.0000
 -13  -3  -5       2      89                                                         -78    0.77   -1.67  1.0000
  13  -3   5     102      86                                                          89   -0.80   -1.68  1.0000
 -13   3  -5     209      94                                                         191   -0.80    1.68  1.0000
  13   3   5      91      81                                                          79    0.77    1.67  1.0000
 -16  -4   5     912     161                                                         954    1.19    0.05  1.0000
 -16  -4   5    1245      94                                                        1294    1.19    0.05  1.0000
 -16   4   5    1462     159                                                        1516   -1.20   -0.03  1.0000
  14  -4  -5      85      63                                                          97   -1.92   -2.37  1.0000
 -14  -4   5      58      88                                                          67    1.93   -2.41  1.0000
 -14  -4   5      68      41                                                          78    1.93   -2.41  1.0000
 -14   4   5      12      62                                                          13   -1.92    2.37  1.0000
  12  -4  -5    2883     191                                                        3977  -13.48   -4.04  1.0000
 -12  -4   5    3040     237                                                        4162   13.49   -4.03  1.0000
 -12   4   5    3092     205                                                        4222  -13.48    4.04  1.0000
 -10  -4   5     209      84                                                         188    3.06    0.55  1.0000
  10  -4  -5     146      56                                                         128   -3.07    0.55  1.0000
 -10   4   5     228      71                                                         206   -3.07   -0.55  1.0000
   8  -4  -5    1781     118                                                        1415    6.67    1.80  1.0000
  -8  -4   5    1722     142                                                        1363   -6.67    1.79  1.0000
  -8   4   5    1691     122                                                        1335    6.67   -1.80  1.0000
  -6  -4   5    8062     185                                                        7724   -4.37   -3.70  1.0000
  -6  -4   5    7919     184                                                        7584   -4.37   -3.70  1.0000
   6  -4  -5    7995     252                                                        7657    4.38   -3.72  1.0000
  -6  -4   5    8079     282                                                        7740   -4.37   -3.70  1.0000
  -6   4   5    8028     259                                                        7689    4.38    3.72  1.0000
  -4  -4   5    7810     356                                                       15509   51.92  -11.28  1.0000
  -4  -4   5    8089     440                                                       15901   51.92  -11.28  1.0000
   4  -4  -5    7579     403                                                       15186  -51.94  -11.32  1.0000
  -4   4   5    7354     411                                                       14867  -51.94   11.32  1.0000
  -2  -4   5    9252     345                                                       14438   35.42    1.17  1.0000
   2  -4  -5    8385     370                                                       13348  -35.43    1.23  1.0000
  -2  -4   5    8926     386                                                       14029   35.42    1.17  1.0000
   2   4  -5    8608     335                                                       13629   35.42   -1.17  1.0000
  -2   4   5    8409     377                                                       13378  -35.43   -1.23  1.0000
   0  -4   5     380      75                                                         557    5.98   -0.67  1.0000
   0  -4  -5     456      82                                                         646   -5.94   -0.70  1.0000
   0  -4   5     390      71                                                         569    5.98   -0.67  1.0000
   0   4   5     345      77                                                         513   -5.94    0.70  1.0000
   0   4  -5     295      62                                                         452    5.98    0.67  1.0000
   2  -4   5    1537      94                                                         907  -13.71    1.97  1.0000
  -2  -4  -5    1519     100                                                         894   13.69    1.96  1.0000
   2   4   5    1302      93                                                         729   13.69   -1.96  1.0000
  -2   4  -5    1310      87                                                         734  -13.71   -1.97  1.0000
   4  -4   5    2674     157                                                        3156    6.60    1.52  1.0000
  -4  -4  -5    2527     156                                                        2997   -6.61    1.56  1.0000
  -4   4  -5    2428     154                                                        2888    6.60   -1.52  1.0000
   4   4   5    2666     162                                                        3148   -6.61   -1.56  1.0000
   6  -4   5    3274     204                                                        4324   12.37   -0.01  1.0000
  -6  -4  -5    3361     204                                                        4419  -12.32    0.01  1.0000
   6   4   5    3702     206                                                        4809  -12.32   -0.01  1.0000
  -6   4  -5    3656     209                                                        4762   12.37    0.01  1.0000
   8  -4   5    1601     154                                                        1661    1.04   -0.36  1.0000
  -8  -4  -5    1425     144                                                        1483   -1.06   -0.42  1.0000
   8   4   5    1404     143                                                        1462   -1.06    0.42  1.0000
  -8   4  -5    1409     152                                                        1465    1.04    0.36  1.0000
  10  -4   5     209      79                                                         186   -0.26    1.83  1.0000
 -10  -4  -5     282     101                                                         256    0.22    1.87  1.0000
 -10  -4  -5     118      75                                                         101    0.22    1.87  1.0000
 -10   4  -5     290      89                                                         263   -0.26   -1.83  1.0000
  10   4   5     330      92                                                         302    0.22   -1.87  1.0000
  12  -4   5    2668     203                                                        2720    1.16   -1.38  1.0000
 -12  -4  -5    2647     190                                                        2697   -1.13   -1.34  1.0000
 -12  -4  -5    2330     219                                                        2377   -1.13   -1.34  1.0000
  12   4   5    2769     188                                                        2820   -1.13    1.34  1.0000
 -12   4  -5    2458     226                                                        2508    1.16    1.38  1.0000
  15  -5  -5     492     101                                                         452   -0.76   -1.13  1.0000
 -15  -5   5     597     136                                                         553    0.80   -1.12  1.0000
 -15   5   5     469     106                                                         430   -0.76    1.13  1.0000
 -13  -5   5     178     117                                                         352   -9.41   -1.05  1.0000
  13  -5  -5     338     106                                                         572    9.40   -1.09  1.0000
 -13   5   5     272     104                                                         483    9.40    1.09  1.0000
 -11  -5   5     397     116                                                         534   -4.90    2.10  1.0000
  11  -5  -5     361      91                                                         492    4.88    2.12  1.0000
 -11   5   5     236      91                                                         343    4.88   -2.12  1.0000
   9  -5  -5     140      67                                                         218    4.11    1.00  1.0000
  -9  -5   5     162      87                                                         244   -4.07    0.98  1.0000
  -9   5   5     221      75                                                         316    4.11   -1.00  1.0000
  -7  -5   5    2542      92                                                        2629   -1.13    1.74  1.0000
   7  -5  -5    2784     153                                                        2874    1.13    1.67  1.0000
  -7  -5   5    2607      94                                                        2695   -1.13    1.74  1.0000
  -7  -5   5    2837     185                                                        2929   -1.13    1.74  1.0000
  -5  -5   5    6661     345                                                       10545  -31.97    2.95  1.0000
  -5  -5   5    6436     261                                                       10260  -31.97    2.95  1.0000
   5  -5  -5    6222     314                                                        9984   31.93    2.97  1.0000
  -5   5   5    6731     330                                                       10628   31.93   -2.97  1.0000
   3  -5  -5    1682     163                                                        3440   24.53    6.87  1.0000
  -3  -5   5    1822     137                                                        3634  -24.49    6.84  1.0000
  -3  -5   5    1688     178                                                        3444  -24.49    6.84  1.0000
   3   5  -5    1783     128                                                        3580  -24.49   -6.84  1.0000
  -3   5   5    1875     174                                                        3713   24.53   -6.87  1.0000
  -1  -5   5    1353     110                                                        1926  -13.48   -3.13  1.0000
   1  -5  -5    1563     130                                                        2177   13.49   -3.19  1.0000
  -1  -5   5    1287     124                                                        1846  -13.48   -3.13  1.0000
  -1   5   5    1554     132                                                        2166   13.49    3.19  1.0000
   1   5  -5    1382     101                                                        1961  -13.48    3.13  1.0000
  -1  -5  -5     107      43                                                          25   10.12    8.74  1.0000
   1  -5   5      88      43                                                           3  -10.17    8.74  1.0000
   1  -5   5      99      46                                                          16  -10.17    8.74  1.0000
   1   5   5     194      55                                                         117   10.12   -8.74  1.0000
  -1   5  -5     150      41                                                          72  -10.17   -8.74  1.0000
  -3  -5  -5    4878     218                                                        5444    4.70   -4.08  1.0000
   3  -5   5    4315     209                                                        4846   -4.67   -4.11  1.0000
   3   5   5    4050     206                                                        4567    4.70    4.08  1.0000
  -3   5  -5    4901     208                                                        5466   -4.67    4.11  1.0000
  -5  -5  -5     522     110                                                         883    9.62    2.31  1.0000
   5  -5   5     372     103                                                         683   -9.59    2.35  1.0000
  -5   5  -5     319      95                                                         611   -9.59   -2.35  1.0000
   5   5   5     367      97                                                         677    9.62   -2.31  1.0000
   7  -5   5      96      67                                                         108    0.38   -2.06  1.0000
  -7  -5  -5     127      68                                                         141   -0.41   -2.05  1.0000
   7   5   5     130      70                                                         144   -0.41    2.05  1.0000
  -7   5  -5     178      74                                                         195    0.38    2.06  1.0000
   9  -5   5     782     120                                                         737    2.35    2.34  1.0000
  -9  -5  -5     685     123                                                         643   -2.34    2.37  1.0000
  -9  -5  -5     914     122                                                         866   -2.34    2.37  1.0000
  -9   5  -5    1079     135                                                        1027    2.35   -2.34  1.0000
   9   5   5     495     104                                                         459   -2.34   -2.37  1.0000
 -11  -5  -5     222     103                                                         191   -1.98   -0.46  1.0000
 -11  -5  -5     225      86                                                         193   -1.98   -0.46  1.0000
  11  -5   5     424     102                                                         380    1.98   -0.44  1.0000
  11   5   5     353      98                                                         313   -1.98    0.46  1.0000
 -11   5  -5     521     109                                                         472    1.98    0.44  1.0000
 -14  -6   5     219     105                                                         179    2.06    3.50  1.0000
  14  -6  -5     149      79                                                         115   -2.07    3.51  1.0000
 -14   6   5      28      70                                                          12   -2.07   -3.51  1.0000
 -12  -6   5     613     146                                                         827   -5.04    2.79  1.0000
  12  -6  -5     624     121                                                         840    5.06    2.77  1.0000
 -12   6   5     515     121                                                         713    5.06   -2.77  1.0000
 -10  -6   5    1005     153                                                        1148   -3.10   -1.01  1.0000
  10  -6  -5     925     130                                                        1061    3.08   -1.04  1.0000
 -10   6   5     737     124                                                         859    3.08    1.04  1.0000
  -8  -6   5     166      40                                                         214   -3.37   -0.40  1.0000
  -8  -6   5     117      36                                                         157   -3.37   -0.40  1.0000
  -8  -6   5     105      85                                                         144   -3.37   -0.40  1.0000
   8  -6  -5      94      62                                                         131    3.37   -0.39  1.0000
  -6  -6   5    1851     128                                                        3219   20.42  -12.65  1.0000
  -6  -6   5    1736     121                                                        3064   20.42  -12.65  1.0000
   6  -6  -5    1809     175                                                        3161  -20.39  -12.70  1.0000
  -6  -6   5    1790     194                                                        3137   20.42  -12.65  1.0000
  -6   6   5    1866     180                                                        3238  -20.39   12.70  1.0000
   4  -6  -5     268      69                                                         298    2.01   -3.34  1.0000
  -4  -6   5     403      91                                                         442   -2.03   -3.31  1.0000
  -4  -6   5     344      58                                                         380   -2.03   -3.31  1.0000
   4   6  -5     373      55                                                         411   -2.03    3.31  1.0000
  -4   6   5     384      83                                                         422    2.01    3.34  1.0000
  -2  -6   5    1848     107                                                        1673    2.93   -1.14  1.0000
  -2  -6   5    1892     144                                                        1715    2.93   -1.14  1.0000
   2  -6  -5    2200     134                                                        2009   -2.93   -1.13  1.0000
   2   6  -5    1884      99                                                        1708    2.93    1.14  1.0000
  -2   6   5    1724     138                                                        1555   -2.93    1.13  1.0000
   0  -6   5    1307     111                                                        1142    3.78   -5.97  1.0000
   0  -6   5     973      92                                                         829    3.78   -5.97  1.0000
   0  -6  -5    1117     110                                                         965   -3.74   -5.94  1.0000
   0   6   5    1242     118                                                        1082   -3.74    5.94  1.0000
   0   6  -5    1313     104                                                        1148    3.78    5.97  1.0000
   2  -6   5    4677     180                                                        3798   10.95    2.94  1.0000
  -2  -6  -5    4846     189                                                        3949  -10.97    2.91  1.0000
  -2   6  -5    4766     175                                                        3879   10.95   -2.94  1.0000
   2   6   5    4887     192                                                        3986  -10.97   -2.91  1.0000
  -4  -6  -5     425      82                                                         411    0.48   -2.44  1.0000
   4  -6   5     527      91                                                         512   -0.49   -2.51  1.0000
   4   6   5     662     102                                                         645    0.48    2.44  1.0000
  -4   6  -5     595      94                                                         579   -0.49    2.51  1.0000
   6  -6   5     488     114                                                         735   -5.65    5.95  1.0000
  -6  -6  -5     501     110                                                         753    5.69    5.93  1.0000
  -6   6  -5     492     113                                                         740   -5.65   -5.95  1.0000
   6   6   5     580     111                                                         849    5.69   -5.93  1.0000
   8  -6   5     232      89                                                         258   -0.46    2.70  1.0000
  -8  -6  -5     405     109                                                         440    0.46    2.64  1.0000
  -8  -6  -5     241      88                                                         267    0.46    2.64  1.0000
   8   6   5     365      96                                                         398    0.46   -2.64  1.0000
  -8   6  -5     233      92                                                         259   -0.46   -2.70  1.0000
 -10  -6  -5     113     105                                                         169    1.63   -3.25  1.0000
  10  -6   5       1      74                                                          10   -1.66   -3.26  1.0000
 -10  -6  -5      66      75                                                         110    1.63   -3.25  1.0000
 -10   6  -5      88      86                                                         138   -1.66    3.26  1.0000
  10   6   5     121      86                                                         178    1.63    3.25  1.0000
  13  -7  -5    1659     210                                                        2328  -10.97   -2.06  1.0000
 -13  -7   5    1250      92                                                        1836   10.97   -2.01  1.0000
 -13  -7   5    1269     211                                                        1859   10.97   -2.01  1.0000
 -13   7   5    1482     200                                                        2117  -10.97    2.06  1.0000
  11  -7  -5    1192     169                                                        1677   -7.62   -5.33  1.0000
 -11  -7   5     977     178                                                        1420    7.60   -5.35  1.0000
 -11  -7   5     971      81                                                        1412    7.60   -5.35  1.0000
 -11   7   5     886     158                                                        1310   -7.62    5.33  1.0000
   9  -7  -5    3535     233                                                        4841  -12.78   -7.40  1.0000
  -9  -7   5    3991     273                                                        5376   12.83   -7.38  1.0000
  -9  -7   5    3496     159                                                        4799   12.83   -7.38  1.0000
  -7  -7   5    6143     256                                                        4962  -10.99    3.32  1.0000
   7  -7  -5    6012     230                                                        4846   10.99    3.27  1.0000
  -7  -7   5    6097     168                                                        4921  -10.99    3.32  1.0000
  -7   7   5    6206     242                                                        5020   10.99   -3.27  1.0000
  -5  -7   5     415     135                                                         977   16.63   -1.27  1.0000
   5  -7  -5     574     134                                                        1219  -16.67   -1.26  1.0000
  -5  -7   5     480      94                                                        1077   16.63   -1.27  1.0000
  -5   7   5     490     131                                                        1094  -16.67    1.26  1.0000
  -3  -7   5    1209     146                                                        1529    5.93   -6.98  1.0000
  -3  -7   5    1280     109                                                        1610    5.93   -6.98  1.0000
   3  -7  -5    1321     149                                                        1655   -5.90   -6.96  1.0000
  -3   7   5    1558     167                                                        1920   -5.90    6.96  1.0000
   3   7  -5    1247     101                                                        1572    5.93    6.98  1.0000
  -1  -7   5    2582     177                                                        3280    9.09    3.26  1.0000
   1  -7  -5    2612     180                                                        3314   -9.09    3.22  1.0000
  -1  -7   5    2534     159                                                        3225    9.09    3.26  1.0000
   1   7  -5    2851     155                                                        3582    9.09   -3.26  1.0000
  -1   7   5    2581     189                                                        3278   -9.09   -3.22  1.0000
  -1  -7  -5    2132     158                                                        2317   -2.23   -2.29  1.0000
   1  -7   5    2251     144                                                        2440    2.20   -2.32  1.0000
   1  -7   5    2177     148                                                        2363    2.20   -2.32  1.0000
   1   7   5    2131     155                                                        2316   -2.23    2.29  1.0000
  -1   7  -5    2309     141                                                        2500    2.20    2.32  1.0000
  -3  -7  -5     176      72                                                         197   -5.38    3.75  1.0000
   3  -7   5     149      66                                                         167    5.41    3.75  1.0000
  -3   7  -5     302      73                                                         337    5.41   -3.75  1.0000
   3   7   5     298      90                                                         331   -5.38   -3.75  1.0000
   5  -7   5    3955     235                                                        5006   11.28    1.20  1.0000
  -5  -7  -5    3573     227                                                        4573  -11.27    1.15  1.0000
  -5   7  -5    3877     228                                                        4918   11.28   -1.20  1.0000
   5   7   5    4054     237                                                        5116  -11.27   -1.15  1.0000
  -7  -7  -5    3332     203                                                        3517   -2.67   -2.91  1.0000
   7  -7   5    3382     210                                                        3567    2.65   -2.92  1.0000
  -7  -7  -5    3423     234                                                        3610   -2.67   -2.91  1.0000
   7   7   5    3478     206                                                        3667   -2.67    2.91  1.0000
  -7   7  -5    3617     216                                                        3808    2.65    2.92  1.0000
  -9  -7  -5     944     159                                                         979   -1.60    1.62  1.0000
   9  -7   5    1130     156                                                        1169    1.62    1.62  1.0000
  -9  -7  -5    1262     154                                                        1303   -1.60    1.62  1.0000
   9   7   5    1266     154                                                        1307   -1.60   -1.62  1.0000
  -9   7  -5    1231     166                                                        1272    1.62   -1.62  1.0000
 -12  -8   5      12      88                                                         -70   -3.78    3.40  1.0000
  12  -8  -5      12      76                                                         -18    3.79    3.40  1.0000
 -12  -8   5      59      43                                                          42   -3.78    3.40  1.0000
 -12   8   5      12      60                                                        -112    3.79   -3.40  1.0000
 -10  -8   5     697      83                                                         888   -4.58    8.20  1.0000
 -10  -8   5     730     159                                                         926   -4.58    8.20  1.0000
  10  -8  -5     822     145                                                        1031    4.58    8.14  1.0000
   8  -8  -5     129      66                                                          25   -9.56   -1.31  1.0000
  -8  -8   5     181      83                                                          51    9.57   -1.34  1.0000
  -8  -8   5     260      51                                                          98    9.57   -1.34  1.0000
  -8   8   5     269      84                                                         104   -9.56    1.31  1.0000
   6  -8  -5    1670     183                                                        1998    4.08    5.27  1.0000
  -6  -8   5    1528     116                                                        1841   -4.06    5.29  1.0000
  -6  -8   5    1406     182                                                        1707   -4.06    5.29  1.0000
  -6   8   5    1590     181                                                        1910    4.08   -5.27  1.0000
  -4  -8   5     165      47                                                           4  -19.85    1.51  1.0000
   4  -8  -5     140      63                                                          53   19.80    1.42  1.0000
  -4  -8   5     140      77                                                          85  -19.85    1.51  1.0000
  -4   8   5     190      68                                                         -17   19.80   -1.42  1.0000
   2  -8  -5     219      93                                                         428    7.57   -3.86  1.0000
  -2  -8   5     188      74                                                         385   -7.58   -3.92  1.0000
  -2  -8   5     235      94                                                         451   -7.58   -3.92  1.0000
  -2   8   5     216      97                                                         423    7.57    3.86  1.0000
   2   8  -5     174      72                                                         365   -7.58    3.92  1.0000
   0  -8  -5       5      59                                                         -37   -2.01    2.48  1.0000
   0  -8   5      72      64                                                          50    2.05    2.52  1.0000
   0  -8   5      43      50                                                          26    2.05    2.52  1.0000
   0   8   5     159      75                                                         128   -2.01   -2.48  1.0000
   0   8  -5     101      52                                                          76    2.05   -2.52  1.0000
  -2  -8  -5     258      80                                                         166   -5.04   -4.84  1.0000
   2  -8   5     328      75                                                         225    5.02   -4.81  1.0000
   2  -8   5     263      70                                                         170    5.02   -4.81  1.0000
  -2   8  -5     255      69                                                         164    5.02    4.81  1.0000
   2   8   5     303      81                                                         204   -5.04    4.84  1.0000
   4  -8   5    2499     181                                                        2866   -4.85   -2.74  1.0000
  -4  -8  -5    2184     173                                                        2526    4.84   -2.71  1.0000
   4   8   5    2178     178                                                        2520    4.84    2.71  1.0000
  -4   8  -5    2019     164                                                        2350   -4.85    2.74  1.0000
  -6  -8  -5     237      84                                                         200    0.44   -5.30  1.0000
  -6  -8  -5     390     116                                                         345    0.44   -5.30  1.0000
   6  -8   5     186      79                                                         151   -0.39   -5.29  1.0000
  -6   8  -5     363      89                                                         318   -0.39    5.29  1.0000
   6   8   5     217      84                                                         181    0.44    5.30  1.0000
   8  -8   5    1657     177                                                        1485    3.17   -1.42  1.0000
  -8  -8  -5    1594     163                                                        1425   -3.18   -1.46  1.0000
  -8  -8  -5    1923     204                                                        1737   -3.18   -1.46  1.0000
  -8   8  -5    2192     189                                                        1994    3.17    1.42  1.0000
   8   8   5    1299     152                                                        1147   -3.18    1.46  1.0000
 -11  -9   5    1308     175                                                        1175    2.40   -1.31  1.0000
  -9  -9   5    1027     114                                                        1345   -5.47    4.58  1.0000
   9  -9  -5    1020     163                                                        1339    5.50    4.58  1.0000
  -9  -9   5    1257     197                                                        1607   -5.47    4.58  1.0000
  -9   9   5    1368     196                                                        1734    5.50   -4.58  1.0000
  -7  -9   5      71      53                                                          62    0.94   -2.50  1.0000
  -7  -9   5       3      77                                                         -65    0.94   -2.50  1.0000
   7  -9  -5     163      83                                                         150   -0.95   -2.55  1.0000
  -7   9   5     136      86                                                         124   -0.95    2.55  1.0000
  -5  -9   5    2357     134                                                        1963    6.01   -2.98  1.0000
   5  -9  -5    2169     182                                                        1790   -6.03   -2.96  1.0000
  -5  -9   5    2368     194                                                        1973    6.01   -2.98  1.0000
  -5   9   5    2072     176                                                        1702   -6.03    2.96  1.0000
   3  -9  -5    1770     129                                                         871  -18.30   -0.80  1.0000
  -3  -9   5    1769     107                                                         870   18.33   -0.82  1.0000
  -3  -9   5    1722     128                                                         837   18.33   -0.82  1.0000
  -3   9   5    1840     138                                                         921  -18.30    0.80  1.0000
   1  -9  -5     122      82                                                         156    1.66   -6.28  1.0000
  -1  -9   5      17      68                                                          11   -1.64   -6.24  1.0000
  -1  -9   5      20      53                                                           0   -1.64   -6.24  1.0000
   1   9  -5      16      55                                                          10   -1.64    6.24  1.0000
  -1   9   5      20      69                                                         -18    1.66    6.28  1.0000
  -1  -9  -5     331      94                                                         311    0.70   -5.06  1.0000
   1  -9   5     602      98                                                         580   -0.72   -5.07  1.0000
   1  -9   5     653     104                                                         630   -0.72   -5.07  1.0000
  -1   9  -5     598      99                                                         576   -0.72    5.07  1.0000
   1   9   5     489     111                                                         467    0.70    5.06  1.0000
   3  -9   5     542     102                                                         527    0.15   -5.18  1.0000
   3  -9   5     446      83                                                         431    0.15   -5.18  1.0000
  -3  -9  -5     331      99                                                         317   -0.14   -5.16  1.0000
  -3   9  -5     368      86                                                         353    0.15    5.18  1.0000
   3   9   5     306      98                                                         292   -0.14    5.16  1.0000
   5  -9   5      55      68                                                          13    5.94    1.54  1.0000
  -5  -9  -5     130      94                                                          61   -5.93    1.50  1.0000
  -5  -9  -5     161      77                                                          83   -5.93    1.50  1.0000
   5   9   5     238      89                                                         142   -5.93   -1.50  1.0000
  -5   9  -5     159      75                                                          82    5.94   -1.54  1.0000
  -7  -9  -5     646     146                                                         704    1.61    0.36  1.0000
   7  -9   5     508     120                                                         560   -1.63    0.35  1.0000
  -7  -9  -5     613     122                                                         670    1.61    0.36  1.0000
   7   9   5     820     141                                                         885    1.61   -0.36  1.0000
  -7   9  -5     708     132                                                         769   -1.63   -0.35  1.0000
  -8 -10   5     462     135                                                         515    1.79    0.53  1.0000
  -8 -10   5     741     106                                                         808    1.79    0.53  1.0000
   8 -10  -5     894     154                                                         968   -1.80    0.53  1.0000
  -8  10   5     659     145                                                         722   -1.80   -0.53  1.0000
  -6 -10   5     775     107                                                         863    2.07   -1.04  1.0000
  -6 -10   5     486     135                                                         556    2.07   -1.04  1.0000
   6 -10  -5     474     124                                                         543   -2.06   -1.02  1.0000
  -6  10   5     534     135                                                         607   -2.06    1.02  1.0000
   4 -10  -5    1381     171                                                        1484   -2.71    2.52  1.0000
  -4 -10   5    1269     172                                                        1367    2.71    2.55  1.0000
  -4 -10   5    1314     141                                                        1414    2.71    2.55  1.0000
  -4  10   5    1407     181                                                        1511   -2.71   -2.52  1.0000
  -2 -10   5      28      60                                                          30   -0.11    0.89  1.0000
  -2 -10   5       0      67                                                        -113   -0.11    0.89  1.0000
   2 -10  -5     116      93                                                         120    0.09    0.89  1.0000
  -2  10   5       0      80                                                         -20    0.09   -0.89  1.0000
   0 -10  -5    1644     197                                                        1999   -5.22   -3.23  1.0000
   0 -10   5    2105     172                                                        2507    5.24   -3.25  1.0000
   0 -10   5    2022     179                                                        2416    5.24   -3.25  1.0000
   0  10   5    1637     200                                                        1991   -5.22    3.23  1.0000
   2 -10   5    1472     157                                                        1470   -0.03    0.05  1.0000
  -2 -10  -5    1076     150                                                        1075    0.02    0.00  1.0000
   2 -10   5    1356     137                                                        1354   -0.03    0.05  1.0000
  -2 -10  -5    1351     179                                                        1350    0.02    0.00  1.0000
   2  10   5    1504     173                                                        1503    0.02    0.00  1.0000
  -2  10  -5    1428     154                                                        1426   -0.03   -0.05  1.0000
   4 -10   5    2037     186                                                        1920   -1.82   -1.31  1.0000
  -4 -10  -5    1602     191                                                        1499    1.81   -1.29  1.0000
  -4 -10  -5    1912     180                                                        1799    1.81   -1.29  1.0000
   4  10   5    1622     179                                                        1518    1.81    1.29  1.0000
  -4  10  -5    2005     182                                                        1889   -1.82    1.31  1.0000
  -3 -11   5      89     105                                                         188   -5.41   -2.91  1.0000
   3 -11  -5       4      86                                                          39    5.43   -2.90  1.0000
   1 -11  -5       0      80                                                         -31   -0.36    0.90  1.0000
  -1 -11   5      37      75                                                          30    0.36    0.93  1.0000
 -16   0   6    1221     121                                                        1644   -7.59    3.61  1.0000
 -16   0   6    1293     175                                                        1727   -7.59    3.61  1.0000
 -14   0   6    1865     109                                                        1674    5.16    1.00  1.0000
 -14   0   6    1468     149                                                        1298    5.16    1.00  1.0000
 -12   0   6      15      64                                                         -22   -4.26   -3.50  1.0000
 -12   0   6      80      46                                                         114   -4.26   -3.50  1.0000
 -10   0   6   26541     493                                                       17618   40.15  -16.73  1.0000
  -8   0   6   19699     403                                                       17445   13.23    0.18  1.0000
   6   0  -6    1229      62                                                         982   -8.27    6.21  1.0000
  -6   0   6    1295      69                                                        1042   -8.27   -6.21  1.0000
   4   0  -6     893      67                                                        1004    1.98   -5.57  1.0000
  -4   0   6    1139      76                                                        1266    1.98    5.57  1.0000
   2   0  -6    2588     198                                                        6658   51.65   13.14  1.0000
  -2   0   6    2529     201                                                        6558   51.65  -13.14  1.0000
   0   0   6   20395     374                                                       14376   33.05    5.53  1.0000
   0   0  -6   20522     370                                                       14482   33.05   -5.53  1.0000
   2   0   6    2986     154                                                        3225   -3.33   -3.15  1.0000
  -2   0  -6    2946     149                                                        3183   -3.33    3.15  1.0000
  -4   0  -6    9492     339                                                       11360  -11.56   -7.93  1.0000
   4   0   6    9550     343                                                       11423  -11.56    7.93  1.0000
  -6   0  -6    8307     287                                                        8082    1.74   -2.38  1.0000
   6   0   6    8722     293                                                        8492    1.74    2.38  1.0000
  -8   0  -6    1352     152                                                        1570   -1.72   -8.14  1.0000
   8   0   6    1370     152                                                        1590   -1.72    8.14  1.0000
  10   0   6    2309     181                                                        2546   -3.33   -1.06  1.0000
 -10   0  -6    2676     193                                                        2930   -3.33    1.06  1.0000
 -12   0  -6     144      99                                                         287   -7.56   -4.69  1.0000
  12   0   6     182      93                                                         341   -7.56    4.69  1.0000
 -17  -1   6      36      53                                                          34   -0.13    0.20  1.0000
 -17  -1   6       0      87                                                        -135   -0.13    0.20  1.0000
 -17   1   6     143      67                                                         139   -0.13    0.19  1.0000
 -17   1   6       0      90                                                         -15   -0.13    0.19  1.0000
 -15  -1   6     915      95                                                        1064    2.98   -2.80  1.0000
 -15  -1   6     938     151                                                        1089    2.98   -2.80  1.0000
 -15   1   6     851     109                                                         994    2.98   -2.79  1.0000
 -15   1   6     911     142                                                        1059    2.98   -2.79  1.0000
 -13  -1   6     226      50                                                         241    0.27   -2.03  1.0000
 -13  -1   6      80      80                                                          88    0.27   -2.03  1.0000
 -13   1   6     206      61                                                         220    0.26   -2.05  1.0000
 -13   1   6     170      75                                                         183    0.26   -2.05  1.0000
 -11  -1   6      83      32                                                          38  -18.11    2.69  1.0000
 -11  -1   6     121      31                                                           6  -18.11    2.69  1.0000
  11  -1  -6     162      33                                                          -3  -18.11   -2.72  1.0000
 -11  -1   6      73      67                                                          75  -18.11    2.69  1.0000
 -11   1   6     162      40                                                          -9  -18.11    2.72  1.0000
  -9  -1   6     820      37                                                         236  -19.22    0.98  1.0000
  -9  -1   6     685      36                                                         166  -19.22    0.98  1.0000
  -9  -1   6     435      65                                                          57  -19.22    0.98  1.0000
   9  -1  -6     684      45                                                         166  -19.20   -0.99  1.0000
  -7  -1   6    2507      96                                                        2796    1.42   -4.46  1.0000
  -7  -1   6    2467     161                                                        2753    1.42   -4.46  1.0000
   7  -1  -6    2654     114                                                        2951    1.40    4.48  1.0000
  -7  -1   6    2501      96                                                        2789    1.42   -4.46  1.0000
  -7   1   6    2305     117                                                        2582    1.40   -4.48  1.0000
  -5  -1   6     129      36                                                         177    6.25    8.02  1.0000
   5  -1  -6     130      41                                                         178    6.26   -8.04  1.0000
  -5   1   6     161      48                                                         220    6.26    8.04  1.0000
  -3  -1   6     926      32                                                          61  -32.05    7.92  1.0000
   3  -1  -6     778      35                                                          27  -32.04   -7.92  1.0000
   3   1  -6     525      28                                                         -38  -32.05   -7.92  1.0000
  -3   1   6     826      36                                                          37  -32.04    7.92  1.0000
  -1  -1   6    1294     127                                                        3085  -35.39   10.58  1.0000
   1  -1  -6    1326     133                                                        3138  -35.40  -10.58  1.0000
  -1   1   6    1225     134                                                        2970  -35.40   10.58  1.0000
   1   1  -6    1029     117                                                        2634  -35.39  -10.58  1.0000
   1  -1   6    1390     105                                                        1235   -3.22   -0.80  1.0000
  -1  -1  -6    1288     104                                                        1139   -3.20    0.80  1.0000
   1   1   6    1471     111                                                        1312   -3.20   -0.80  1.0000
  -1   1  -6    1215      94                                                        1070   -3.22    0.80  1.0000
  -3  -1  -6    1164     117                                                        1370   12.89   -5.39  1.0000
   3  -1   6    1063     114                                                        1257   12.90    5.37  1.0000
  -3   1  -6     928     106                                                        1104   12.90   -5.37  1.0000
   3   1   6     866     106                                                        1033   12.89    5.39  1.0000
   5  -1   6    3897     188                                                        3822   -1.45   -2.57  1.0000
  -5  -1  -6    3845     185                                                        3771   -1.45    2.58  1.0000
   5   1   6    4324     190                                                        4246   -1.45   -2.58  1.0000
  -5   1  -6    4064     184                                                        3988   -1.45    2.57  1.0000
   7  -1   6      18      53                                                          26   -1.19   -1.71  1.0000
  -7  -1  -6       2      48                                                         -32   -1.18    1.72  1.0000
  -7   1  -6       2      53                                                         -36   -1.19    1.71  1.0000
   7   1   6       2      50                                                         -87   -1.18   -1.72  1.0000
   9  -1   6    1765     164                                                        1761   -0.02   -0.46  1.0000
  -9  -1  -6    1538     153                                                        1534   -0.02    0.43  1.0000
   9   1   6    1672     160                                                        1668   -0.02   -0.43  1.0000
  -9   1  -6    1705     164                                                        1701   -0.02    0.46  1.0000
 -11  -1  -6      47      70                                                          12    4.34   -2.47  1.0000
  11  -1   6      12      70                                                         -21    4.33    2.47  1.0000
 -11   1  -6     184      76                                                         104    4.33   -2.47  1.0000
  11   1   6      53      67                                                          15    4.34    2.47  1.0000
 -13  -1  -6     216     104                                                         218   -0.13   -0.57  1.0000
 -13  -1  -6     317     104                                                         319   -0.13   -0.57  1.0000
  13  -1   6     328     101                                                         330   -0.13    0.57  1.0000
 -13   1  -6      14      83                                                          14   -0.13   -0.57  1.0000
  13   1   6     205      92                                                         207   -0.13    0.57  1.0000
 -13   1  -6     112      85                                                         113   -0.13   -0.57  1.0000
 -16  -2   6       3      92                                                           3    0.11    0.32  1.0000
 -16  -2   6       0      44                                                          -9    0.11    0.32  1.0000
 -16   2   6       0      59                                                         -31    0.12    0.30  1.0000
 -14  -2   6     817     114                                                         528  -11.66    3.00  1.0000
 -14  -2   6     735      55                                                         461  -11.66    3.00  1.0000
 -14   2   6     635      84                                                         379  -11.65    3.02  1.0000
 -12  -2   6    1911     179                                                        2376    7.75   -0.11  1.0000
 -12  -2   6    1841      89                                                        2297    7.75   -0.11  1.0000
  12  -2  -6    1943     124                                                        2411    7.74    0.13  1.0000
 -12  -2   6    1781      86                                                        2230    7.75   -0.11  1.0000
 -12   2   6    1813     138                                                        2266    7.74   -0.13  1.0000
  10  -2  -6     163      39                                                          19  -10.25   -7.27  1.0000
 -10  -2   6     221      68                                                          43  -10.25    7.27  1.0000
 -10   2   6     368      51                                                         121  -10.25    7.27  1.0000
   8  -2  -6    4727     149                                                        3857   -7.88   -8.11  1.0000
  -8  -2   6    4863     199                                                        3980   -7.89    8.11  1.0000
  -8   2   6    4951     161                                                        4060   -7.88    8.11  1.0000
  -6  -2   6     319      23                                                          28  -27.09   10.74  1.0000
  -6  -2   6     309      63                                                          39  -27.09   10.74  1.0000
   6  -2  -6     346      34                                                          11  -27.08  -10.75  1.0000
  -6  -2   6     313      23                                                          34  -27.09   10.74  1.0000
  -6   2   6     409      37                                                         -40  -27.08   10.75  1.0000
  -4  -2   6    5650     175                                                        6417    1.80  -12.90  1.0000
   4  -2  -6    5472     197                                                        6228    1.80   12.92  1.0000
  -4   2   6    5218     203                                                        5955    1.80  -12.92  1.0000
  -2  -2   6    1161      79                                                        1200   -0.86    5.04  1.0000
   2  -2  -6    1190      87                                                        1230   -0.84   -5.06  1.0000
   2   2  -6    1181      75                                                        1220   -0.86   -5.04  1.0000
  -2   2   6    1116      97                                                        1155   -0.84    5.06  1.0000
   0  -2  -6    1015      97                                                        1006    1.91   -2.85  1.0000
   0  -2   6    1107      94                                                        1099    1.90    2.84  1.0000
   0   2   6    1152     103                                                        1143    1.91    2.85  1.0000
   0   2  -6    1092      81                                                        1084    1.90   -2.84  1.0000
   2  -2   6    2355     109                                                        1451  -21.17    5.48  1.0000
  -2  -2  -6    2736     113                                                        1763  -21.17   -5.48  1.0000
   2   2   6    2524     112                                                        1589  -21.17    5.48  1.0000
  -2   2  -6    2685     110                                                        1721  -21.17   -5.48  1.0000
  -4  -2  -6     783      98                                                         720   -2.40    4.39  1.0000
   4  -2   6    1090     109                                                        1017   -2.41   -4.38  1.0000
  -4   2  -6    1172     112                                                        1097   -2.41    4.38  1.0000
   4   2   6     956     105                                                         888   -2.40   -4.39  1.0000
   6  -2   6     567      95                                                         587    0.06    3.00  1.0000
  -6  -2  -6     498      90                                                         517    0.07   -3.05  1.0000
  -6   2  -6     863     113                                                         888    0.06   -3.00  1.0000
   6   2   6     556      95                                                         576    0.07    3.05  1.0000
   8  -2   6     275      82                                                         276   -0.50   -2.74  1.0000
  -8  -2  -6     418      89                                                         420   -0.51    2.75  1.0000
  -8   2  -6     272      86                                                         273   -0.50    2.74  1.0000
   8   2   6     247      79                                                         247   -0.51   -2.75  1.0000
  10  -2   6    2186     190                                                        2138   -1.12    1.79  1.0000
 -10  -2  -6    2606     174                                                        2555   -1.11   -1.77  1.0000
  10   2   6    2391     173                                                        2342   -1.11    1.77  1.0000
 -10   2  -6    2027     188                                                        1981   -1.12   -1.79  1.0000
  12  -2   6      87      78                                                          76   -0.17   -2.28  1.0000
 -12  -2  -6      80      79                                                          69   -0.17    2.26  1.0000
 -12  -2  -6     264     100                                                         246   -0.17    2.26  1.0000
 -12   2  -6     130      86                                                         117   -0.17    2.28  1.0000
  12   2   6     378     103                                                         357   -0.17   -2.26  1.0000
 -17  -3   6    2605     121                                                        2422    1.44   -2.48  1.0000
 -17  -3   6    2026     214                                                        1865    1.44   -2.48  1.0000
 -17   3   6    2219     181                                                        2050    1.45   -2.48  1.0000
 -15  -3   6    1184     164                                                        1079    1.96   -1.36  1.0000
 -15  -3   6    1442      80                                                        1326    1.96   -1.36  1.0000
 -15   3   6    1420     139                                                        1304    1.97   -1.35  1.0000
  13  -3  -6    1286     117                                                        1282    0.09    0.23  1.0000
 -13  -3   6    1038     149                                                        1034    0.09   -0.24  1.0000
 -13   3   6    1210     126                                                        1206    0.09   -0.23  1.0000
  11  -3  -6     466      74                                                         487    7.32   -0.41  1.0000
 -11  -3   6     202      92                                                         207    7.30    0.43  1.0000
 -11   3   6     351      78                                                         366    7.32    0.41  1.0000
  -9  -3   6    4131     197                                                        3385    5.94   -8.07  1.0000
   9  -3  -6    4000     151                                                        3267    5.92    8.07  1.0000
  -7  -3   6     860      82                                                         274   17.35   -7.73  1.0000
   7  -3  -6    1419      77                                                         623   17.35    7.73  1.0000
  -7   3   6    1251      76                                                         513   17.35   -7.73  1.0000
   5  -3  -6   17538     365                                                       13573   21.37    8.50  1.0000
  -5  -3   6   17837     316                                                       13838   21.37   -8.46  1.0000
  -5  -3   6   18276     410                                                       14225   21.37   -8.46  1.0000
  -5  -3   6   17832     315                                                       13833   21.37   -8.46  1.0000
  -5   3   6   17657     375                                                       13678   21.37   -8.50  1.0000
  -3  -3   6    1408      53                                                         348   28.61   -1.79  1.0000
  -3  -3   6    1439      80                                                         364   28.61   -1.79  1.0000
   3  -3  -6    1601      69                                                         450   28.61    1.77  1.0000
   3   3  -6    1618      51                                                         459   28.61    1.79  1.0000
  -3   3   6    1712      76                                                         511   28.61   -1.77  1.0000
   1  -3  -6    1146      80                                                         622   18.45   12.93  1.0000
  -1  -3   6    1112      70                                                         594   18.44  -12.93  1.0000
  -1   3   6     906      73                                                         429   18.45  -12.93  1.0000
   1   3  -6    1080      65                                                         568   18.44   12.93  1.0000
  -1  -3  -6    1841     121                                                        1852    1.02   -4.06  1.0000
   1  -3   6    2055     117                                                        2067    1.02    4.05  1.0000
  -1   3  -6    1718     107                                                        1728    1.02   -4.05  1.0000
   1   3   6    1948     127                                                        1959    1.02    4.06  1.0000
   3  -3   6    5114     218                                                        5659   -5.77   -0.84  1.0000
  -3  -3  -6    5428     227                                                        5988   -5.76    0.84  1.0000
   3   3   6    4763     216                                                        5288   -5.76   -0.84  1.0000
  -3   3  -6    5370     218                                                        5928   -5.77    0.84  1.0000
   5  -3   6    1588     139                                                        1499    1.73    1.95  1.0000
  -5  -3  -6    1491     133                                                        1404    1.73   -1.94  1.0000
   5   3   6    1558     139                                                        1469    1.73    1.94  1.0000
  -5   3  -6    1518     133                                                        1431    1.73   -1.95  1.0000
  -7  -3  -6     417      93                                                         483   -2.26   -0.29  1.0000
   7  -3   6     272      84                                                         326   -2.26    0.29  1.0000
   7   3   6     108      71                                                         143   -2.26    0.29  1.0000
  -7   3  -6     425      93                                                         492   -2.26   -0.29  1.0000
   9  -3   6      51      66                                                          51   -1.33    2.12  1.0000
  -9  -3  -6      39      66                                                          39   -1.31   -2.11  1.0000
   9   3   6     217      80                                                         221   -1.31    2.11  1.0000
  -9   3  -6      57      73                                                          58   -1.33   -2.12  1.0000
  11  -3   6    3045     215                                                        3331   -3.76    0.39  1.0000
 -11   3  -6    3269     221                                                        3565   -3.76   -0.39  1.0000
  11   3   6    3335     216                                                        3634   -3.76    0.40  1.0000
 -13  -3  -6    2003     208                                                        2083   -1.03   -1.22  1.0000
 -16  -4   6       3      92                                                           3   -0.27   -1.17  1.0000
 -16   4   6       1      71                                                         -32   -0.27   -1.18  1.0000
  14  -4  -6      85      62                                                          62   -1.36    2.33  1.0000
 -14  -4   6      77      93                                                          55   -1.38   -2.35  1.0000
 -14   4   6      24      63                                                          12   -1.36   -2.33  1.0000
  12  -4  -6      82      48                                                          45   -9.78    0.82  1.0000
 -12  -4   6      52      77                                                          10   -9.76   -0.82  1.0000
 -12   4   6     169      64                                                         139   -9.78   -0.82  1.0000
 -10  -4   6     174      71                                                          48   -9.39    5.02  1.0000
  10  -4  -6     181      50                                                          52   -9.39   -5.01  1.0000
  -8  -4   6     731      95                                                         395  -11.31    2.07  1.0000
   8  -4  -6     718      71                                                         386  -11.26   -2.09  1.0000
  -8   4   6     687      73                                                         363  -11.26    2.09  1.0000
  -6  -4   6    1394     146                                                        1501   -2.09   -7.15  1.0000
  -6  -4   6    1651      74                                                        1770   -2.09   -7.15  1.0000
   6  -4  -6    1889     121                                                        2017   -2.08    7.11  1.0000
  -6  -4   6    1811      76                                                        1937   -2.09   -7.15  1.0000
  -6   4   6    1782     124                                                        1905   -2.08   -7.11  1.0000
  -4  -4   6     103      70                                                         169   -8.23    1.74  1.0000
   4  -4  -6     155      61                                                         240   -8.24   -1.73  1.0000
  -4  -4   6     182      46                                                         276   -8.23    1.74  1.0000
  -4   4   6     225      70                                                         331   -8.24    1.73  1.0000
   2  -4  -6      84      54                                                         161  -10.57   -0.76  1.0000
  -2  -4   6     138      53                                                         246  -10.60    0.79  1.0000
  -2  -4   6      70      67                                                         136  -10.60    0.79  1.0000
   2   4  -6      90      42                                                         170  -10.60   -0.79  1.0000
  -2   4   6      60      53                                                         117  -10.57    0.76  1.0000
   0  -4   6    1816     131                                                        2589  -13.28    2.27  1.0000
   0  -4  -6    1777     142                                                        2543  -13.28   -2.31  1.0000
   0   4   6    1696     144                                                        2445  -13.28    2.31  1.0000
   0   4  -6    1745     125                                                        2503  -13.28   -2.27  1.0000
  -2  -4  -6    8755     330                                                       10724   13.49    5.25  1.0000
   2  -4   6    8450     321                                                       10387   13.50   -5.22  1.0000
   2   4   6    8958     338                                                       10948   13.49   -5.25  1.0000
  -2   4  -6    8840     320                                                       10818   13.50    5.22  1.0000
  -4  -4  -6    1826     140                                                        2003    2.93    0.34  1.0000
   4  -4   6    1547     144                                                        1709    2.92   -0.34  1.0000
   4   4   6    1833     140                                                        2010    2.93   -0.34  1.0000
  -4   4  -6    1710     132                                                        1880    2.92    0.34  1.0000
  -6  -4  -6    1460     135                                                        1344    2.34    3.09  1.0000
   6  -4   6    1582     142                                                        1462    2.32   -3.12  1.0000
  -6   4  -6    1663     149                                                        1540    2.32    3.12  1.0000
   6   4   6    1651     144                                                        1528    2.34   -3.09  1.0000
   8  -4   6     189      67                                                          92    3.86    4.88  1.0000
  -8  -4  -6      19      60                                                          -7    3.85   -4.88  1.0000
  -8   4  -6      19      57                                                         -52    3.86   -4.88  1.0000
   8   4   6     120      70                                                          46    3.85    4.88  1.0000
  10  -4   6     109      82                                                         104    0.56   -1.61  1.0000
 -10  -4  -6       1      70                                                         -27    0.60    1.64  1.0000
  10   4   6     139      82                                                         134    0.60   -1.64  1.0000
 -10   4  -6     122      76                                                         117    0.56    1.61  1.0000
  12  -4   6       0      76                                                         -74   -0.29    0.75  1.0000
 -12  -4  -6       0      93                                                         -75   -0.28   -0.76  1.0000
 -12  -4  -6      51      78                                                          55   -0.28   -0.76  1.0000
 -12   4  -6      39      79                                                          42   -0.29   -0.75  1.0000
  12   4   6      45      82                                                          49   -0.28    0.76  1.0000
 -15  -5   6     681     132                                                         465   -5.28    4.74  1.0000
 -15   5   6     849     119                                                         606   -5.27    4.76  1.0000
 -13  -5   6    1083     148                                                         857   -4.54    4.24  1.0000
  13  -5  -6     990     113                                                         775   -4.54   -4.23  1.0000
 -13   5   6    1218     131                                                         978   -4.54    4.23  1.0000
  11  -5  -6     476      87                                                         477    0.24    2.85  1.0000
 -11  -5   6     424     109                                                         424    0.22   -2.85  1.0000
 -11   5   6     326      85                                                         326    0.24   -2.85  1.0000
  -9  -5   6     414     120                                                         745    8.97   -4.50  1.0000
   9  -5  -6     281      92                                                         563    8.98    4.49  1.0000
  -7  -5   6    3802     111                                                        3481   -3.91    0.43  1.0000
  -7  -5   6    3768     113                                                        3448   -3.91    0.43  1.0000
  -7  -5   6    4396     215                                                        4050   -3.91    0.43  1.0000
   7  -5  -6    4090     177                                                        3756   -3.93   -0.41  1.0000
  -7   5   6    3897     184                                                        3571   -3.93    0.41  1.0000
  -5  -5   6     254      33                                                          25  -18.31    1.07  1.0000
  -5  -5   6     360      68                                                          79  -18.31    1.07  1.0000
   5  -5  -6     278      51                                                          36  -18.28   -1.08  1.0000
  -5   5   6     306      55                                                          50  -18.28    1.08  1.0000
  -3  -5   6    1239     122                                                        1183   -4.69   -4.36  1.0000
  -3  -5   6    1166      90                                                        1111   -4.69   -4.36  1.0000
   3  -5  -6    1134     111                                                        1080   -4.69    4.36  1.0000
   3   5  -6    1132      74                                                        1078   -4.69    4.36  1.0000
  -3   5   6    1054     110                                                        1001   -4.69   -4.36  1.0000
   1  -5  -6    1150     127                                                        1964   13.12    7.91  1.0000
  -1  -5   6    1055     113                                                        1840   13.11   -7.94  1.0000
  -1  -5   6     977     131                                                        1736   13.11   -7.94  1.0000
  -1   5   6    1261     138                                                        2109   13.12   -7.91  1.0000
   1   5  -6    1099     107                                                        1897   13.11    7.94  1.0000
  -1  -5  -6    3628     185                                                        3974    3.95    0.98  1.0000
   1  -5   6    3616     177                                                        3961    3.93   -0.99  1.0000
  -1   5  -6    3721     171                                                        4071    3.93    0.99  1.0000
   1   5   6    3460     189                                                        3798    3.95   -0.98  1.0000
  -3  -5  -6     541      81                                                         408   -4.36    5.21  1.0000
   3  -5   6     419      75                                                         302   -4.35   -5.23  1.0000
   3   5   6     457      82                                                         335   -4.36   -5.21  1.0000
  -3   5  -6     659      82                                                         513   -4.35    5.23  1.0000
   5  -5   6    2233     150                                                        1993   -3.31    5.64  1.0000
  -5  -5  -6    2357     154                                                        2111   -3.29   -5.63  1.0000
   5   5   6    2722     158                                                        2458   -3.29    5.63  1.0000
  -5   5  -6    2308     145                                                        2064   -3.31   -5.64  1.0000
  -7  -5  -6      16      59                                                          33    2.62    0.22  1.0000
   7  -5   6     230      86                                                         287    2.62   -0.22  1.0000
   7   5   6     231      88                                                         288    2.62   -0.22  1.0000
  -7   5  -6     163      84                                                         212    2.62    0.22  1.0000
  -9  -5  -6     574     114                                                         569   -0.33    0.57  1.0000
   9  -5   6     543     113                                                         538   -0.32   -0.55  1.0000
  -9   5  -6     762     130                                                         756   -0.32    0.55  1.0000
   9   5   6     769     123                                                         763   -0.33   -0.57  1.0000
  11  -5   6       1      75                                                         -40   -1.13    1.24  1.0000
 -11  -5  -6     145      83                                                         138   -1.12   -1.23  1.0000
 -11  -5  -6      22      90                                                          19   -1.12   -1.23  1.0000
 -11   5  -6       1      76                                                         -62   -1.13   -1.24  1.0000
  11   5   6      63      84                                                          58   -1.12    1.23  1.0000
  14  -6  -6     505      91                                                         236   10.36    3.29  1.0000
 -14  -6   6     359     108                                                         139   10.34   -3.31  1.0000
 -14   6   6     455      95                                                         202   10.36   -3.29  1.0000
  12  -6  -6     490      88                                                         380    3.52    5.55  1.0000
 -12  -6   6     304     105                                                         216    3.52   -5.58  1.0000
 -12   6   6     404      94                                                         303    3.52   -5.55  1.0000
 -10  -6   6    1009     143                                                         939    0.61   -4.29  1.0000
  10  -6  -6     965     121                                                         896    0.61    4.35  1.0000
  -8  -6   6    2552      91                                                        2249    2.40   -5.35  1.0000
   8  -6  -6    2632     158                                                        2322    2.44    5.33  1.0000
  -8  -6   6    2836     187                                                        2516    2.40   -5.35  1.0000
  -8  -6   6    2606      93                                                        2300    2.40   -5.35  1.0000
  -8   6   6    2448     162                                                        2149    2.44   -5.33  1.0000
  -6  -6   6    5522     184                                                        2676   32.38   -6.07  1.0000
  -6  -6   6    5716     119                                                        2812   32.38   -6.07  1.0000
   6  -6  -6    5318     155                                                        2536   32.37    6.05  1.0000
  -6  -6   6    5536     113                                                        2686   32.38   -6.07  1.0000
  -6   6   6    5808     173                                                        2878   32.37   -6.05  1.0000
  -4  -6   6     846     108                                                         649    5.91   -5.83  1.0000
  -4  -6   6    1002      79                                                         789    5.91   -5.83  1.0000
   4  -6  -6     809      96                                                         617    5.91    5.88  1.0000
   4   6  -6     937      71                                                         730    5.91    5.83  1.0000
  -4   6   6     991     107                                                         779    5.91   -5.88  1.0000
  -2  -6   6     933     122                                                        1116   -3.97    1.11  1.0000
   2  -6  -6     958     122                                                        1142   -3.93   -1.11  1.0000
  -2  -6   6    1019     106                                                        1210   -3.97    1.11  1.0000
   2   6  -6     985      96                                                        1173   -3.97   -1.11  1.0000
  -2   6   6    1065     132                                                        1258   -3.93    1.11  1.0000
   0  -6   6    2309     131                                                        2069    2.68   -4.97  1.0000
   0  -6   6    2249     140                                                        2012    2.68   -4.97  1.0000
   0  -6  -6    2377     147                                                        2134    2.67    4.92  1.0000
   0   6   6    2350     146                                                        2109    2.67   -4.92  1.0000
   0   6  -6    2533     124                                                        2281    2.68    4.97  1.0000
  -2  -6  -6    3637     167                                                        2726   12.14   -1.50  1.0000
   2  -6   6    3659     159                                                        2745   12.15    1.53  1.0000
   2   6   6    3601     170                                                        2695   12.14    1.50  1.0000
  -2   6  -6    3766     155                                                        2838   12.15   -1.53  1.0000
  -4  -6  -6    1760     136                                                        1232   10.16   -0.22  1.0000
   4  -6   6    1462     123                                                         986   10.13    0.24  1.0000
   4   6   6    1584     131                                                        1086   10.16    0.22  1.0000
  -4   6  -6    1641     128                                                        1134   10.13   -0.24  1.0000
   6  -6   6    1627     176                                                        1941   -5.79   -1.99  1.0000
  -6  -6  -6    1395     163                                                        1687   -5.80    1.95  1.0000
   6   6   6    1518     169                                                        1822   -5.80   -1.95  1.0000
  -6   6  -6    1537     167                                                        1842   -5.79    1.99  1.0000
  -8  -6  -6     535     111                                                         588   -1.86    0.39  1.0000
   8  -6   6     496     115                                                         547   -1.85   -0.39  1.0000
   8   6   6     548     113                                                         602   -1.86   -0.39  1.0000
  -8   6  -6     565     120                                                         619   -1.85    0.39  1.0000
 -10  -6  -6       0      93                                                          -1   -0.76   -0.39  1.0000
  10  -6   6     255      95                                                         240   -0.76    0.40  1.0000
 -10  -6  -6      68      75                                                          60   -0.76   -0.39  1.0000
  10   6   6      25      83                                                          20   -0.76    0.39  1.0000
 -10   6  -6       0      76                                                          -8   -0.76   -0.40  1.0000
  13  -7  -6     407     114                                                         522   -0.99   -3.98  1.0000
 -13  -7   6     262     125                                                         355   -0.98    3.98  1.0000
 -13   7   6     459     124                                                         580   -0.99    3.98  1.0000
 -11  -7   6     139     110                                                         229    1.50    5.29  1.0000
  11  -7  -6     217      96                                                         328    1.53   -5.27  1.0000
  -9  -7   6     129      39                                                         131    2.70    4.04  1.0000
   9  -7  -6     187      82                                                         192    2.70   -4.05  1.0000
  -9  -7   6      71      85                                                          69    2.70    4.04  1.0000
  -9   7   6     180      85                                                         184    2.70    4.05  1.0000
  -7  -7   6    1443     122                                                         690  -15.86    6.86  1.0000
   7  -7  -6    1284     105                                                         581  -15.86   -6.88  1.0000
  -7  -7   6    1365      70                                                         636  -15.86    6.86  1.0000
  -7   7   6    1631     124                                                         822  -15.86    6.88  1.0000
  -5  -7   6    1531     179                                                        2366  -12.95    5.44  1.0000
   5  -7  -6    1147     169                                                        1878  -12.92   -5.40  1.0000
  -5  -7   6    1571     120                                                        2415  -12.95    5.44  1.0000
  -5   7   6    1503     173                                                        2328  -12.92    5.40  1.0000
  -3  -7   6    1432     117                                                        1828    6.35   -3.89  1.0000
   3  -7  -6    1357     158                                                        1743    6.36    3.87  1.0000
  -3  -7   6    1242     158                                                        1612    6.35   -3.89  1.0000
  -3   7   6    1439     170                                                        1836    6.36   -3.87  1.0000
   3   7  -6    1386     106                                                        1776    6.35    3.89  1.0000
  -1  -7   6     112      57                                                          90    3.87    4.17  1.0000
   1  -7  -6     154      66                                                         131    3.87   -4.17  1.0000
  -1  -7   6     113      67                                                          91    3.87    4.17  1.0000
   1   7  -6     186      53                                                         162    3.87   -4.17  1.0000
  -1   7   6     167      74                                                         144    3.87    4.17  1.0000
  -1  -7  -6     347      71                                                         164    2.99    7.90  1.0000
   1  -7   6     301      67                                                         133    3.01   -7.89  1.0000
   1  -7   6     325      63                                                         149    3.01   -7.89  1.0000
   1   7   6     222      64                                                          82    2.99   -7.90  1.0000
  -1   7  -6     324      55                                                         148    3.01    7.89  1.0000
  -3  -7  -6      11      61                                                          -3   -4.52    1.36  1.0000
   3  -7   6      11      48                                                         -31   -4.53   -1.35  1.0000
  -3   7  -6     108      52                                                          75   -4.53    1.35  1.0000
   3   7   6     126      67                                                          91   -4.52   -1.36  1.0000
  -5  -7  -6     130      69                                                          89    7.68    7.79  1.0000
   5  -7   6     187      75                                                         152    7.68   -7.79  1.0000
   5   7   6     147      75                                                         108    7.68   -7.79  1.0000
  -5   7  -6      83      67                                                          36    7.68    7.79  1.0000
   7  -7   6     324     101                                                         418    4.17   -1.98  1.0000
  -7  -7  -6     385     113                                                         488    4.17    1.95  1.0000
  -7   7  -6     364     108                                                         464    4.17    1.98  1.0000
   7   7   6     506     121                                                         623    4.17   -1.95  1.0000
   9  -7   6      24      81                                                          43    2.43    0.10  1.0000
  -9  -7  -6       3      89                                                        -105    2.42   -0.09  1.0000
  -9  -7  -6      44      79                                                          69    2.42   -0.09  1.0000
   9   7   6      47      85                                                          72    2.42    0.09  1.0000
  -9   7  -6      93      86                                                         128    2.43   -0.10  1.0000
 -12  -8   6     366     130                                                         324   -1.91    0.39  1.0000
  12  -8  -6     416     106                                                         370   -1.93   -0.40  1.0000
 -10  -8   6     725      64                                                         465   -6.68    3.88  1.0000
 -10  -8   6     832     134                                                         552   -6.68    3.88  1.0000
  10  -8  -6     743     112                                                         480   -6.68   -3.88  1.0000
 -10   8   6     641     115                                                         399   -6.68    3.88  1.0000
   8  -8  -6    2062     185                                                        2476    6.14    1.90  1.0000
  -8  -8   6    1956     220                                                        2358    6.10   -1.92  1.0000
  -8  -8   6    1991     122                                                        2396    6.10   -1.92  1.0000
  -8   8   6    2043     212                                                        2455    6.14   -1.90  1.0000
  -6  -8   6    2212     121                                                        1938   -4.53   -0.92  1.0000
   6  -8  -6    2224     176                                                        1947   -4.55    0.88  1.0000
  -6  -8   6    2161     191                                                        1890   -4.53   -0.92  1.0000
  -6   8   6    2018     179                                                        1754   -4.55   -0.88  1.0000
   4  -8  -6    1002     152                                                        1346    7.51   -1.29  1.0000
  -4  -8   6     911     114                                                        1240    7.53    1.31  1.0000
  -4  -8   6     937     149                                                        1270    7.53    1.31  1.0000
  -4   8   6     910     152                                                        1239    7.51    1.29  1.0000
   2  -8  -6    1972     171                                                        1804   -4.82    4.73  1.0000
  -2  -8   6    1658     135                                                        1501   -4.84   -4.71  1.0000
  -2  -8   6    2122     172                                                        1947   -4.84   -4.71  1.0000
   2   8  -6    1915     120                                                        1748   -4.84    4.71  1.0000
  -2   8   6    1807     169                                                        1646   -4.82   -4.73  1.0000
   0  -8  -6    1350     150                                                        1313   -0.74    0.16  1.0000
   0  -8   6    1226     129                                                        1191   -0.72   -0.20  1.0000
   0  -8   6    1524     140                                                        1485   -0.72   -0.20  1.0000
   0   8  -6    1578     133                                                        1538   -0.72    0.20  1.0000
   0   8   6    1064     136                                                        1031   -0.74   -0.16  1.0000
  -2  -8  -6      59      63                                                          38   -1.03    5.52  1.0000
   2  -8   6     152      70                                                         127   -1.02   -5.50  1.0000
   2   8   6      15      65                                                         -44   -1.03   -5.52  1.0000
  -2   8  -6     160      63                                                         134   -1.02    5.50  1.0000
   4  -8   6    1493     154                                                        1355   -2.67    0.21  1.0000
  -4  -8  -6    1569     158                                                        1429   -2.64   -0.19  1.0000
  -4   8  -6    1829     159                                                        1676   -2.67   -0.21  1.0000
   4   8   6    1856     172                                                        1703   -2.64    0.19  1.0000
  -6  -8  -6    2052     188                                                        1996   -0.76   -0.85  1.0000
   6  -8   6    1932     188                                                        1877   -0.77    0.81  1.0000
   6   8   6    2301     202                                                        2241   -0.76    0.85  1.0000
  -6   8  -6    2151     188                                                        2093   -0.77   -0.81  1.0000
  -8  -8  -6     858     139                                                         826   -1.50    2.56  1.0000
   8  -8   6     804     134                                                         774   -1.47   -2.57  1.0000
  -8  -8  -6     874     161                                                         842   -1.50    2.56  1.0000
  -8   8  -6    1011     146                                                         978   -1.47    2.57  1.0000
   8   8   6     920     141                                                         887   -1.50   -2.56  1.0000
   9  -9  -6    1245     184                                                        1487   -4.72    0.16  1.0000
  -9  -9   6    1252     109                                                        1495   -4.74   -0.15  1.0000
  -9  -9   6    1094     184                                                        1322   -4.74   -0.15  1.0000
  -9   9   6    1193     184                                                        1430   -4.72   -0.16  1.0000
  -7  -9   6     252      63                                                         163    4.41   -2.98  1.0000
   7  -9  -6     263      90                                                         172    4.40    2.95  1.0000
  -7  -9   6     409     112                                                         294    4.41   -2.98  1.0000
  -7   9   6     385     105                                                         274    4.40   -2.95  1.0000
  -5  -9   6    1333     149                                                        1045    7.54    1.01  1.0000
   5  -9  -6    1230     137                                                         955    7.52   -1.02  1.0000
  -5  -9   6    1094     106                                                         834    7.54    1.01  1.0000
  -5   9   6    1202     149                                                         930    7.52    1.02  1.0000
  -3  -9   6     275      90                                                         183   -2.49    3.70  1.0000
   3  -9  -6      83      72                                                          37   -2.48   -3.68  1.0000
  -3  -9   6     152      57                                                          86   -2.49    3.70  1.0000
  -3   9   6      55      77                                                          19   -2.48    3.68  1.0000
  -1  -9   6     225      85                                                         210    0.92   -4.62  1.0000
   1  -9  -6     312      93                                                         296    0.91    4.59  1.0000
  -1  -9   6     246      73                                                         231    0.92   -4.62  1.0000
  -1   9   6      15      72                                                           4    0.91   -4.59  1.0000
  -1  -9  -6    1147     158                                                        1320   -3.53   -0.90  1.0000
   1  -9   6    1254     145                                                        1435   -3.53    0.91  1.0000
   1  -9   6    1260     152                                                        1441   -3.53    0.91  1.0000
  -1   9  -6    1093     137                                                        1262   -3.53   -0.91  1.0000
   1   9   6    1239     165                                                        1419   -3.53    0.90  1.0000
  -3  -9  -6     903     130                                                         823    1.61   -1.84  1.0000
   3  -9   6     964     130                                                         881    1.62    1.84  1.0000
  -3   9  -6    1109     131                                                        1020    1.62   -1.84  1.0000
   3   9   6    1060     146                                                         973    1.61    1.84  1.0000
   5  -9   6     942     143                                                        1026   -1.90    0.75  1.0000
  -5  -9  -6     662     130                                                         733   -1.90   -0.78  1.0000
   5   9   6    1036     151                                                        1124   -1.90    0.78  1.0000
  -5   9  -6    1234     157                                                        1330   -1.90   -0.75  1.0000
  -8 -10   6     310     115                                                         203   -4.14    2.64  1.0000
  -6 -10   6      70      69                                                         153   -5.86    0.72  1.0000
   6 -10  -6     169     105                                                         291   -5.88   -0.74  1.0000
  -6 -10   6      68     101                                                         151   -5.86    0.72  1.0000
  -6  10   6      29     102                                                          89   -5.88    0.74  1.0000
  -4 -10   6    1256     177                                                        1526   -6.13   -3.32  1.0000
  -4 -10   6    1293     150                                                        1567   -6.13   -3.32  1.0000
   4 -10  -6    1441     189                                                        1731   -6.16    3.34  1.0000
  -4  10   6    1338     192                                                        1618   -6.16   -3.34  1.0000
   2 -10  -6      17      77                                                          20    2.72   -1.62  1.0000
  -2 -10   6      59      88                                                          69    2.66    1.62  1.0000
  -2 -10   6       5      53                                                         -73    2.66    1.62  1.0000
  -2  10   6       5      81                                                         -70    2.72    1.62  1.0000
   0 -10   6     189      88                                                         221   -2.05    0.17  1.0000
   0 -10   6       2      53                                                         -43   -2.05    0.17  1.0000
   0 -10  -6      89      87                                                         112   -2.07   -0.20  1.0000
   0  10   6      55      78                                                          73   -2.07    0.20  1.0000
  -2 -10  -6       2      78                                                         -36   -1.37   -1.30  1.0000
   2 -10   6      59      79                                                          80   -1.34    1.32  1.0000
   2 -10   6       2      62                                                         -85   -1.34    1.32  1.0000
   2  10   6       2      75                                                         -70   -1.37    1.30  1.0000
  -2  10  -6      25      60                                                          39   -1.34   -1.32  1.0000
 -17  -1   7     192     105                                                         137    2.74   -2.19  1.0000
 -17  -1   7     410      70                                                         328    2.74   -2.19  1.0000
 -17   1   7     146      69                                                          98   -2.73    2.19  1.0000
 -15  -1   7    1384     193                                                        1940   -9.89    1.56  1.0000
 -15  -1   7    1175     106                                                        1691   -9.89    1.56  1.0000
 -15   1   7    1398     132                                                        1956    9.89   -1.55  1.0000
 -13  -1   7     149      89                                                         157   -0.01    3.41  1.0000
 -13   1   7      11      48                                                           9    0.01   -3.40  1.0000
 -11  -1   7    7761     265                                                       10507  -16.57   12.55  1.0000
  11  -1  -7    7640     281                                                       10368   16.58   12.56  1.0000
 -11  -1   7    8135     374                                                       10942  -16.57   12.55  1.0000
 -11  -1   7    7864     267                                                       10627  -16.57   12.55  1.0000
   9  -1  -7    2361     114                                                        2484    1.79    0.58  1.0000
  -9  -1   7    2501     100                                                        2628   -1.78    0.60  1.0000
  -9  -1   7    2580     101                                                        2709   -1.78    0.60  1.0000
  -9  -1   7    2852     178                                                        2987   -1.78    0.60  1.0000
  -9   1   7    2799     128                                                        2933    1.79   -0.58  1.0000
  -7  -1   7    2537     110                                                        2921   -0.13    8.28  1.0000
   7  -1  -7    2802     123                                                        3206    0.11    8.32  1.0000
  -7   1   7    2684     131                                                        3079    0.11   -8.32  1.0000
   5  -1  -7    7408     239                                                        8314    7.68   -5.13  1.0000
  -5  -1   7    7481     228                                                        8387   -7.64   -5.12  1.0000
   5   1  -7    7500     219                                                        8407   -7.64    5.12  1.0000
  -5   1   7    7540     247                                                        8454    7.68    5.13  1.0000
  -3  -1   7     866      55                                                         301  -15.26    8.67  1.0000
   3  -1  -7     795      55                                                         260   15.27    8.64  1.0000
   3   1  -7     927      54                                                         338  -15.26   -8.67  1.0000
  -3   1   7     783      56                                                         253   15.27   -8.64  1.0000
   1  -1  -7    1350      96                                                        1321   -0.03   -3.55  1.0000
  -1  -1   7    1247     102                                                        1220    0.00   -3.57  1.0000
  -1   1   7    1235     108                                                        1207   -0.03    3.55  1.0000
   1   1  -7    1258      88                                                        1231    0.00    3.57  1.0000
  -1  -1  -7     239      48                                                          97   -8.60    0.77  1.0000
   1  -1   7     300      54                                                         137    8.64    0.74  1.0000
   1   1   7     125      49                                                          30   -8.60   -0.77  1.0000
  -1   1  -7     246      48                                                         101    8.64   -0.74  1.0000
  -3  -1  -7   11447     341                                                       10933   -2.74   -5.94  1.0000
   3  -1   7   11297     338                                                       10785    2.75   -5.87  1.0000
  -3   1  -7   11973     340                                                       11447    2.75    5.87  1.0000
   3   1   7   11575     344                                                       11058   -2.74    5.94  1.0000
  -5  -1  -7    2053     150                                                        1684   -5.99    1.70  1.0000
   5  -1   7    2341     143                                                        1948    5.95    1.68  1.0000
  -5   1  -7    1861     142                                                        1512    5.95   -1.68  1.0000
   5   1   7    1843     141                                                        1494   -5.99   -1.70  1.0000
   7  -1   7    1362     140                                                        1222    2.46   -4.44  1.0000
  -7  -1  -7    1640     149                                                        1489   -2.43   -4.41  1.0000
   7   1   7    1372     141                                                        1233   -2.43    4.41  1.0000
  -7   1  -7    1578     147                                                        1428    2.46    4.44  1.0000
  -9  -1  -7    3958     209                                                        3477   -5.63    0.88  1.0000
   9  -1   7    4180     216                                                        3683    5.65    0.94  1.0000
  -9   1  -7    3880     210                                                        3402    5.65   -0.94  1.0000
   9   1   7    3716     206                                                        3250   -5.63   -0.88  1.0000
 -11  -1  -7     854     127                                                         753   -2.59   -1.16  1.0000
  11  -1   7     849     129                                                         749    2.56   -1.15  1.0000
  11   1   7    1002     136                                                         892   -2.59    1.16  1.0000
 -11   1  -7     827     136                                                         729    2.56    1.15  1.0000
 -16  -2   7     929     158                                                         987    1.43   -0.12  1.0000
 -16  -2   7    1116      87                                                        1179    1.43   -0.12  1.0000
 -16   2   7    1047     128                                                        1109   -1.46    0.12  1.0000
 -14  -2   7     645     138                                                         790    3.80   -0.93  1.0000
 -14   2   7     729     109                                                         882   -3.78    0.88  1.0000
 -12  -2   7    1915     203                                                        3124   16.79   -4.94  1.0000
  12  -2  -7    1908     143                                                        3114  -16.77   -4.99  1.0000
 -10  -2   7    4086     216                                                        4013    0.23    2.84  1.0000
  10  -2  -7    4034     157                                                        3965   -0.26    2.81  1.0000
 -10   2   7    3760     166                                                        3693   -0.26   -2.81  1.0000
  -8  -2   7       4      22                                                          -5   -2.27    1.99  1.0000
  -8  -2   7       4      61                                                         -37   -2.27    1.99  1.0000
  -8  -2   7      19      24                                                           5   -2.27    1.99  1.0000
   8  -2  -7      82      37                                                          48    2.27    2.05  1.0000
  -8   2   7      23      41                                                           7    2.27   -2.05  1.0000
  -6  -2   7    3144     141                                                        4582   13.71  -10.58  1.0000
  -6  -2   7    3395     219                                                        4885   13.71  -10.58  1.0000
  -6  -2   7    3280     143                                                        4747   13.71  -10.58  1.0000
   6  -2  -7    3224     171                                                        4676  -13.67  -10.60  1.0000
  -6   2   7    3433     182                                                        4928  -13.67   10.60  1.0000
   4  -2  -7     633     123                                                        2509  -35.82   -8.65  1.0000
  -4  -2   7     521     105                                                        2277   35.79   -8.62  1.0000
  -4   2   7     599     126                                                        2441  -35.82    8.65  1.0000
   4   2  -7     597     100                                                        2435   35.79    8.62  1.0000
   2  -2  -7    2549     164                                                        3884  -16.18   -8.64  1.0000
  -2  -2   7    2701     156                                                        4072   16.17   -8.71  1.0000
   2   2  -7    2750     150                                                        4133   16.17    8.71  1.0000
  -2   2   7    2667     172                                                        4031  -16.18    8.64  1.0000
   0  -2  -7    6122     169                                                        3786   23.93    4.89  1.0000
   0  -2   7    6132     163                                                        3797  -23.88    4.91  1.0000
   0   2   7    6350     178                                                        3966   23.93   -4.89  1.0000
   0   2  -7    6534     164                                                        4115  -23.88   -4.91  1.0000
   2  -2   7      89      40                                                         -45  -13.54    0.96  1.0000
  -2  -2  -7      88      42                                                         -30   13.52    0.92  1.0000
  -2   2  -7      89      40                                                         -26  -13.54   -0.96  1.0000
   2   2   7     158      52                                                          12   13.52   -0.92  1.0000
  -4  -2  -7    2198     144                                                        2160    0.46    1.00  1.0000
   4  -2   7    2000     141                                                        1963   -0.47    0.98  1.0000
  -4   2  -7    2122     139                                                        2084   -0.47   -0.98  1.0000
   4   2   7    2232     150                                                        2193    0.46   -1.00  1.0000
   6  -2   7     604      95                                                         480   -4.30    0.00  1.0000
  -6  -2  -7     521      91                                                         405    4.35   -0.01  1.0000
  -6   2  -7     522      89                                                         407   -4.30    0.00  1.0000
   6   2   7     723     100                                                         586    4.35    0.01  1.0000
   8  -2   7     510      96                                                         391   -4.35    0.38  1.0000
  -8  -2  -7     526     100                                                         405    4.33    0.33  1.0000
   8   2   7     578     101                                                         451    4.33   -0.33  1.0000
  -8   2  -7     320      85                                                         227   -4.35   -0.38  1.0000
 -10  -2  -7     170      87                                                         202    8.33   -1.14  1.0000
  10  -2   7     226      94                                                         268   -8.35   -1.14  1.0000
  10   2   7      34      67                                                         -24    8.33    1.14  1.0000
 -10   2  -7     118      91                                                         139   -8.35    1.14  1.0000
  12  -2   7     497     127                                                         502    0.00   -0.93  1.0000
 -12  -2  -7     754     140                                                         759    0.02   -0.92  1.0000
 -12   2  -7     637     131                                                         643    0.00    0.93  1.0000
  12   2   7     617     125                                                         622    0.02    0.92  1.0000
 -17  -3   7       3      96                                                         -78    1.51   -1.94  1.0000
 -15  -3   7     392     127                                                         457    1.41   -1.80  1.0000
 -15   3   7     498     102                                                         571   -1.41    1.81  1.0000
  13  -3  -7    1201      97                                                         633   14.70    1.83  1.0000
 -13  -3   7    1332     132                                                         730  -14.71    1.81  1.0000
 -13   3   7    1081      95                                                         546   14.70   -1.83  1.0000
  11  -3  -7     272      60                                                         248   -0.76   -1.11  1.0000
 -11  -3   7     204      90                                                         183    0.77   -1.12  1.0000
  -9  -3   7     565      83                                                         205   12.74   -7.42  1.0000
   9  -3  -7     691      63                                                         285  -12.76   -7.41  1.0000
  -9   3   7     471      61                                                         149  -12.76    7.41  1.0000
  -7  -3   7     393     105                                                         603   11.57    0.18  1.0000
  -7  -3   7     295      42                                                         474   11.57    0.18  1.0000
   7  -3  -7     264      72                                                         431  -11.59    0.21  1.0000
  -7  -3   7     272      42                                                         442   11.57    0.18  1.0000
  -7   3   7     291      74                                                         468  -11.59   -0.21  1.0000
  -5  -3   7     282      29                                                          -2  -22.08    9.89  1.0000
   5  -3  -7     559      46                                                          85   22.11    9.91  1.0000
  -5  -3   7     327      64                                                           4  -22.08    9.89  1.0000
  -5   3   7     467      49                                                          45   22.11   -9.91  1.0000
   3  -3  -7     895      72                                                         423   13.36    2.01  1.0000
  -3  -3   7     933      60                                                         449  -13.35    2.07  1.0000
  -3   3   7     609      63                                                         235   13.36   -2.01  1.0000
   3   3  -7     892      55                                                         421  -13.35   -2.07  1.0000
   1  -3  -7    1116     115                                                        1548   -6.18   -6.63  1.0000
  -1  -3   7    1339     109                                                        1809    6.16   -6.65  1.0000
  -1   3   7    1330     126                                                        1799   -6.18    6.63  1.0000
   1   3  -7    1536     108                                                        2037    6.16    6.65  1.0000
  -1  -3  -7    1586      90                                                         617  -23.98   -1.29  1.0000
   1  -3   7    1566      86                                                         603   24.02   -1.30  1.0000
   1   3   7    1502      88                                                         564  -23.98    1.29  1.0000
  -1   3  -7    1171      67                                                         362   24.02    1.30  1.0000
  -3  -3  -7     387      83                                                         415    1.79   -4.45  1.0000
   3  -3   7     427      83                                                         457   -1.77   -4.40  1.0000
  -3   3  -7     533      86                                                         568   -1.77    4.40  1.0000
   3   3   7     416      88                                                         446    1.79    4.45  1.0000
   5  -3   7     107      64                                                          69   -3.03   -1.27  1.0000
  -5  -3  -7     143      63                                                          99    2.99   -1.27  1.0000
   5   3   7     116      65                                                          77    2.99    1.27  1.0000
  -5   3  -7     105      57                                                          68   -3.03    1.27  1.0000
  -7  -3  -7     267      94                                                         404   -5.57    1.99  1.0000
   7  -3   7     246      96                                                         379    5.58    1.93  1.0000
  -7   3  -7     245      91                                                         377    5.58   -1.93  1.0000
   7   3   7     311     103                                                         458   -5.57   -1.99  1.0000
   9  -3   7     274      88                                                         242    1.41   -0.17  1.0000
  -9  -3  -7     432     101                                                         392   -1.39   -0.23  1.0000
  -9   3  -7      87      74                                                          70    1.41    0.17  1.0000
   9   3   7     200      86                                                         173   -1.39    0.23  1.0000
  11  -3   7     361     106                                                         367    0.27   -0.09  1.0000
 -11  -3  -7     493     116                                                         501   -0.30   -0.12  1.0000
 -11   3  -7     571     119                                                         579    0.27    0.09  1.0000
  11   3   7     529     117                                                         537   -0.30    0.12  1.0000
 -16  -4   7    2124     239                                                        2499   -4.22    3.72  1.0000
 -16   4   7    2085     181                                                        2456    4.19   -3.73  1.0000
 -14  -4   7     622     131                                                         531    3.66    1.79  1.0000
 -14   4   7     548     100                                                         463   -3.65   -1.81  1.0000
  12  -4  -7     649     100                                                         689    0.98   -0.63  1.0000
 -12  -4   7     385     113                                                         415   -0.95   -0.61  1.0000
  10  -4  -7    1656     124                                                        1770   -0.21    3.78  1.0000
 -10  -4   7    1530     173                                                        1641    0.15    3.77  1.0000
 -10   4   7    1884     142                                                        2006   -0.21   -3.78  1.0000
   8  -4  -7    2235     166                                                        3484   16.60    3.32  1.0000
  -8  -4   7    2160     208                                                        3388  -16.59    3.27  1.0000
  -8   4   7    2256     177                                                        3510   16.60   -3.32  1.0000
  -6  -4   7    2921     103                                                        2831    0.91   -2.20  1.0000
  -6  -4   7    2947     182                                                        2857    0.91   -2.20  1.0000
  -6  -4   7    2748     102                                                        2661    0.91   -2.20  1.0000
   6  -4  -7    2826     146                                                        2740   -0.89   -2.20  1.0000
  -6   4   7    2774     154                                                        2688   -0.89    2.20  1.0000
  -4  -4   7    2711     116                                                        2652   -0.04   -3.53  1.0000
  -4  -4   7    2536     164                                                        2479   -0.04   -3.53  1.0000
   4  -4  -7    2878     148                                                        2814    0.00   -3.54  1.0000
  -4   4   7    2735     152                                                        2673    0.00    3.54  1.0000
   2  -4  -7    6005     229                                                        6017   -0.64    1.36  1.0000
  -2  -4   7    6613     216                                                        6623    0.65    1.32  1.0000
  -2   4   7    6732     245                                                        6744   -0.64   -1.36  1.0000
   2   4  -7    6291     202                                                        6301    0.65   -1.32  1.0000
   0  -4   7    1549     108                                                        1505   -3.16   -7.65  1.0000
   0  -4  -7    1595     132                                                        1552    3.20   -7.66  1.0000
   0   4  -7    1410     100                                                        1366   -3.16    7.65  1.0000
   0   4   7    1276     125                                                        1234    3.20    7.66  1.0000
  -2  -4  -7    6823     233                                                        5925   -8.19   -5.38  1.0000
   2  -4   7    6308     223                                                        5447    8.17   -5.35  1.0000
   2   4   7    6413     231                                                        5543   -8.19    5.38  1.0000
  -2   4  -7    6067     212                                                        5223    8.17    5.35  1.0000
  -4  -4  -7    1050     110                                                         789   -7.88    2.90  1.0000
   4  -4   7    1276     120                                                         988    7.87    2.85  1.0000
  -4   4  -7    1105     110                                                         837    7.87   -2.85  1.0000
   4   4   7    1378     128                                                        1079   -7.88   -2.90  1.0000
   6  -4   7       6      58                                                         -15    2.72   -2.20  1.0000
  -6  -4  -7       6      56                                                         -33   -2.68   -2.22  1.0000
   6   4   7      30      68                                                          62   -2.68    2.22  1.0000
  -6   4  -7       6      58                                                         -38    2.72    2.20  1.0000
   8  -4   7     336      93                                                         323    0.36   -0.60  1.0000
  -8  -4  -7     281      91                                                         269   -0.35   -0.64  1.0000
  -8   4  -7     304      88                                                         292    0.36    0.60  1.0000
   8   4   7     113      79                                                         106   -0.35    0.64  1.0000
  10  -4   7     786     134                                                         754    1.22   -1.45  1.0000
 -10  -4  -7     726     131                                                         694   -1.24   -1.44  1.0000
  10   4   7     789     135                                                         756   -1.24    1.44  1.0000
 -10   4  -7     927     141                                                         892    1.22    1.45  1.0000
 -15  -5   7     100     102                                                          49    4.15   -2.19  1.0000
 -15   5   7     179      91                                                         108   -4.16    2.19  1.0000
  13  -5  -7     703     123                                                         937   -5.59   -2.38  1.0000
 -13  -5   7     492     142                                                         690    5.58   -2.40  1.0000
 -11  -5   7       2      86                                                          17    1.42   -7.61  1.0000
  11  -5  -7      99      80                                                         235   -1.41   -7.63  1.0000
 -11   5   7      67      75                                                         184   -1.41    7.63  1.0000
   9  -5  -7    1601     141                                                        2164   -9.12   -2.93  1.0000
  -9  -5   7    1559     194                                                        2115    9.13   -2.91  1.0000
  -9   5   7    1379     145                                                        1904   -9.12    2.93  1.0000
  -7  -5   7    3112     126                                                        3933   10.17    0.24  1.0000
  -7  -5   7    3335     226                                                        4183   10.17    0.24  1.0000
   7  -5  -7    3532     198                                                        4405  -10.18    0.25  1.0000
  -7  -5   7    3293     130                                                        4137   10.17    0.24  1.0000
  -7   5   7    3379     204                                                        4234  -10.18   -0.25  1.0000
   5  -5  -7      84      53                                                          24    5.73    2.15  1.0000
  -5  -5   7     153      40                                                          66   -5.71    2.15  1.0000
  -5  -5   7      94      68                                                          30   -5.71    2.15  1.0000
  -5   5   7      96      58                                                          31    5.73   -2.15  1.0000
   3  -5  -7     803      90                                                         569    6.14   -3.63  1.0000
  -3  -5   7     622      90                                                         418   -6.14   -3.61  1.0000
  -3  -5   7     622      66                                                         418   -6.14   -3.61  1.0000
  -3   5   7     914      97                                                         663    6.14    3.63  1.0000
   3   5  -7     666      59                                                         454   -6.14    3.61  1.0000
   1  -5  -7     964     119                                                        1121   -3.98    0.03  1.0000
  -1  -5   7     912     103                                                        1065    3.95    0.01  1.0000
  -1   5   7     943     120                                                        1099   -3.98   -0.03  1.0000
   1   5  -7    1108     105                                                        1276    3.95   -0.01  1.0000
   1  -5   7    4152     188                                                        4207    0.54   -0.36  1.0000
  -1  -5  -7    4456     210                                                        4510   -0.51   -0.34  1.0000
   1   5   7    4268     207                                                        4321   -0.51    0.34  1.0000
  -1   5  -7    4268     185                                                        4323    0.54    0.36  1.0000
  -3  -5  -7     671     104                                                         675    0.81    3.62  1.0000
   3  -5   7     695     102                                                         699   -0.81    3.68  1.0000
  -3   5  -7     615      95                                                         619   -0.81   -3.68  1.0000
   3   5   7     562     101                                                         565    0.81   -3.62  1.0000
   5  -5   7     527      86                                                         319   -8.30   -2.34  1.0000
  -5  -5  -7     628      91                                                         400    8.26   -2.33  1.0000
  -5   5  -7     479      86                                                         281   -8.30    2.34  1.0000
   5   5   7     373      77                                                         201    8.26    2.33  1.0000
  -7  -5  -7      18      54                                                        -123    5.54   -2.63  1.0000
   7  -5   7     148      69                                                          64   -5.52   -2.69  1.0000
   7   5   7     208      78                                                         105    5.54    2.63  1.0000
  -7   5  -7      18      60                                                         -15   -5.52    2.69  1.0000
   9  -5   7       0      72                                                          -8   -0.53   -0.02  1.0000
  -9  -5  -7       0      71                                                         -16    0.58   -0.05  1.0000
  -9   5  -7       4      78                                                           4   -0.53    0.02  1.0000
   9   5   7       0      81                                                         -25    0.58    0.05  1.0000
  14  -6  -7       2      75                                                          -7    1.23    1.38  1.0000
 -14  -6   7       2      93                                                        -106   -1.22    1.35  1.0000
 -12  -6   7      18      80                                                         -97    1.90    5.85  1.0000
  12  -6  -7      18      67                                                         -38   -1.90    5.82  1.0000
  10  -6  -7    1587     141                                                        1251    4.99    5.10  1.0000
 -10  -6   7    1113     142                                                         832   -5.03    5.11  1.0000
 -10   6   7    1594     149                                                        1257    4.99   -5.10  1.0000
  -8  -6   7    2035     188                                                        1850   -2.94    0.90  1.0000
   8  -6  -7    1900     159                                                        1721    2.94    0.98  1.0000
  -8  -6   7    1857      82                                                        1680   -2.94    0.90  1.0000
  -8  -6   7    1954      83                                                        1773   -2.94    0.90  1.0000
  -8   6   7    1902     162                                                        1722    2.94   -0.98  1.0000
   6  -6  -7     412      77                                                         235    5.04    5.07  1.0000
  -6  -6   7     231      82                                                         105   -5.02    5.11  1.0000
  -6  -6   7     562      56                                                         351   -5.02    5.11  1.0000
  -6   6   7     559      91                                                         349    5.04   -5.07  1.0000
  -4  -6   7     232      48                                                         108    6.69    1.95  1.0000
  -4  -6   7     462      84                                                         278    6.69    1.95  1.0000
   4  -6  -7     198      62                                                          85   -6.73    1.92  1.0000
   4   6  -7     286      43                                                         146    6.69   -1.95  1.0000
  -4   6   7     381      75                                                         215   -6.73   -1.92  1.0000
  -2  -6   7     497      71                                                         385   -4.74    4.09  1.0000
   2  -6  -7     631      93                                                         506    4.75    4.15  1.0000
  -2  -6   7     632      98                                                         506   -4.74    4.09  1.0000
   2   6  -7     562      66                                                         443   -4.74   -4.09  1.0000
  -2   6   7     464      82                                                         356    4.75   -4.15  1.0000
   0  -6   7     761     108                                                        1003    5.65   -1.60  1.0000
   0  -6  -7    1150     143                                                        1442   -5.61   -1.65  1.0000
   0   6   7     986     136                                                        1257   -5.61    1.65  1.0000
   0   6  -7     929     115                                                        1194    5.65    1.60  1.0000
  -2  -6  -7      27      64                                                          45    2.24    0.76  1.0000
   2  -6   7       3      49                                                         -55   -2.27    0.78  1.0000
  -2   6  -7       3      43                                                         -49   -2.27   -0.78  1.0000
   2   6   7       3      63                                                         -31    2.24   -0.76  1.0000
   4  -6   7     877     133                                                        1098    3.19   -6.34  1.0000
  -4  -6  -7    1000     139                                                        1235   -3.20   -6.30  1.0000
  -4   6  -7     941     132                                                        1169    3.19    6.34  1.0000
   4   6   7     874     136                                                        1094   -3.20    6.30  1.0000
   6  -6   7     261      91                                                         295    1.50    0.42  1.0000
  -6  -6  -7     471     110                                                         515   -1.46    0.41  1.0000
  -6   6  -7     336      97                                                         374    1.50   -0.42  1.0000
   6   6   7     492     111                                                         537   -1.46   -0.41  1.0000
   8  -6   7     889     143                                                         939   -0.07   -2.89  1.0000
  -8  -6  -7     846     140                                                         896    0.05   -2.89  1.0000
  -8   6  -7     896     139                                                         946   -0.07    2.89  1.0000
   8   6   7     945     149                                                         998    0.05    2.89  1.0000
 -13  -7   7     216     117                                                         258   -1.53    1.44  1.0000
  13  -7  -7     181      93                                                         219    1.51    1.44  1.0000
  11  -7  -7     689     127                                                         752    0.73    4.28  1.0000
 -11  -7   7     438     126                                                         486   -0.72    4.22  1.0000
 -11   7   7     630     135                                                         690    0.73   -4.28  1.0000
   9  -7  -7    3459     215                                                        3914    3.89    4.38  1.0000
  -9  -7   7    3245     130                                                        3687   -3.89    4.40  1.0000
  -9  -7   7    3516     254                                                        3976   -3.89    4.40  1.0000
  -9   7   7    3426     229                                                        3879    3.89   -4.38  1.0000
  -7  -7   7    3143     159                                                        4296  -13.54    2.57  1.0000
   7  -7  -7    3323     226                                                        4505   13.52    2.60  1.0000
  -7  -7   7    3031     251                                                        4165  -13.54    2.57  1.0000
  -7   7   7    3042     230                                                        4176   13.52   -2.60  1.0000
  -5  -7   7      55      85                                                         132    8.57   -1.95  1.0000
   5  -7  -7     109      74                                                         219   -8.54   -1.90  1.0000
  -5  -7   7      54      52                                                         131    8.57   -1.95  1.0000
  -5   7   7      21      74                                                          61   -8.54    1.90  1.0000
  -3  -7   7    1658     123                                                        1481    3.21   -0.57  1.0000
  -3  -7   7    1777     157                                                        1593    3.21   -0.57  1.0000
   3  -7  -7    1767     152                                                        1583   -3.21   -0.62  1.0000
   3   7  -7    1599      98                                                        1425    3.21    0.57  1.0000
  -3   7   7    1625     156                                                        1449   -3.21    0.62  1.0000
  -1  -7   7    2442     173                                                        2727   -3.86    2.19  1.0000
  -1  -7   7    1854     141                                                        2103   -3.86    2.19  1.0000
   1  -7  -7    2214     170                                                        2484    3.84    2.19  1.0000
  -1   7   7    1878     162                                                        2127    3.84   -2.19  1.0000
   1   7  -7    2165     136                                                        2434   -3.86   -2.19  1.0000
  -1  -7  -7    2089     173                                                        2545    6.39   -4.15  1.0000
   1  -7   7    2402     165                                                        2889   -6.37   -4.19  1.0000
   1   7   7    2037     174                                                        2488    6.39    4.15  1.0000
  -1   7  -7    2033     146                                                        2482   -6.37    4.19  1.0000
  -3  -7  -7    1778     173                                                        1870    1.52    0.63  1.0000
   3  -7   7    1823     169                                                        1916   -1.51    0.69  1.0000
   3   7   7    1758     179                                                        1849    1.52   -0.63  1.0000
  -3   7  -7    1950     173                                                        2046   -1.51   -0.69  1.0000
   5  -7   7    1679     164                                                        1530    3.15    0.15  1.0000
  -5  -7  -7    1851     174                                                        1692   -3.20    0.16  1.0000
   5   7   7    2005     180                                                        1839   -3.20   -0.16  1.0000
  -5   7  -7    2046     179                                                        1881    3.15   -0.15  1.0000
  -7  -7  -7     961     151                                                        1039    1.76   -0.71  1.0000
   7  -7   7     829     144                                                         901   -1.75   -0.76  1.0000
   7   7   7    1216     163                                                        1304    1.76    0.71  1.0000
  -7   7  -7    1176     164                                                        1262   -1.75    0.76  1.0000
 -12  -8   7     521     136                                                         447   -3.38   -1.31  1.0000
 -10  -8   7       1      41                                                           8   -1.96   -3.39  1.0000
  10  -8  -7      12      74                                                          33    1.90   -3.39  1.0000
 -10  -8   7      86     100                                                         137   -1.96   -3.39  1.0000
 -10   8   7       7      76                                                         -72    1.90    3.39  1.0000
  -8  -8   7    3152     156                                                        3872    8.61   -1.62  1.0000
  -8  -8   7    2916     249                                                        3609    8.61   -1.62  1.0000
   8  -8  -7    3388     227                                                        4131   -8.60   -1.58  1.0000
  -8   8   7    3215     233                                                        3940   -8.60    1.58  1.0000
  -6  -8   7      70      53                                                          75    0.29   -0.39  1.0000
   6  -8  -7      27      74                                                          30   -0.24   -0.40  1.0000
  -6  -8   7       0      81                                                          -6    0.29   -0.39  1.0000
  -6   8   7       0      80                                                          -8   -0.24    0.40  1.0000
  -4  -8   7       3      91                                                         112  -11.41    6.87  1.0000
  -4  -8   7       1      54                                                          77  -11.41    6.87  1.0000
   4  -8  -7     108      99                                                         381   11.38    6.85  1.0000
  -4   8   7       5      85                                                         124   11.38   -6.85  1.0000
   2  -8  -7      11      58                                                         -86    1.49   -4.53  1.0000
  -2  -8   7      59      54                                                          22   -1.50   -4.56  1.0000
  -2  -8   7      11      60                                                        -104   -1.50   -4.56  1.0000
  -2   8   7      11      63                                                         -60    1.49    4.53  1.0000
   0  -8   7     488      94                                                         450   -3.04    4.00  1.0000
   0  -8   7     405      98                                                         369   -3.04    4.00  1.0000
   0  -8  -7     475     103                                                         437    3.05    3.98  1.0000
   0   8   7     599     112                                                         557    3.05   -3.98  1.0000
   0   8  -7     382      78                                                         347   -3.04   -4.00  1.0000
  -2  -8  -7       8      62                                                        -136    2.85    2.90  1.0000
   2  -8   7      14      57                                                           1   -2.88    2.92  1.0000
   2   8   7       8      73                                                         -56    2.85   -2.90  1.0000
  -2   8  -7      47      51                                                          17   -2.88   -2.92  1.0000
   4  -8   7     239      76                                                          85   -8.99    2.97  1.0000
  -4  -8  -7     278      85                                                         109    8.98    3.02  1.0000
  -4   8  -7     467      80                                                         238   -8.99   -2.97  1.0000
   4   8   7     453      92                                                         228    8.98   -3.02  1.0000
   6  -8   7    1003     134                                                         833   -3.93    2.38  1.0000
  -6  -8  -7     628     117                                                         494    3.94    2.37  1.0000
   6   8   7    1035     136                                                         862    3.94   -2.37  1.0000
  -6   8  -7     905     125                                                         744   -3.93   -2.38  1.0000
  -9  -9   7      26      48                                                         -38   -7.16    1.84  1.0000
  -9  -9   7      23      94                                                          30   -7.16    1.84  1.0000
   9  -9  -7      26      75                                                          -7    7.16    1.82  1.0000
  -9   9   7      26      91                                                         -24    7.16   -1.82  1.0000
  -7  -9   7       3      53                                                          -7   -2.30    0.88  1.0000
   7  -9  -7     131      81                                                         100    2.27    0.88  1.0000
  -7  -9   7       3      92                                                         -11   -2.30    0.88  1.0000
  -7   9   7      59      92                                                          39    2.27   -0.88  1.0000
  -5  -9   7    2906     165                                                        2988   -0.49   -3.11  1.0000
  -5  -9   7    2315     221                                                        2388   -0.49   -3.11  1.0000
   5  -9  -7    3082     215                                                        3164    0.51   -3.07  1.0000
  -5   9   7    2967     217                                                        3047    0.51    3.07  1.0000
  -3  -9   7     151      69                                                         159    1.69    2.49  1.0000
  -3  -9   7     184      92                                                         193    1.69    2.49  1.0000
   3  -9  -7     114      89                                                         121   -1.69    2.46  1.0000
  -3   9   7     176      94                                                         185   -1.69   -2.46  1.0000
   1  -9  -7      66      84                                                          34    3.44   -0.96  1.0000
  -1  -9   7       6      76                                                         -17   -3.47   -0.96  1.0000
  -1  -9   7     196      70                                                         137   -3.47   -0.96  1.0000
  -1   9   7     106      79                                                          64    3.44    0.96  1.0000
   1  -9   7     361      93                                                         292   -2.54    2.85  1.0000
  -1  -9  -7     333      98                                                         267    2.56    2.88  1.0000
   1  -9   7     287      86                                                         226   -2.54    2.85  1.0000
   1   9   7     264      95                                                         205    2.56   -2.88  1.0000
  -1   9  -7     392      85                                                         321   -2.54   -2.85  1.0000
  -3  -9  -7     727     141                                                         874   -3.65   -1.04  1.0000
   3  -9   7     588     122                                                         721    3.65   -1.01  1.0000
  -3   9  -7     635     120                                                         773    3.65    1.01  1.0000
   3   9   7     739     145                                                         888   -3.65    1.04  1.0000
  -6 -10   7    1353     190                                                        1454   -2.34   -0.56  1.0000
  -4 -10   7    1120     163                                                        1181   -1.30   -1.59  1.0000
   4 -10  -7    1272     177                                                        1337    1.29   -1.61  1.0000
  -4 -10   7     773     114                                                         824   -1.30   -1.59  1.0000
  -4  10   7    1174     177                                                        1236    1.29    1.61  1.0000
   2 -10  -7     147      96                                                         179    2.00    2.98  1.0000
  -2 -10   7     174      98                                                         209   -2.01    2.94  1.0000
  -2 -10   7     353      94                                                         404   -2.01    2.94  1.0000
  -2  10   7     299     117                                                         345    2.00   -2.98  1.0000
   0 -10   7      55      87                                                          88    2.97    0.18  1.0000
   0 -10   7       1      66                                                           9    2.97    0.18  1.0000
   0 -10  -7       4      79                                                         -50   -2.95    0.16  1.0000
   0  10   7       2      83                                                          11   -2.95   -0.16  1.0000
 -16   0   8    2077     180                                                        1482  -10.05    1.79  1.0000
 -14   0   8     304      71                                                         397   -1.37    3.45  1.0000
 -12   0   8    5502     183                                                        5360    1.53    3.93  1.0000
 -10   0   8     466      70                                                         608    7.36    1.03  1.0000
   8   0  -8   15327     336                                                       13548   -4.60  -14.27  1.0000
  -8   0   8   15460     345                                                       13673   -4.60   14.27  1.0000
   6   0  -8    2929     104                                                        2233  -10.02    2.35  1.0000
  -6   0   8    2897     110                                                        2205  -10.02   -2.35  1.0000
   4   0  -8     202      51                                                         218    8.24   -0.78  1.0000
  -4   0   8     191      55                                                         206    8.24    0.78  1.0000
  -2   0   8     362      41                                                         -46   26.67   -6.42  1.0000
   2   0  -8     254      41                                                          12   26.67    6.42  1.0000
   0   0   8     118      75                                                         376   13.65   -4.32  1.0000
   0   0  -8     188      77                                                         501   13.65    4.32  1.0000
  -2   0  -8    9884     314                                                        9807   -0.62    2.38  1.0000
   2   0   8    9543     316                                                        9467   -0.62   -2.38  1.0000
  -4   0  -8     933     144                                                        1531   12.60    1.31  1.0000
   4   0   8     882     142                                                        1466   12.60   -1.31  1.0000
  -6   0  -8      57      66                                                         116    6.67    2.67  1.0000
   6   0   8      51      79                                                         107    6.67   -2.67  1.0000
   8   0   8    8127     362                                                        9299    8.74   -3.26  1.0000
  -8   0  -8    8386     363                                                        9576    8.74    3.26  1.0000
  10   0   8    3901     234                                                        3838   -0.65    0.58  1.0000
 -10   0  -8    3095     216                                                        3039   -0.65   -0.58  1.0000
 -17  -1   8      19     101                                                           2    3.94   -1.77  1.0000
 -15  -1   8     198     106                                                         107    5.06   -2.25  1.0000
 -13  -1   8     488     113                                                         389    4.85   -1.45  1.0000
 -13  -1   8     334      49                                                         252    4.85   -1.45  1.0000
 -13   1   8     453      73                                                         358    4.85   -1.45  1.0000
 -11  -1   8    2202     116                                                        2964   -9.04    6.29  1.0000
 -11  -1   8    1846     191                                                        2548   -9.04    6.29  1.0000
 -11  -1   8    2271     116                                                        3044   -9.04    6.29  1.0000
  11  -1  -8    2176     128                                                        2933   -9.04   -6.29  1.0000
 -11   1   8    2256     141                                                        3026   -9.04    6.29  1.0000
  -9  -1   8     328      47                                                         317    1.43   -3.75  1.0000
   9  -1  -8     386      56                                                         375    1.41    3.74  1.0000
  -9  -1   8     380      49                                                         369    1.43   -3.75  1.0000
  -9   1   8     326      64                                                         315    1.41   -3.74  1.0000
   7  -1  -8    2419      83                                                        1225   19.65    5.61  1.0000
  -7  -1   8    2331      77                                                        1163   19.65   -5.61  1.0000
  -7   1   8    2196      95                                                        1068   19.65   -5.61  1.0000
  -5  -1   8     309      67                                                         544    9.76   -1.16  1.0000
   5  -1  -8     350      74                                                         599    9.75    1.17  1.0000
  -5   1   8     273      72                                                         495    9.75   -1.17  1.0000
   5   1  -8     272      60                                                         494    9.76    1.16  1.0000
  -3  -1   8     123      44                                                          28   -9.27    1.02  1.0000
   3  -1  -8     221      47                                                          86   -9.28   -1.04  1.0000
  -3   1   8     190      50                                                          66   -9.28    1.04  1.0000
   3   1  -8     263      43                                                         114   -9.27   -1.02  1.0000
   1  -1  -8    6512     294                                                        9526  -24.34   -1.65  1.0000
  -1  -1   8    6452     292                                                        9453  -24.33    1.67  1.0000
  -1   1   8    6518     297                                                        9534  -24.34    1.65  1.0000
   1   1  -8    6567     286                                                        9592  -24.33   -1.67  1.0000
   1  -1   8      42      48                                                          15    1.54    3.67  1.0000
  -1  -1  -8       8      43                                                         -25    1.53   -3.67  1.0000
  -1   1  -8      42      44                                                          15    1.54   -3.67  1.0000
   1   1   8      72      49                                                          34    1.53    3.67  1.0000
   3  -1   8     140      69                                                         164   -2.66   -1.77  1.0000
  -3  -1  -8      52      56                                                          65   -2.66    1.77  1.0000
   3   1   8     156      71                                                         181   -2.66   -1.77  1.0000
  -3   1  -8     137      63                                                         160   -2.66    1.77  1.0000
   5  -1   8    1611     170                                                        1924   -5.48    0.04  1.0000
  -5  -1  -8    1476     162                                                        1775   -5.48   -0.02  1.0000
   5   1   8    1819     154                                                        2150   -5.48    0.02  1.0000
  -5   1  -8    1651     166                                                        1967   -5.48   -0.04  1.0000
  -7  -1  -8    1446     169                                                        1695   -4.44    2.45  1.0000
   7  -1   8    1522     169                                                        1777   -4.44   -2.46  1.0000
  -7   1  -8    1299     161                                                        1535   -4.44    2.46  1.0000
   7   1   8    1871     188                                                        2153   -4.44   -2.45  1.0000
  -9  -1  -8     292      91                                                         190   -4.55    1.37  1.0000
   9  -1   8     273      83                                                         175   -4.55   -1.36  1.0000
   9   1   8     621     109                                                         468   -4.55   -1.37  1.0000
  -9   1  -8     225      82                                                         137   -4.55    1.36  1.0000
 -11  -1  -8     125      82                                                          90    1.32    2.22  1.0000
  11  -1   8      71      80                                                          45    1.32   -2.22  1.0000
  11   1   8      80      81                                                          52    1.32   -2.22  1.0000
 -11   1  -8       3      77                                                         -15    1.32    2.22  1.0000
 -16  -2   8     406     119                                                         313    3.32   -1.33  1.0000
 -14  -2   8     503     128                                                         608   -4.40   -1.77  1.0000
 -14  -2   8     311      50                                                         393   -4.40   -1.77  1.0000
 -12  -2   8      69      79                                                        -114    9.28   -7.60  1.0000
 -12   2   8      69      49                                                          -2    9.28   -7.60  1.0000
 -10  -2   8     546      41                                                         355   10.73   -1.31  1.0000
  10  -2  -8     550      63                                                         358   10.74    1.30  1.0000
 -10  -2   8     523      97                                                         336   10.73   -1.31  1.0000
 -10  -2   8     660      46                                                         452   10.73   -1.31  1.0000
 -10   2   8     593      74                                                         395   10.74   -1.30  1.0000
  -8  -2   8    2642     111                                                        3167   -6.09    3.71  1.0000
  -8  -2   8    2774     199                                                        3311   -6.09    3.71  1.0000
  -8  -2   8    2590     112                                                        3109   -6.09    3.71  1.0000
   8  -2  -8    2723     141                                                        3255   -6.09   -3.71  1.0000
  -8   2   8    2599     152                                                        3119   -6.09    3.71  1.0000
  -6  -2   8    1178      97                                                        1996  -14.26    5.53  1.0000
   6  -2  -8    1184     113                                                        2004  -14.26   -5.55  1.0000
  -6   2   8    1133     118                                                        1938  -14.26    5.55  1.0000
   4  -2  -8     111      48                                                          86   -0.55    2.37  1.0000
  -4  -2   8      93      43                                                          70   -0.54   -2.36  1.0000
  -4   2   8      56      48                                                          38   -0.55   -2.37  1.0000
   4   2  -8     113      39                                                          88   -0.54    2.36  1.0000
  -2  -2   8    1085      90                                                         832    5.78   -1.27  1.0000
   2  -2  -8    1047      97                                                         799    5.77    1.28  1.0000
   2   2  -8    1080      86                                                         828    5.78    1.27  1.0000
  -2   2   8     885      90                                                         658    5.77   -1.28  1.0000
   0  -2   8     673      92                                                         742    0.10    2.85  1.0000
   0  -2  -8     715      97                                                         786    0.08   -2.84  1.0000
   0   2  -8     488      79                                                         547    0.10   -2.85  1.0000
   0   2   8     611      95                                                         677    0.08    2.84  1.0000
  -2  -2  -8    2956     175                                                        3337   -5.52    3.54  1.0000
   2  -2   8    3099     174                                                        3489   -5.51   -3.53  1.0000
  -2   2  -8    3109     170                                                        3499   -5.51    3.53  1.0000
   2   2   8    3053     182                                                        3440   -5.52   -3.54  1.0000
   4  -2   8     445      80                                                         306   -6.12    1.11  1.0000
  -4  -2  -8     391      77                                                         261   -6.12   -1.11  1.0000
  -4   2  -8     530      80                                                         377   -6.12   -1.11  1.0000
   4   2   8     332      76                                                         213   -6.12    1.11  1.0000
   6  -2   8    2388     163                                                        2260    1.85   -0.49  1.0000
  -6  -2  -8    2407     165                                                        2279    1.86    0.48  1.0000
   6   2   8    2429     171                                                        2300    1.86   -0.48  1.0000
  -6   2  -8    2519     171                                                        2388    1.85    0.49  1.0000
  -8  -2  -8     369      97                                                         294   -3.02   -0.97  1.0000
   8  -2   8     290      91                                                         224   -3.01    0.97  1.0000
   8   2   8     307      93                                                         239   -3.02    0.97  1.0000
  -8   2  -8     142      77                                                          97   -3.01   -0.97  1.0000
 -10  -2  -8    1500     180                                                        1607   -0.97    4.39  1.0000
  10  -2   8    2014     207                                                        2139   -0.98   -4.38  1.0000
  10   2   8    1957     205                                                        2080   -0.97   -4.39  1.0000
 -10   2  -8    1664     195                                                        1777   -0.98    4.38  1.0000
 -15  -3   8     284     120                                                         333    2.68    0.77  1.0000
 -13  -3   8    3812     233                                                        3338   -4.18    4.30  1.0000
 -13   3   8    3982     190                                                        3498   -4.16    4.33  1.0000
 -11  -3   8    1843     201                                                        2300    5.11   -5.67  1.0000
  11  -3  -8    2048     139                                                        2528    5.11    5.63  1.0000
 -11   3   8    1752     146                                                        2197    5.11   -5.63  1.0000
  -9  -3   8     486     101                                                         428   -2.00   -1.60  1.0000
   9  -3  -8     674      82                                                         605   -2.01    1.60  1.0000
  -9   3   8     714     100                                                         643   -2.01   -1.60  1.0000
   7  -3  -8    1939     123                                                        2085    2.33    0.37  1.0000
  -7  -3   8    1913     180                                                        2058    2.33   -0.35  1.0000
  -7  -3   8    1810      86                                                        1951    2.33   -0.35  1.0000
  -7  -3   8    1766      86                                                        1905    2.33   -0.35  1.0000
  -7   3   8    1726     127                                                        1864    2.33   -0.37  1.0000
   5  -3  -8    2370     114                                                        1775   -9.45   -4.30  1.0000
  -5  -3   8    1989      88                                                        1446   -9.45    4.25  1.0000
  -5   3   8    2314     120                                                        1726   -9.45    4.30  1.0000
  -3  -3   8    9173     260                                                        8842   -2.65    0.49  1.0000
   3  -3  -8    8950     282                                                        8622   -2.69   -0.46  1.0000
   3   3  -8    8798     246                                                        8474   -2.65   -0.49  1.0000
  -3   3   8    9172     287                                                        8839   -2.69    0.46  1.0000
   1  -3  -8     439     123                                                        1283   18.46   11.72  1.0000
  -1  -3   8     439     114                                                        1283   18.46  -11.71  1.0000
  -1   3   8     374     120                                                        1169   18.46  -11.72  1.0000
   1   3  -8     408     107                                                        1229   18.46   11.71  1.0000
   1  -3   8    7703     312                                                        9803   15.98   -4.87  1.0000
  -1  -3  -8    7435     320                                                        9502   15.99    4.85  1.0000
   1   3   8    7380     323                                                        9439   15.99   -4.85  1.0000
  -1   3  -8    7467     306                                                        9537   15.98    4.87  1.0000
  -3  -3  -8    5756     265                                                        6821   10.48   -3.38  1.0000
   3  -3   8    5773     265                                                        6843   10.51    3.36  1.0000
  -3   3  -8    5514     259                                                        6561   10.51   -3.36  1.0000
   3   3   8    5612     267                                                        6664   10.48    3.38  1.0000
   5  -3   8     304      97                                                         418    3.46   -2.68  1.0000
  -5  -3  -8     334      98                                                         454    3.46    2.71  1.0000
  -5   3  -8     464     102                                                         603    3.46    2.68  1.0000
   5   3   8     316     100                                                         433    3.46   -2.71  1.0000
  -7  -3  -8      70      75                                                         111    2.44    2.17  1.0000
   7  -3   8      70      80                                                         111    2.44   -2.16  1.0000
   7   3   8      64      78                                                         104    2.44   -2.17  1.0000
  -7   3  -8     170      88                                                         232    2.44    2.16  1.0000
   9  -3   8     507     125                                                         667    5.77   -1.53  1.0000
  -9  -3  -8     449     124                                                         600    5.74    1.50  1.0000
  -9   3  -8     689     138                                                         875    5.77    1.53  1.0000
   9   3   8     546     132                                                         712    5.74   -1.50  1.0000
 -16  -4   8     174     117                                                         187    2.45   -0.23  1.0000
 -14  -4   8     103      99                                                          90    8.37   -2.93  1.0000
  12  -4  -8     128      62                                                          92   -3.44    1.88  1.0000
 -12  -4   8       7      91                                                          -3   -3.43   -1.88  1.0000
 -12   4   8      69      68                                                          42   -3.44   -1.88  1.0000
  10  -4  -8     701     114                                                         956   -5.08   -4.07  1.0000
 -10  -4   8     801     147                                                        1071   -5.05    4.09  1.0000
 -10   4   8     651     118                                                         897   -5.08    4.07  1.0000
  -8  -4   8     350     103                                                         439    0.59   -5.50  1.0000
  -8  -4   8     675      51                                                         801    0.59   -5.50  1.0000
   8  -4  -8     567      96                                                         682    0.59    5.51  1.0000
  -8  -4   8     670      54                                                         795    0.59   -5.50  1.0000
  -8   4   8     631     104                                                         753    0.59   -5.51  1.0000
   6  -4  -8    2808     146                                                        2467    4.19    2.51  1.0000
  -6  -4   8    2769     179                                                        2429    4.19   -2.52  1.0000
  -6  -4   8    3140     110                                                        2778    4.19   -2.52  1.0000
  -6  -4   8    2788     108                                                        2447    4.19   -2.52  1.0000
  -6   4   8    2477     144                                                        2157    4.19   -2.51  1.0000
  -4  -4   8       6      43                                                          29   -3.18   -3.82  1.0000
   4  -4  -8      10      51                                                          37   -3.19    3.80  1.0000
  -4   4   8      91      68                                                         160   -3.19   -3.80  1.0000
   4   4  -8      59      39                                                         117   -3.18    3.82  1.0000
  -2  -4   8     101      67                                                         385  -11.23    8.33  1.0000
   2  -4  -8      98      80                                                         379  -11.23   -8.33  1.0000
  -2   4   8      95      84                                                         374  -11.23    8.33  1.0000
   2   4  -8     104      63                                                         391  -11.23   -8.33  1.0000
   0  -4  -8     188      86                                                         331   -7.24    1.78  1.0000
   0  -4   8     176      75                                                         314   -7.23   -1.78  1.0000
   0   4   8     198      85                                                         344   -7.24   -1.78  1.0000
   0   4  -8     235      71                                                         393   -7.23    1.78  1.0000
   2  -4   8     425      91                                                         496    2.09    6.63  1.0000
  -2  -4  -8     374      93                                                         440    2.09   -6.61  1.0000
  -2   4  -8     376      81                                                         442    2.09   -6.63  1.0000
   2   4   8     401      95                                                         469    2.09    6.61  1.0000
   4  -4   8     310      97                                                         453   -4.75   -3.55  1.0000
  -4  -4  -8     306      98                                                         448   -4.76    3.56  1.0000
  -4   4  -8     230      84                                                         354   -4.75    3.55  1.0000
   4   4   8     344      99                                                         495   -4.76   -3.56  1.0000
  -6  -4  -8      35      59                                                         -16   -8.54   -0.80  1.0000
   6  -4   8      35      64                                                         -13   -8.53    0.81  1.0000
   6   4   8     163      75                                                         128   -8.54    0.80  1.0000
  -6   4  -8      57      65                                                          21   -8.53   -0.81  1.0000
  -8  -4  -8       9      73                                                         -11   -2.46    3.63  1.0000
   8  -4   8       9      73                                                         -19   -2.45   -3.65  1.0000
   8   4   8       9      75                                                         -24   -2.46   -3.63  1.0000
  -8   4  -8       9      76                                                         -10   -2.45    3.65  1.0000
 -10  -4  -8     374     116                                                         372    0.10    0.36  1.0000
  10  -4   8     588     125                                                         586    0.11   -0.37  1.0000
 -10   4  -8     567     128                                                         565    0.11    0.37  1.0000
  10   4   8     782     141                                                         780    0.10   -0.36  1.0000
 -15  -5   8     178     113                                                         212   -2.28   -0.30  1.0000
  13  -5  -8     114      64                                                          53    3.99   -2.93  1.0000
 -13  -5   8      12      97                                                         -45    3.98    2.94  1.0000
 -13   5   8     365      95                                                         247    3.99    2.93  1.0000
  11  -5  -8    1284     132                                                        1187    1.92    0.57  1.0000
 -11  -5   8    1202     158                                                        1108    1.92   -0.60  1.0000
 -11   5   8    1310     142                                                        1212    1.92   -0.57  1.0000
   9  -5  -8    1196     129                                                        1107    2.32   -1.88  1.0000
  -9  -5   8     899     139                                                         821    2.36    1.89  1.0000
  -9   5   8    1142     130                                                        1055    2.32    1.88  1.0000
  -7  -5   8     627      81                                                        1443  -16.86    8.53  1.0000
   7  -5  -8     707     144                                                        1563  -16.85   -8.51  1.0000
  -7  -5   8     621     160                                                        1434  -16.86    8.53  1.0000
  -7  -5   8     630      80                                                        1448  -16.86    8.53  1.0000
  -7   5   8     715     150                                                        1575  -16.85    8.51  1.0000
  -5  -5   8    1828     102                                                        1820    1.81    3.73  1.0000
  -5  -5   8    1836     171                                                        1828    1.81    3.73  1.0000
   5  -5  -8    1901     139                                                        1893    1.81   -3.73  1.0000
  -5   5   8    1589     146                                                        1581    1.81    3.73  1.0000
  -3  -5   8    2493     124                                                        2241    3.32   -2.51  1.0000
   3  -5  -8    2627     148                                                        2371    3.29    2.48  1.0000
   3   5  -8    2406     112                                                        2159    3.32    2.51  1.0000
  -3   5   8    2206     146                                                        1972    3.29   -2.48  1.0000
  -1  -5   8    1509     114                                                        1216    6.84    8.56  1.0000
   1  -5  -8    1516     131                                                        1222    6.86   -8.52  1.0000
   1   5  -8    1512     108                                                        1219    6.84   -8.56  1.0000
  -1   5   8    1429     134                                                        1142    6.86    8.52  1.0000
  -1  -5  -8    2836     196                                                        3805  -12.43   -1.86  1.0000
   1  -5   8    2514     178                                                        3430  -12.43    1.83  1.0000
   1   5   8    2359     193                                                        3249  -12.43    1.86  1.0000
  -1   5  -8    2365     170                                                        3255  -12.43   -1.83  1.0000
   3  -5   8     728     116                                                         889   -5.10   -1.20  1.0000
  -3  -5  -8     548     113                                                         689   -5.12    1.19  1.0000
  -3   5  -8     510     103                                                         645   -5.10    1.20  1.0000
   3   5   8     789     128                                                         957   -5.12   -1.19  1.0000
   5  -5   8     929     123                                                         836    2.10    1.58  1.0000
  -5  -5  -8     978     127                                                         883    2.10   -1.54  1.0000
  -5   5  -8    1035     129                                                         937    2.10   -1.58  1.0000
   5   5   8     914     128                                                         822    2.10    1.54  1.0000
  -7  -5  -8     819     130                                                         789   -0.26    3.04  1.0000
   7  -5   8     926     133                                                         894   -0.27   -3.06  1.0000
  -7   5  -8    1036     143                                                        1003   -0.27    3.06  1.0000
   7   5   8     959     142                                                         926   -0.26   -3.04  1.0000
  -9  -5  -8     138      93                                                         134   -0.24    0.24  1.0000
   9  -5   8       7      79                                                           6   -0.22   -0.25  1.0000
   9   5   8     128      92                                                         124   -0.24   -0.24  1.0000
  -9   5  -8     119      85                                                         116   -0.22    0.25  1.0000
 -14  -6   8     490     141                                                         430   -2.00    0.35  1.0000
  12  -6  -8      70      71                                                          90    0.25   -5.46  1.0000
 -12  -6   8     147     109                                                         181    0.27    5.43  1.0000
 -12   6   8     228      97                                                         274    0.25    5.46  1.0000
  10  -6  -8    2081     167                                                        1679   -6.52   -1.47  1.0000
 -10  -6   8    2041     192                                                        1643   -6.52    1.47  1.0000
 -10   6   8    2412     181                                                        1978   -6.52    1.47  1.0000
   8  -6  -8    4282     220                                                        4438    1.54    0.71  1.0000
  -8  -6   8    4364     146                                                        4520    1.52   -0.73  1.0000
  -8  -6   8    4497     265                                                        4655    1.52   -0.73  1.0000
  -8   6   8    4367     236                                                        4524    1.54   -0.71  1.0000
   6  -6  -8     310      62                                                          59   14.79    9.11  1.0000
  -6  -6   8     427      48                                                         127   14.82   -9.14  1.0000
  -6  -6   8     536      97                                                         198   14.82   -9.14  1.0000
  -6   6   8     328      75                                                          69   14.79   -9.11  1.0000
   4  -6  -8    1989     159                                                        2248    4.58   -5.58  1.0000
  -4  -6   8    1826     187                                                        2074    4.58    5.59  1.0000
  -4  -6   8    1767     119                                                        2011    4.58    5.59  1.0000
  -4   6   8    1498     164                                                        1721    4.58    5.58  1.0000
   2  -6  -8    1213     125                                                        1012   -4.55   -0.33  1.0000
  -2  -6   8    1246     111                                                        1042   -4.53    0.35  1.0000
  -2   6   8    1431     139                                                        1212   -4.55    0.33  1.0000
   2   6  -8    1219      97                                                        1018   -4.53   -0.35  1.0000
   0  -6   8    2874     168                                                        3019    1.89   -0.39  1.0000
   0  -6  -8    3218     195                                                        3370    1.88    0.37  1.0000
   0   6   8    3050     198                                                        3198    1.88   -0.37  1.0000
   0   6  -8    2640     156                                                        2779    1.89    0.39  1.0000
  -2  -6  -8     555     115                                                         739    5.08    1.26  1.0000
   2  -6   8     481     105                                                         653    5.09   -1.25  1.0000
   2   6   8     495     115                                                         670    5.08   -1.26  1.0000
  -2   6  -8     700     114                                                         905    5.09    1.25  1.0000
   4  -6   8     943     139                                                        1132    4.51    1.54  1.0000
  -4  -6  -8     977     147                                                        1168    4.50   -1.53  1.0000
  -4   6  -8     952     142                                                        1142    4.51   -1.54  1.0000
   4   6   8    1000     148                                                        1193    4.50    1.53  1.0000
  -6  -6  -8     716     127                                                         725    0.12   -1.75  1.0000
   6  -6   8     854     135                                                         864    0.11    1.77  1.0000
   6   6   8     937     146                                                         947    0.12    1.75  1.0000
  -6   6  -8     831     128                                                         840    0.11   -1.77  1.0000
   8  -6   8     720     130                                                         681   -1.06    0.12  1.0000
  -8  -6  -8     535     120                                                         502   -1.05   -0.14  1.0000
  -8   6  -8     543     113                                                         510   -1.06   -0.12  1.0000
   8   6   8     594     130                                                         559   -1.05    0.14  1.0000
 -13  -7   8      54     112                                                          61   -3.37   -2.07  1.0000
 -11  -7   8       6      80                                                        -160    2.74   -2.21  1.0000
  11  -7  -8     112      83                                                         127    2.74    2.17  1.0000
 -11   7   8      32      81                                                          37    2.74   -2.17  1.0000
  -9  -7   8     672     139                                                         625    2.05    1.00  1.0000
   9  -7  -8     440     102                                                         402    2.02   -0.97  1.0000
  -9  -7   8     542      58                                                         500    2.05    1.00  1.0000
  -9   7   8     551     113                                                         509    2.02    0.97  1.0000
   7  -7  -8    1002     132                                                         931   -2.94    0.35  1.0000
  -7  -7   8    1403     166                                                        1319   -2.94   -0.33  1.0000
  -7  -7   8     911      81                                                         843   -2.94   -0.33  1.0000
  -7   7   8     845     131                                                         780   -2.94   -0.35  1.0000
  -5  -7   8     105      95                                                         243   -8.17    4.23  1.0000
   5  -7  -8      68      76                                                         183   -8.18   -4.28  1.0000
  -5  -7   8      89      62                                                         217   -8.17    4.23  1.0000
  -5   7   8     101      91                                                         237   -8.18    4.28  1.0000
  -3  -7   8     138      94                                                         203    3.27   -1.58  1.0000
  -3  -7   8     160      64                                                         230    3.27   -1.58  1.0000
   3  -7  -8     154      86                                                         222    3.25    1.60  1.0000
  -3   7   8     212      91                                                         291    3.25   -1.60  1.0000
  -1  -7   8     208      64                                                         118   -5.11   -0.09  1.0000
   1  -7  -8      88      66                                                          34   -5.09    0.11  1.0000
   1   7  -8      83      45                                                          31   -5.11    0.09  1.0000
  -1   7   8     187      76                                                         103   -5.09   -0.11  1.0000
  -1  -7  -8     264     103                                                         461   -6.90   -3.05  1.0000
   1  -7   8     277      99                                                         479   -6.91    3.03  1.0000
  -1   7  -8     136      83                                                         285   -6.91   -3.03  1.0000
   1   7   8     314     113                                                         527   -6.90    3.05  1.0000
   3  -7   8      50      71                                                          83   -6.30    2.14  1.0000
  -3  -7  -8      96      79                                                         147   -6.34   -2.15  1.0000
   3   7   8      22      66                                                        -142   -6.34    2.15  1.0000
  -3   7  -8      21      59                                                         -32   -6.30   -2.14  1.0000
   5  -7   8       4      65                                                         -93   -2.65    1.13  1.0000
  -5  -7  -8     137      82                                                          96   -2.65   -1.11  1.0000
  -5   7  -8      60      76                                                          34   -2.65   -1.13  1.0000
   5   7   8      78      79                                                          48   -2.65    1.11  1.0000
   7  -7   8     115      85                                                         110   -0.11    0.97  1.0000
  -7  -7  -8      44      80                                                          41   -0.10   -0.95  1.0000
   7   7   8      88      89                                                          84   -0.10    0.95  1.0000
  -7   7  -8      44      80                                                          41   -0.11   -0.97  1.0000
  10  -8  -8    1852     186                                                        1810   -0.02    1.91  1.0000
 -10  -8   8    2033     100                                                        1988    0.00   -1.90  1.0000
 -10  -8   8    1702     208                                                        1661    0.00   -1.90  1.0000
 -10   8   8    1793     190                                                        1751   -0.02   -1.91  1.0000
   8  -8  -8      71      85                                                         101    2.23   -0.87  1.0000
  -8  -8   8       3      88                                                         -56    2.22    0.89  1.0000
  -8  -8   8       3      50                                                         -23    2.22    0.89  1.0000
  -8   8   8      13      87                                                          27    2.23    0.87  1.0000
  -6  -8   8    3199     233                                                        3358   -1.99    0.52  1.0000
  -6  -8   8    2954     151                                                        3106   -1.99    0.52  1.0000
   6  -8  -8    2739     198                                                        2886   -1.99   -0.53  1.0000
  -6   8   8    2773     214                                                        2921   -1.99    0.53  1.0000
  -4  -8   8      46      58                                                          73   -2.64   -0.78  1.0000
   4  -8  -8      43      77                                                          69   -2.65    0.78  1.0000
  -4  -8   8       4      84                                                          -4   -2.64   -0.78  1.0000
  -4   8   8      46      80                                                          73   -2.65   -0.78  1.0000
   2  -8  -8      50      82                                                          58   -0.73    0.19  1.0000
  -2  -8   8     109      62                                                         120   -0.75   -0.17  1.0000
  -2  -8   8      55      82                                                          63   -0.75   -0.17  1.0000
  -2   8   8     168      92                                                         182   -0.73   -0.19  1.0000
   0  -8   8     934     124                                                         987   -0.03    3.79  1.0000
   0  -8  -8     789     130                                                         837   -0.04   -3.80  1.0000
   0   8   8     964     145                                                        1018   -0.04    3.80  1.0000
   2  -8   8    1046     125                                                         904    3.20   -0.73  1.0000
  -2  -8  -8    1044     141                                                         902    3.21    0.71  1.0000
  -2   8  -8    1160     123                                                        1010    3.20    0.73  1.0000
   2   8   8    1079     146                                                         935    3.21   -0.71  1.0000
   4  -8   8     144      80                                                         167   -1.72    2.09  1.0000
  -4  -8  -8     278     101                                                         312   -1.73   -2.06  1.0000
  -4   8  -8     390      98                                                         430   -1.72   -2.09  1.0000
   4   8   8     413     118                                                         454   -1.73    2.06  1.0000
   7  -9  -8     680     141                                                         819    3.23    1.72  1.0000
  -7  -9   8     650      96                                                         785    3.19   -1.71  1.0000
  -7  -9   8     629     160                                                         761    3.19   -1.71  1.0000
  -7   9   8     933     168                                                        1094    3.23   -1.72  1.0000
  -5  -9   8      14      60                                                          47    3.50   -2.84  1.0000
   5  -9  -8      57      91                                                         114    3.52    2.82  1.0000
  -5  -9   8     145     109                                                         230    3.50   -2.84  1.0000
  -5   9   8      54      97                                                         110    3.52   -2.82  1.0000
   3  -9  -8     170     103                                                         202   -0.53   -4.11  1.0000
  -3  -9   8     437     116                                                         492   -0.49    4.08  1.0000
  -3  -9   8     166      73                                                         198   -0.49    4.08  1.0000
  -3   9   8     569     131                                                         631   -0.53    4.11  1.0000
  -1  -9   8     339      94                                                         436    3.51   -2.04  1.0000
   1  -9  -8     518     125                                                         638    3.53    2.07  1.0000
  -1  -9   8     561     128                                                         685    3.51   -2.04  1.0000
  -1   9   8     656     141                                                         791    3.53   -2.07  1.0000
  -1  -9  -8     163      94                                                         234    3.65    0.32  1.0000
   1  -9   8     181      85                                                         255    3.63   -0.35  1.0000
   1   9   8     160     105                                                         231    3.65   -0.32  1.0000
 -15  -1   9     200     106                                                         198   -0.87   -1.65  1.0000
 -15  -1   9     111      52                                                         109   -0.87   -1.65  1.0000
 -15   1   9     122      66                                                         120    0.84    1.68  1.0000
 -13  -1   9    2025     101                                                        1810   -3.81    0.74  1.0000
 -13   1   9    2062     126                                                        1844    3.78   -0.78  1.0000
 -11  -1   9    2100     110                                                        2408    3.25   -3.79  1.0000
 -11   1   9    2192     136                                                        2504   -3.22    3.78  1.0000
  -9  -1   9    6361     196                                                        6442   -0.71   -3.33  1.0000
   9  -1  -9    5776     201                                                        5857    0.70   -3.38  1.0000
  -9   1   9    6504     220                                                        6590    0.70    3.38  1.0000
   7  -1  -9     587      65                                                         388    8.56    3.16  1.0000
  -7  -1   9     596      62                                                         395   -8.60    3.13  1.0000
  -7   1   9     641      70                                                         433    8.56   -3.16  1.0000
   5  -1  -9    1307      87                                                         727   15.39    4.42  1.0000
  -5  -1   9    1137      76                                                         600  -15.36    4.41  1.0000
  -5   1   9    1198      89                                                         645   15.39   -4.42  1.0000
   5   1  -9    1260      75                                                         693  -15.36   -4.41  1.0000
   3  -1  -9     552      53                                                         136   16.85    5.22  1.0000
  -3  -1   9     487      53                                                         104  -16.86    5.29  1.0000
  -3   1   9     447      56                                                          86   16.85   -5.22  1.0000
   3   1  -9     456      47                                                          90  -16.86   -5.29  1.0000
   1  -1  -9    1911     119                                                        1699    4.01    5.14  1.0000
  -1  -1   9    1585     125                                                        1390   -4.05    5.13  1.0000
  -1   1   9    1895     143                                                        1684    4.01   -5.14  1.0000
   1   1  -9    1760     111                                                        1555   -4.05   -5.13  1.0000
   1  -1   9    1341     129                                                        1224   -3.01   -3.44  1.0000
  -1  -1  -9    1206     122                                                        1094    3.03   -3.40  1.0000
   1   1   9    1239     125                                                        1125    3.03    3.40  1.0000
  -1   1  -9    1066     111                                                         961   -3.01    3.44  1.0000
   3  -1   9     251      68                                                          73  -10.52    5.58  1.0000
  -3  -1  -9     179      58                                                          35   10.52    5.55  1.0000
  -3   1  -9     138      52                                                          17  -10.52   -5.58  1.0000
   3   1   9      68      54                                                         -54   10.52   -5.55  1.0000
   5  -1   9     172      82                                                         197   -3.81   -1.01  1.0000
  -5  -1  -9       7      55                                                         -49    3.76   -1.00  1.0000
  -5   1  -9      36      63                                                          44   -3.81    1.01  1.0000
   5   1   9      57      74                                                          69    3.76    1.00  1.0000
  -7  -1  -9     106      80                                                          44    5.47    4.49  1.0000
   7  -1   9     180      81                                                          99   -5.45    4.46  1.0000
   7   1   9     391      99                                                         272    5.47   -4.49  1.0000
  -7   1  -9     153      78                                                          78   -5.45   -4.46  1.0000
   9  -1   9    2094     213                                                        2284    1.96   -5.38  1.0000
  -9  -1  -9    2197     218                                                        2392   -1.95   -5.41  1.0000
   9   1   9    2305     221                                                        2504   -1.95    5.41  1.0000
  -9   1  -9    2078     212                                                        2267    1.96    5.38  1.0000
 -16  -2   9     163     109                                                         152    0.29    1.44  1.0000
 -16   2   9     349      91                                                         334   -0.28   -1.46  1.0000
 -14  -2   9     546     133                                                         516    2.25    0.20  1.0000
 -14   2   9     701     100                                                         667   -2.26   -0.20  1.0000
 -12  -2   9    1302     137                                                         755   10.00   -7.43  1.0000
 -12  -2   9    1273      61                                                         733   10.00   -7.43  1.0000
 -12   2   9    1405     105                                                         834  -10.01    7.42  1.0000
  10  -2  -9    1312     110                                                        1691    5.58    5.02  1.0000
 -10  -2   9    1155      77                                                        1512   -5.58    5.01  1.0000
 -10  -2   9    1320      85                                                        1700   -5.58    5.01  1.0000
 -10   2   9    1549     129                                                        1959    5.58   -5.02  1.0000
  -8  -2   9    4188     157                                                        4723   -6.91   -3.36  1.0000
   8  -2  -9    4453     188                                                        5005    6.92   -3.41  1.0000
  -8  -2   9    4420     160                                                        4970   -6.91   -3.36  1.0000
  -8   2   9    4019     194                                                        4543    6.92    3.41  1.0000
   6  -2  -9     164      49                                                          84   -5.56   -1.27  1.0000
  -6  -2   9     329      52                                                         212    5.53   -1.29  1.0000
  -6   2   9     288      60                                                         179   -5.56    1.27  1.0000
  -4  -2   9     271      56                                                         203   13.05   -5.59  1.0000
   4  -2  -9     162      52                                                          83  -13.06   -5.58  1.0000
   4   2  -9     277      50                                                         209   13.05    5.59  1.0000
  -4   2   9     329      69                                                         265  -13.06    5.58  1.0000
   2  -2  -9    1874     114                                                        1053  -19.40   -6.41  1.0000
  -2  -2   9    1575      95                                                         824   19.42   -6.38  1.0000
   2   2  -9    1740      96                                                         949   19.42    6.38  1.0000
  -2   2   9    1859     118                                                        1042  -19.40    6.41  1.0000
   0  -2   9    4819     198                                                        4517    2.41   -4.46  1.0000
   0  -2  -9    4586     197                                                        4287   -2.46   -4.46  1.0000
   0   2  -9    4365     189                                                        4077    2.41    4.46  1.0000
   0   2   9    4449     201                                                        4154   -2.46    4.46  1.0000
  -2  -2  -9    2155     148                                                        1538  -12.47    4.34  1.0000
   2  -2   9    1708     128                                                        1161   12.45    4.28  1.0000
   2   2   9    1932     142                                                        1349  -12.47   -4.34  1.0000
  -2   2  -9    1634     123                                                        1099   12.45   -4.28  1.0000
   4  -2   9     695     105                                                         522    4.79   -2.06  1.0000
  -4  -2  -9     731     102                                                         554   -4.74   -2.07  1.0000
   4   2   9     705     106                                                         532   -4.74    2.07  1.0000
  -4   2  -9     736     101                                                         558    4.79    2.06  1.0000
   6  -2   9    1690     167                                                        1585    1.94    0.71  1.0000
  -6  -2  -9    1701     171                                                        1593   -1.98    0.66  1.0000
  -6   2  -9    1823     168                                                        1713    1.94   -0.71  1.0000
   6   2   9    1600     167                                                        1495   -1.98   -0.66  1.0000
  -8  -2  -9    1635     171                                                        1472   -3.03    0.09  1.0000
   8  -2   9    1580     170                                                        1421    3.03    0.02  1.0000
  -8   2  -9    2074     192                                                        1891    3.03   -0.02  1.0000
   8   2   9    1639     173                                                        1476   -3.03   -0.09  1.0000
 -15  -3   9     207     111                                                         182    1.81    0.48  1.0000
 -15   3   9     109      76                                                          90   -1.83   -0.45  1.0000
 -13  -3   9     109     119                                                         254   -7.99    4.06  1.0000
 -13   3   9      85      79                                                         216    7.97   -4.11  1.0000
 -11  -3   9     219     101                                                         190   -3.48   -1.39  1.0000
  11  -3  -9     118      55                                                          96    3.54   -1.40  1.0000
 -11   3   9     122      71                                                          99    3.54    1.40  1.0000
  -9  -3   9    1688      63                                                        1042   11.39   -8.04  1.0000
  -9  -3   9    1598     144                                                         971   11.39   -8.04  1.0000
   9  -3  -9    1650     106                                                        1011  -11.40   -8.08  1.0000
  -9  -3   9    1670      66                                                        1028   11.39   -8.04  1.0000
  -9   3   9    1623     113                                                         990  -11.40    8.08  1.0000
  -7  -3   9     437      70                                                         487    1.56   -0.62  1.0000
  -7  -3   9     603      65                                                         661    1.56   -0.62  1.0000
   7  -3  -9     593      88                                                         652   -1.59   -0.59  1.0000
  -7   3   9     473      87                                                         526   -1.59    0.59  1.0000
  -5  -3   9     201      63                                                         388   -9.84    3.57  1.0000
   5  -3  -9     198      75                                                         384    9.88    3.59  1.0000
  -5   3   9     241      81                                                         445    9.88   -3.59  1.0000
   5   3  -9     229      59                                                         427   -9.84   -3.57  1.0000
   3  -3  -9     455      97                                                         713    8.80    3.79  1.0000
  -3  -3   9     580      91                                                         871   -8.80    3.82  1.0000
  -3   3   9     533     104                                                         811    8.80   -3.79  1.0000
   3   3  -9     438      79                                                         692   -8.80   -3.82  1.0000
  -1  -3   9     573      81                                                         428    9.24    0.17  1.0000
   1  -3  -9     563      86                                                         419   -9.30    0.21  1.0000
   1   3  -9     560      74                                                         416    9.24   -0.17  1.0000
  -1   3   9     503      84                                                         366   -9.30   -0.21  1.0000
  -1  -3  -9      80      59                                                          83   -2.85    4.77  1.0000
   1  -3   9      82      61                                                          85    2.88    4.75  1.0000
   1   3   9     120      66                                                         127   -2.85   -4.77  1.0000
  -1   3  -9     121      63                                                         129    2.88   -4.75  1.0000
  -3  -3  -9     504      95                                                         445    2.16   -2.36  1.0000
   3  -3   9     469      88                                                         412   -2.16   -2.32  1.0000
   3   3   9     428      93                                                         374    2.16    2.36  1.0000
  -3   3  -9     425      87                                                         371   -2.16    2.32  1.0000
   5  -3   9    1563     178                                                        1949   -5.86    3.57  1.0000
  -5  -3  -9    1037     157                                                        1354    5.84    3.57  1.0000
  -5   3  -9    1355     168                                                        1716   -5.86   -3.57  1.0000
   5   3   9    1361     172                                                        1721    5.84   -3.57  1.0000
  -7  -3  -9      51      79                                                          48   -0.32   -3.86  1.0000
   7  -3   9      37      76                                                          34    0.33   -3.90  1.0000
   7   3   9     148      89                                                         149   -0.32    3.86  1.0000
  -7   3  -9     161      84                                                         163    0.33    3.90  1.0000
  -9  -3  -9     114      84                                                          66   -1.35    3.45  1.0000
   9  -3   9     313     101                                                         229    1.36    3.46  1.0000
  -9   3  -9      27      77                                                           7    1.36   -3.46  1.0000
   9   3   9      18      89                                                           3   -1.35   -3.45  1.0000
 -14  -4   9    1505     206                                                        1735    4.05   -1.03  1.0000
 -14   4   9    2146     177                                                        2418   -4.03    1.06  1.0000
 -12  -4   9     876     144                                                         753   -1.16    5.41  1.0000
 -12   4   9    1019     119                                                         887    1.15   -5.41  1.0000
 -10  -4   9     802     126                                                         522   -6.83    4.82  1.0000
  10  -4  -9    1102     101                                                         769    6.84    4.82  1.0000
 -10   4   9    1097     114                                                         765    6.84   -4.82  1.0000
  -8  -4   9     165      33                                                          48  -13.74    6.93  1.0000
  -8  -4   9     194      37                                                          77  -13.74    6.93  1.0000
   8  -4  -9     130      52                                                          14   13.76    6.93  1.0000
  -8  -4   9     114      80                                                         -19  -13.74    6.93  1.0000
  -8   4   9     147      59                                                          31   13.76   -6.93  1.0000
   6  -4  -9     850     126                                                        1317  -10.01   -3.06  1.0000
  -6  -4   9     670      90                                                        1089    9.98   -3.03  1.0000
  -6   4   9     740     127                                                        1179  -10.01    3.06  1.0000
  -4  -4   9    4490     191                                                        5173    6.83   -1.98  1.0000
   4  -4  -9    4456     220                                                        5136   -6.84   -1.91  1.0000
  -4   4   9    4558     227                                                        5245   -6.84    1.91  1.0000
   4   4  -9    4514     177                                                        5199    6.83    1.98  1.0000
  -2  -4   9    1091      90                                                         642  -11.10   15.06  1.0000
   2  -4  -9    1004      94                                                         570   11.11   15.04  1.0000
  -2   4   9    1181     108                                                         715   11.11  -15.04  1.0000
   2   4  -9    1065      81                                                         621  -11.10  -15.06  1.0000
   0  -4   9    5843     198                                                        4211  -18.01    1.20  1.0000
   0  -4  -9    5922     213                                                        4281   17.98    1.19  1.0000
   0   4  -9    6039     191                                                        4378  -18.01   -1.20  1.0000
   0   4   9    5736     215                                                        4123   17.98   -1.19  1.0000
  -2  -4  -9    3089     173                                                        2621    6.52   -0.16  1.0000
   2  -4   9    3400     173                                                        2908   -6.53   -0.22  1.0000
   2   4   9    3305     179                                                        2820    6.52    0.16  1.0000
  -2   4  -9    3274     168                                                        2792   -6.53    0.22  1.0000
  -4  -4  -9    2647     196                                                        2886   -3.63    1.03  1.0000
   4  -4   9    3137     203                                                        3399    3.67    1.05  1.0000
  -4   4  -9    3048     194                                                        3307    3.67   -1.05  1.0000
   4   4   9    3292     208                                                        3558   -3.63   -1.03  1.0000
   6  -4   9     416     102                                                         396   -0.24    1.24  1.0000
  -6  -4  -9     282      97                                                         266    0.22    1.21  1.0000
   6   4   9     325     101                                                         308    0.22   -1.21  1.0000
  -6   4  -9     447     105                                                         426   -0.24   -1.24  1.0000
  -8  -4  -9      60      83                                                          55    3.07   -0.41  1.0000
   8  -4   9      58      80                                                          53   -3.11   -0.43  1.0000
  -8   4  -9      14      75                                                           9   -3.11    0.43  1.0000
   8   4   9     105     100                                                         100    3.07    0.41  1.0000
 -13  -5   9       4     100                                                          -4    2.72    0.56  1.0000
 -13   5   9     145      80                                                         117   -2.72   -0.60  1.0000
  11  -5  -9     648     104                                                         554   -2.06   -2.39  1.0000
 -11  -5   9     360     119                                                         290    2.09   -2.39  1.0000
 -11   5   9     550     103                                                         463   -2.06    2.39  1.0000
   9  -5  -9     298      77                                                         237   -7.46    1.76  1.0000
  -9  -5   9     360     110                                                         297    7.44    1.79  1.0000
  -9   5   9     375      86                                                         310   -7.46   -1.76  1.0000
  -7  -5   9     417     107                                                         270    7.70   -5.24  1.0000
  -7  -5   9     545      56                                                         379    7.70   -5.24  1.0000
   7  -5  -9     499      84                                                         339   -7.71   -5.21  1.0000
  -7   5   9     477      89                                                         320   -7.71    5.21  1.0000
  -5  -5   9     167      53                                                         155    4.44    5.40  1.0000
   5  -5  -9     165      72                                                         154   -4.39    5.40  1.0000
  -5  -5   9     150      83                                                         137    4.44    5.40  1.0000
  -5   5   9     128      70                                                         115   -4.39   -5.40  1.0000
  -3  -5   9     346      66                                                         163    8.03   -2.72  1.0000
   3  -5  -9     309      64                                                         138   -8.03   -2.78  1.0000
   3   5  -9     233      49                                                          89    8.03    2.72  1.0000
  -3   5   9     672      91                                                         404   -8.03    2.78  1.0000
  -1  -5   9    1159     106                                                         863    7.55    1.41  1.0000
   1  -5  -9    1462     131                                                        1127   -7.58    1.46  1.0000
  -1   5   9    1291     132                                                         977   -7.58   -1.46  1.0000
   1   5  -9    1326     109                                                        1008    7.55   -1.41  1.0000
  -1  -5  -9    2549     167                                                        2360   -2.04   -2.69  1.0000
   1  -5   9    2589     160                                                        2396    2.07   -2.71  1.0000
  -1   5  -9    2708     153                                                        2510    2.07    2.71  1.0000
   1   5   9    2836     179                                                        2636   -2.04    2.69  1.0000
  -3  -5  -9     237      87                                                         162   -3.59    2.69  1.0000
   3  -5   9     388      90                                                         291    3.61    2.74  1.0000
  -3   5  -9     227      74                                                         154    3.61   -2.74  1.0000
   3   5   9     291      81                                                         208   -3.59   -2.69  1.0000
  -5  -5  -9      72      76                                                          46   -3.80    0.22  1.0000
   5  -5   9     316      88                                                         264    3.75    0.20  1.0000
   5   5   9       7      76                                                         -42   -3.80   -0.22  1.0000
  -5   5  -9      52      68                                                          30    3.75   -0.20  1.0000
   7  -5   9     140      89                                                         171    1.54    3.58  1.0000
  -7  -5  -9     152      92                                                         185   -1.53    3.61  1.0000
   7   5   9     235     105                                                         277   -1.53   -3.61  1.0000
  -7   5  -9     319     107                                                         368    1.54   -3.58  1.0000
 -12  -6   9     258     112                                                         239   -0.43    0.76  1.0000
  12  -6  -9     160      86                                                         145    0.44    0.74  1.0000
 -12   6   9      90      87                                                          79    0.44   -0.74  1.0000
 -10  -6   9     190     107                                                         208    2.31   -1.73  1.0000
  10  -6  -9       4      66                                                         -58   -2.31   -1.71  1.0000
 -10   6   9       4      75                                                         -10   -2.31    1.71  1.0000
  -8  -6   9    2153     191                                                        1690    7.26   -2.96  1.0000
  -8  -6   9    2497     101                                                        1996    7.26   -2.96  1.0000
   8  -6  -9    2620     178                                                        2107   -7.24   -2.98  1.0000
  -8   6   9    2370     180                                                        1883   -7.24    2.98  1.0000
   6  -6  -9      37      65                                                          20    1.61    3.44  1.0000
  -6  -6   9      78      85                                                          54   -1.62    3.43  1.0000
  -6  -6   9      40      46                                                          22   -1.62    3.43  1.0000
  -6   6   9     122      76                                                          93    1.61   -3.44  1.0000
   4  -6  -9     192      75                                                         233    0.23    3.76  1.0000
  -4  -6   9     359      76                                                         416   -0.23    3.75  1.0000
  -4  -6   9     322     100                                                         376   -0.23    3.75  1.0000
  -4   6   9     377     102                                                         435    0.23   -3.76  1.0000
   2  -6  -9    1130     144                                                        1282    4.58   -7.85  1.0000
  -2  -6   9    1136     124                                                        1287   -4.55   -7.83  1.0000
   2   6  -9     792     102                                                         913   -4.55    7.83  1.0000
  -2   6   9    1022     140                                                        1165    4.58    7.85  1.0000
   0  -6  -9     399     101                                                         421   -0.04    2.30  1.0000
   0  -6   9     512      93                                                         538    0.02    2.33  1.0000
   0   6   9     313      99                                                         332   -0.04   -2.30  1.0000
   0   6  -9     292      73                                                         311    0.02   -2.33  1.0000
   2  -6   9     129      74                                                         167   -1.49   -2.21  1.0000
  -2  -6  -9     213      85                                                         261    1.50   -2.15  1.0000
   2   6   9     172      91                                                         215    1.50    2.15  1.0000
  -2   6  -9     165      74                                                         208   -1.49    2.21  1.0000
  -4  -6  -9     812     136                                                         877    1.56    0.34  1.0000
   4  -6   9     642     119                                                         698   -1.51    0.34  1.0000
  -4   6  -9     659     121                                                         715   -1.51   -0.34  1.0000
   4   6   9     522     125                                                         574    1.56   -0.34  1.0000
  -6  -6  -9     491     111                                                         461   -0.91    0.83  1.0000
   6  -6   9     468     111                                                         439    0.88    0.89  1.0000
   6   6   9     418     114                                                         390   -0.91   -0.83  1.0000
  -6   6  -9     272      93                                                         250    0.88   -0.89  1.0000
 -11  -7   9    1605     203                                                        1698    1.92   -0.10  1.0000
  11  -7  -9    1587     179                                                        1677   -1.87   -0.11  1.0000
 -11   7   9    1598     186                                                        1688   -1.87    0.11  1.0000
  -9  -7   9    1939      93                                                        1644   -4.25    2.76  1.0000
  -9  -7   9    1776     191                                                        1494   -4.25    2.76  1.0000
   9  -7  -9    1920     172                                                        1628    4.25    2.71  1.0000
  -9   7   9    2030     186                                                        1729    4.25   -2.71  1.0000
  -7  -7   9    1725     102                                                        1428   -4.00    4.91  1.0000
   7  -7  -9    1647     157                                                        1358    3.97    4.95  1.0000
  -7  -7   9    1448     170                                                        1177   -4.00    4.91  1.0000
  -7   7   9    1851     175                                                        1544    3.97   -4.95  1.0000
   5  -7  -9     215      90                                                         186    2.74   -6.26  1.0000
  -5  -7   9     161      60                                                         133   -2.70   -6.26  1.0000
  -5  -7   9     183      98                                                         155   -2.70   -6.26  1.0000
  -5   7   9     261      92                                                         231    2.74    6.26  1.0000
   3  -7  -9     143      86                                                         159   -0.79    1.58  1.0000
  -3  -7   9     153      70                                                         170    0.79    1.61  1.0000
  -3   7   9      95      82                                                         108   -0.79   -1.58  1.0000
   1  -7  -9    1379     144                                                        1122    5.40    0.95  1.0000
  -1  -7   9    1287     123                                                        1039   -5.43    0.92  1.0000
  -1   7   9    1569     160                                                        1294    5.40   -0.95  1.0000
  -1  -7  -9     198      89                                                         235   -1.79    0.31  1.0000
   1  -7   9     102      69                                                         129    1.82    0.28  1.0000
  -1   7  -9     237      83                                                         278    1.82   -0.28  1.0000
   1   7   9     194     101                                                         231   -1.79   -0.31  1.0000
  -3  -7  -9     396     106                                                         371    0.91   -0.09  1.0000
   3  -7   9     176      82                                                         160   -0.90   -0.04  1.0000
   3   7   9     165      89                                                         149    0.91    0.09  1.0000
  -3   7  -9     318      90                                                         296   -0.90    0.04  1.0000
   5  -7   9    1109     157                                                        1191    1.37   -1.50  1.0000
  -5  -7  -9    1030     155                                                        1109   -1.38   -1.49  1.0000
  -5   7  -9    1111     158                                                        1193    1.37    1.50  1.0000
   5   7   9     925     151                                                        1000   -1.38    1.49  1.0000
 -10  -8   9    1598     192                                                        1302    4.15   -3.84  1.0000
   8  -8  -9      19      73                                                         -50   -5.46   -2.95  1.0000
  -8  -8   9      19      49                                                         -13    5.48   -2.95  1.0000
  -8  -8   9      74      95                                                          20    5.48   -2.95  1.0000
  -8   8   9      19      86                                                         -75   -5.46    2.95  1.0000
   6  -8  -9      75      84                                                          81   -1.51   -0.60  1.0000
  -6  -8   9      28      95                                                          32    1.48   -0.55  1.0000
  -6  -8   9       1      52                                                         -37    1.48   -0.55  1.0000
  -6   8   9       1      80                                                         -78   -1.51    0.60  1.0000
  -4  -8   9     249     102                                                         251   -0.88    0.75  1.0000
  -4  -8   9      33      56                                                          33   -0.88    0.75  1.0000
   4  -8  -9     115      85                                                         116    0.91    0.81  1.0000
  -4   8   9     105      87                                                         106    0.91   -0.81  1.0000
   2  -8  -9     902     117                                                         635   -7.01   -0.10  1.0000
  -2  -8   9     872     101                                                         609    7.03   -0.11  1.0000
  -2   8   9     687     115                                                         457   -7.01    0.10  1.0000
   0  -8   9     136      66                                                          77    7.26   -1.09  1.0000
   0  -8  -9      81      83                                                          34   -7.28   -1.12  1.0000
   0   8   9      26      86                                                         -11   -7.28    1.12  1.0000
  -2  -8  -9      97      87                                                         115   -1.26   -0.78  1.0000
   2  -8   9     108      76                                                         127    1.25   -0.83  1.0000
   2   8   9     276     110                                                         306   -1.26    0.78  1.0000
  -5  -9   9     341      76                                                         259    3.52   -0.57  1.0000
   5  -9  -9       6      87                                                         -28   -3.50   -0.55  1.0000
  -5  -9   9     195     102                                                         134    3.52   -0.57  1.0000
  -5   9   9     209      92                                                         146   -3.50    0.55  1.0000
   3  -9  -9    1211     162                                                        1211   -0.06    0.36  1.0000
  -3  -9   9     818     115                                                         818    0.07    0.41  1.0000
  -3  -9   9     936     154                                                         936    0.07    0.41  1.0000
  -3   9   9     749     143                                                         749   -0.06   -0.36  1.0000
  -1  -9   9     335      91                                                         260   -3.13   -0.40  1.0000
   1  -9  -9     162      87                                                         111    3.12   -0.37  1.0000
  -1   9   9     100     102                                                          61    3.12    0.37  1.0000
 -14   0  10    1504     124                                                        1899   -6.45    3.50  1.0000
 -12   0  10    4085     148                                                        3236    8.68   -6.39  1.0000
 -10   0  10    3624     162                                                        3946   -2.19    3.61  1.0000
   8   0 -10    2209     146                                                        3447  -18.80   -3.85  1.0000
  -8   0  10    2433     160                                                        3727  -18.80    3.85  1.0000
   6   0 -10    3524     190                                                        5204  -17.55   -7.76  1.0000
  -6   0  10    3404     200                                                        5058  -17.55    7.76  1.0000
   4   0 -10     395      90                                                         749   -9.61   -5.52  1.0000
  -4   0  10     477     102                                                         860   -9.61    5.52  1.0000
  -2   0  10    4728     204                                                        4485    2.61    4.99  1.0000
   2   0 -10    5092     202                                                        4841    2.61   -4.99  1.0000
   0   0  10     856     126                                                        1088   -8.30   -4.58  1.0000
   0   0 -10     883     123                                                        1120   -8.30    4.58  1.0000
  -2   0 -10     383     110                                                         720   -6.98   -7.84  1.0000
   2   0  10     259     102                                                         545   -6.98    7.84  1.0000
  -4   0 -10       4      58                                                         -35   -2.10    1.88  1.0000
   4   0  10      20      73                                                          41   -2.10   -1.88  1.0000
  -6   0 -10    1210     151                                                        1183   -2.24   -5.15  1.0000
   6   0  10    1025     145                                                         999   -2.24    5.15  1.0000
  -8   0 -10     321      98                                                         181    3.98    5.66  1.0000
   8   0  10      23      81                                                         -86    3.98   -5.66  1.0000
 -15  -1  10       9      49                                                          17    2.67   -0.57  1.0000
 -15   1  10       4      60                                                         -15    2.68   -0.57  1.0000
 -13  -1  10     788      79                                                         800    0.71    0.67  1.0000
 -13   1  10     708      97                                                         719    0.72    0.67  1.0000
 -11  -1  10      21      40                                                         -49   -6.18    2.42  1.0000
 -11   1  10      14      51                                                          53   -6.18    2.42  1.0000
   9  -1 -10    1832     122                                                        2189    3.17    6.53  1.0000
  -9  -1  10    1787     117                                                        2139    3.17   -6.51  1.0000
  -9   1  10    1984     136                                                        2355    3.17   -6.53  1.0000
  -7  -1  10     107      60                                                         307    9.93   -3.03  1.0000
   7  -1 -10      72      64                                                         245    9.93    3.03  1.0000
   7   1 -10     104      59                                                         302    9.93    3.03  1.0000
  -7   1  10      61      68                                                         225    9.93   -3.03  1.0000
   5  -1 -10      35      48                                                          57    2.15    1.00  1.0000
  -5  -1  10      34      47                                                          55    2.14   -1.00  1.0000
   5   1 -10     101      48                                                         136    2.14    1.00  1.0000
  -5   1  10      88      61                                                         121    2.15   -1.00  1.0000
  -3  -1  10     221      63                                                         197   -1.13   -2.18  1.0000
   3  -1 -10      75      58                                                          60   -1.14    2.20  1.0000
   3   1 -10     187      56                                                         165   -1.13    2.18  1.0000
  -3   1  10      59      56                                                          46   -1.14   -2.20  1.0000
  -1  -1  10     904     114                                                         961    1.15   -0.74  1.0000
   1  -1 -10     723     103                                                         774    1.16    0.72  1.0000
   1   1 -10     876     105                                                         932    1.15    0.74  1.0000
  -1   1  10     825     115                                                         879    1.16   -0.72  1.0000
   1  -1  10      96      80                                                         243    8.19    1.64  1.0000
  -1  -1 -10     234      89                                                         444    8.20   -1.66  1.0000
   1   1  10     217      94                                                         421    8.20    1.66  1.0000
  -1   1 -10     155      82                                                         332    8.19   -1.64  1.0000
   3  -1  10       7      68                                                           5    0.89    0.58  1.0000
  -3  -1 -10      35      72                                                          31    0.87   -0.57  1.0000
  -3   1 -10     116      68                                                         109    0.89   -0.58  1.0000
   3   1  10     123      72                                                         116    0.87    0.57  1.0000
   5  -1  10     128      88                                                         155   -1.20    1.29  1.0000
  -5  -1 -10     127      87                                                         154   -1.19   -1.28  1.0000
  -5   1 -10      72      81                                                          93   -1.20   -1.29  1.0000
   5   1  10     149      85                                                         178   -1.19    1.28  1.0000
  -7  -1 -10    5424     274                                                        5428    0.08   -1.90  1.0000
   7  -1  10    4808     266                                                        4813    0.09    1.89  1.0000
 -14  -2  10    1434      82                                                        1461   -0.08   -1.04  1.0000
 -14   2  10    1616     147                                                        1645   -0.09   -1.04  1.0000
 -12  -2  10     335      53                                                         316    0.03    1.28  1.0000
 -12   2  10     303      82                                                         285    0.03    1.26  1.0000
 -10  -2  10    1092      87                                                        1358    5.72   -2.09  1.0000
 -10   2  10    1099     128                                                        1366    5.74   -2.08  1.0000
   8  -2 -10      69      50                                                          51   -1.44   -1.59  1.0000
  -8  -2  10      81      46                                                          62   -1.44    1.58  1.0000
  -8   2  10     100      58                                                          78   -1.44    1.59  1.0000
   6  -2 -10    2053     136                                                        2218    2.57    0.38  1.0000
  -6  -2  10    2339     129                                                        2515    2.58   -0.36  1.0000
   6   2 -10    2199     118                                                        2370    2.58    0.36  1.0000
  -6   2  10    2334     151                                                        2510    2.57   -0.38  1.0000
  -4  -2  10    2395     154                                                        3121    9.65   -3.03  1.0000
   4  -2 -10    2152     162                                                        2843    9.67    2.99  1.0000
   4   2 -10    2333     143                                                        3051    9.65    3.03  1.0000
  -4   2  10    2388     169                                                        3113    9.67   -2.99  1.0000
   2  -2 -10     102      69                                                         249    8.69   -3.36  1.0000
  -2  -2  10     108      73                                                         259    8.68    3.34  1.0000
  -2   2  10      58      75                                                         175    8.69    3.36  1.0000
   2   2 -10      93      64                                                         235    8.68   -3.34  1.0000
   0  -2 -10     557      92                                                         485   -1.55   -1.67  1.0000
   0  -2  10     272      77                                                         222   -1.54    1.69  1.0000
   0   2  10     168      73                                                         130   -1.55    1.67  1.0000
   0   2 -10     454      82                                                         389   -1.54   -1.69  1.0000
   2  -2  10    1117     138                                                        1240    1.79   -3.51  1.0000
  -2  -2 -10    1008     137                                                        1125    1.81    3.51  1.0000
   2   2  10     912     131                                                        1024    1.81   -3.51  1.0000
  -2   2 -10    1055     133                                                        1174    1.79    3.51  1.0000
  -4  -2 -10     163      76                                                         149    0.75   -2.34  1.0000
   4  -2  10     115      80                                                         103    0.76    2.34  1.0000
  -4   2 -10     161      73                                                         147    0.76   -2.34  1.0000
   4   2  10      44      75                                                          36    0.75    2.34  1.0000
   6  -2  10     741     125                                                         619    3.37   -1.71  1.0000
  -6  -2 -10     605     120                                                         495    3.38    1.71  1.0000
  -6   2 -10     809     123                                                         682    3.37    1.71  1.0000
   6   2  10     769     124                                                         645    3.38   -1.71  1.0000
   8  -2  10     510     116                                                         508   -0.32    4.75  1.0000
  -8  -2 -10     611     126                                                         610   -0.31   -4.74  1.0000
   8   2  10     894     151                                                         895   -0.31    4.74  1.0000
  -8   2 -10     821     143                                                         821   -0.32   -4.75  1.0000
 -15  -3  10     699     164                                                         762   -1.04    1.40  1.0000
 -13  -3  10     916     180                                                        1237   -4.80    5.81  1.0000
 -13   3  10     907     139                                                        1226   -4.81    5.80  1.0000
 -11  -3  10    3812     263                                                        4120   -3.75    0.67  1.0000
 -11   3  10    3690     200                                                        3992   -3.74    0.65  1.0000
  -9  -3  10      23      37                                                          28   -2.54    7.23  1.0000
   9  -3 -10      28      47                                                         -41   -2.56   -7.25  1.0000
  -9   3  10      80      66                                                         121   -2.56    7.25  1.0000
  -7  -3  10     277      56                                                         258    0.88    0.52  1.0000
   7  -3 -10     335      72                                                         314    0.89   -0.49  1.0000
  -7   3  10     157      68                                                         143    0.89    0.49  1.0000
  -5  -3  10     728      92                                                         865   -3.47    1.68  1.0000
   5  -3 -10     922     116                                                        1075   -3.46   -1.70  1.0000
   5   3 -10     650      80                                                         779   -3.47   -1.68  1.0000
  -5   3  10     591     106                                                         714   -3.46    1.70  1.0000
   3  -3 -10    2136     181                                                        3343  -14.53   -9.12  1.0000
  -3  -3  10    2190     165                                                        3410  -14.52    9.12  1.0000
   3   3 -10    2347     161                                                        3605  -14.52   -9.12  1.0000
  -3   3  10    2025     184                                                        3203  -14.53    9.12  1.0000
   1  -3 -10    4452     231                                                        5102   -7.37    0.25  1.0000
  -1  -3  10    4364     219                                                        5009   -7.39   -0.24  1.0000
  -1   3  10    4010     231                                                        4628   -7.37   -0.25  1.0000
   1   3 -10    4602     212                                                        5264   -7.39    0.24  1.0000
   1  -3  10    1782     159                                                        2277   -9.09   -1.91  1.0000
  -1  -3 -10    1948     166                                                        2465   -9.11    1.91  1.0000
   1   3  10    1882     170                                                        2391   -9.11   -1.91  1.0000
  -1   3 -10    1726     156                                                        2213   -9.09    1.91  1.0000
  -3  -3 -10     647     103                                                         534    4.32    0.06  1.0000
   3  -3  10     478      98                                                         381    4.31   -0.06  1.0000
  -3   3 -10     781     113                                                         657    4.31    0.06  1.0000
   3   3  10     669     109                                                         554    4.32   -0.06  1.0000
   5  -3  10    1992     181                                                        1887    1.90    0.76  1.0000
  -5  -3 -10    2278     199                                                        2166    1.90   -0.76  1.0000
   5   3  10    1772     180                                                        1673    1.90    0.76  1.0000
  -5   3 -10    2274     199                                                        2161    1.90   -0.76  1.0000
  -7  -3 -10     959     151                                                         949    0.28    0.58  1.0000
   7  -3  10     960     145                                                         950    0.27   -0.55  1.0000
  -7   3 -10     990     147                                                         980    0.27    0.55  1.0000
   7   3  10    1003     162                                                         993    0.28   -0.58  1.0000
 -14  -4  10     241     131                                                         329    3.10   -2.18  1.0000
 -14   4  10     472     114                                                         592    3.09   -2.19  1.0000
 -12  -4  10     190     117                                                         166   -0.69    1.76  1.0000
 -12   4  10     195      87                                                         171   -0.69    1.73  1.0000
 -10  -4  10       3      90                                                         -69   -0.48    2.43  1.0000
 -10  -4  10      15      34                                                          26   -0.48    2.43  1.0000
  10  -4 -10       3      55                                                           7   -0.47   -2.44  1.0000
 -10   4  10       3      62                                                         -47   -0.47    2.44  1.0000
   8  -4 -10     170      76                                                         308    6.17    3.93  1.0000
  -8  -4  10      81      48                                                         180    6.18   -3.92  1.0000
  -8   4  10     265      94                                                         433    6.17   -3.93  1.0000
  -6  -4  10     988      78                                                         617    9.12   -2.64  1.0000
   6  -4 -10    1127     108                                                         728    9.12    2.69  1.0000
  -6   4  10    1057     110                                                         672    9.12   -2.69  1.0000
   4  -4 -10     244      90                                                         407    6.38   -1.92  1.0000
  -4  -4  10     227      74                                                         384    6.35    1.94  1.0000
  -4   4  10     246      96                                                         409    6.38    1.92  1.0000
  -2  -4  10     246      76                                                         250   -4.12   -2.69  1.0000
   2  -4 -10     405      92                                                         414   -4.14    2.67  1.0000
   2   4 -10     301      70                                                         307   -4.12    2.69  1.0000
  -2   4  10     319      91                                                         325   -4.14   -2.67  1.0000
   0  -4 -10    1013     130                                                        1057    0.77    1.34  1.0000
   0  -4  10     922     119                                                         964    0.77   -1.31  1.0000
   0   4  10    1082     138                                                        1127    0.77   -1.34  1.0000
   0   4 -10     792     108                                                         831    0.77    1.31  1.0000
  -2  -4 -10     627     116                                                         708    2.16    0.75  1.0000
   2  -4  10    1031     134                                                        1133    2.14   -0.73  1.0000
   2   4  10     835     133                                                         928    2.16   -0.75  1.0000
  -2   4 -10     825     119                                                         916    2.14    0.73  1.0000
   4  -4  10      25      73                                                          57    4.75   -0.80  1.0000
  -4  -4 -10       5      79                                                          17    4.76    0.75  1.0000
   4   4  10      11      71                                                         -86    4.76   -0.75  1.0000
  -4   4 -10      44      71                                                          86    4.75    0.80  1.0000
  -6  -4 -10     408     116                                                         467    1.62   -4.56  1.0000
   6  -4  10     494     122                                                         560    1.62    4.56  1.0000
  -6   4 -10     482     116                                                         547    1.62   -4.56  1.0000
   6   4  10     207     104                                                         247    1.62    4.56  1.0000
 -13  -5  10       3      93                                                        -142    0.79   -2.37  1.0000
 -13   5  10      51      86                                                          62    0.79   -2.40  1.0000
  11  -5 -10    1516     167                                                        1952    7.12    3.19  1.0000
 -11  -5  10    1273     203                                                        1675    7.12   -3.20  1.0000
 -11   5  10    1560     182                                                        2002    7.12   -3.19  1.0000
  -9  -5  10    1754     102                                                        2183    6.65   -2.32  1.0000
  -9  -5  10    1699     214                                                        2122    6.65   -2.32  1.0000
   9  -5 -10    1671     157                                                        2091    6.64    2.34  1.0000
  -9   5  10    1881     174                                                        2325    6.64   -2.34  1.0000
   7  -5 -10    1711     161                                                        2273   -5.39   -8.39  1.0000
  -7  -5  10    1641     117                                                        2192   -5.38    8.39  1.0000
  -7   5  10    1385     171                                                        1894   -5.39    8.39  1.0000
   5  -5 -10     830     112                                                         721   -2.24   -2.63  1.0000
  -5  -5  10    1056      99                                                         932   -2.25    2.65  1.0000
  -5   5  10     945     123                                                         828   -2.24    2.63  1.0000
   3  -5 -10    1243     180                                                        2088    7.13   13.76  1.0000
  -3  -5  10     816     135                                                        1520    7.13  -13.75  1.0000
  -3   5  10    1159     179                                                        1979    7.13  -13.76  1.0000
   1  -5 -10    1566     172                                                        1771    3.84   -0.28  1.0000
  -1  -5  10    1425     147                                                        1620    3.83    0.30  1.0000
   1   5 -10    1988     140                                                        2217    3.83   -0.30  1.0000
  -1   5  10    1588     174                                                        1794    3.84    0.28  1.0000
   1  -5  10     362      87                                                         361    0.01   -2.53  1.0000
  -1  -5 -10     192      85                                                         190    0.02    2.52  1.0000
  -1   5 -10     146      68                                                         144    0.01    2.53  1.0000
   1   5  10     240      97                                                         239    0.02   -2.52  1.0000
  -3  -5 -10    4418     240                                                        4194   -2.57   -0.10  1.0000
   3  -5  10    4034     222                                                        3821   -2.57    0.09  1.0000
  -3   5 -10    4113     216                                                        3897   -2.57   -0.09  1.0000
   3   5  10    4303     238                                                        4082   -2.57    0.10  1.0000
   5  -5  10     643     132                                                         743    2.33   -2.35  1.0000
  -5  -5 -10     638     135                                                         738    2.34    2.35  1.0000
   5   5  10     629     134                                                         729    2.34   -2.35  1.0000
  -5   5 -10     570     125                                                         665    2.33    2.35  1.0000
 -12  -6  10     652     156                                                         752   -2.74    1.45  1.0000
 -12   6  10    1118     167                                                        1247   -2.74    1.42  1.0000
 -10  -6  10    1687     223                                                        2031   -5.95    1.24  1.0000
  10  -6 -10    2037     173                                                        2413   -5.94   -1.25  1.0000
 -10   6  10    1925     205                                                        2291   -5.94    1.25  1.0000
  -8  -6  10     554      71                                                         579   -0.49    1.72  1.0000
   8  -6 -10     504     110                                                         528   -0.50   -1.74  1.0000
  -8  -6  10     591     144                                                         617   -0.49    1.72  1.0000
  -8   6  10     555     126                                                         581   -0.50    1.74  1.0000
  -6  -6  10     719     153                                                         923   -4.78   -7.06  1.0000
  -6  -6  10     777     101                                                         990   -4.78   -7.06  1.0000
   6  -6 -10     610     125                                                         797   -4.77    7.10  1.0000
  -6   6  10     589     125                                                         773   -4.77   -7.10  1.0000
  -4  -6  10     214      75                                                         381   -7.06    0.63  1.0000
   4  -6 -10     186      95                                                         342   -7.03   -0.63  1.0000
  -4   6  10     123      97                                                         255   -7.03    0.63  1.0000
   2  -6 -10    1507     184                                                        1950   -8.76    1.00  1.0000
  -2  -6  10    1641     143                                                        2101   -8.75   -1.02  1.0000
  -2   6  10    1312     178                                                        1726   -8.76   -1.00  1.0000
   0  -6 -10    1825     167                                                        1571    4.45    0.26  1.0000
   0  -6  10    1892     150                                                        1633    4.46   -0.23  1.0000
   0   6 -10    1776     144                                                        1526    4.46    0.23  1.0000
   0   6  10    1691     169                                                        1447    4.45   -0.26  1.0000
   2  -6  10     316      82                                                         262    0.40   -2.97  1.0000
  -2  -6 -10     416     107                                                         353    0.44    2.98  1.0000
   2   6  10     252      96                                                         203    0.44   -2.98  1.0000
  -2   6 -10     413      95                                                         351    0.40    2.97  1.0000
  -4  -6 -10       0      82                                                         -65    0.48    0.79  1.0000
   4  -6  10      86      79                                                          79    0.50   -0.82  1.0000
   4   6  10      13      88                                                          10    0.48   -0.79  1.0000
  -4   6 -10     140      85                                                         132    0.50    0.82  1.0000
 -11  -7  10       1     109                                                         -25    1.35   -1.01  1.0000
  -9  -7  10      53      47                                                          53   -1.77   -1.75  1.0000
  -9  -7  10      71     111                                                          72   -1.77   -1.75  1.0000
   9  -7 -10     167      83                                                         170   -1.79    1.75  1.0000
  -9   7  10     194      99                                                         197   -1.79   -1.75  1.0000
  -7  -7  10     522     146                                                         595   -2.23   -0.47  1.0000
   7  -7 -10     250      95                                                         301   -2.21    0.51  1.0000
  -7  -7  10     423      79                                                         489   -2.23   -0.47  1.0000
  -7   7  10     294     108                                                         349   -2.21   -0.51  1.0000
  -5  -7  10     150     102                                                         141    1.34   -3.28  1.0000
   5  -7 -10     320      97                                                         310    1.33    3.27  1.0000
  -5  -7  10      33      57                                                          26    1.34   -3.28  1.0000
  -5   7  10     134      90                                                         125    1.33   -3.27  1.0000
   3  -7 -10     843     152                                                        1133    6.73   -3.52  1.0000
  -3  -7  10    1144     139                                                        1479    6.73    3.48  1.0000
  -3   7  10    1066     166                                                        1390    6.73    3.52  1.0000
   1  -7 -10     143      86                                                         109    3.05    2.18  1.0000
  -1  -7  10       7      59                                                         -55    3.04   -2.17  1.0000
  -1   7  10       7      73                                                         -61    3.05   -2.18  1.0000
  -1  -7 -10     639     130                                                         655   -0.15   -1.73  1.0000
   1  -7  10     689     121                                                         706   -0.15    1.75  1.0000
   1   7  10     856     146                                                         875   -0.15    1.73  1.0000
   3  -7  10       0      77                                                          -3    0.54   -0.62  1.0000
  -3  -7 -10      50      87                                                          57    0.57    0.59  1.0000
   3   7  10     125     100                                                         137    0.57   -0.59  1.0000
  -3   7 -10       0      65                                                         -65    0.54    0.62  1.0000
  -6  -8  10     357      80                                                         380    2.72    1.06  1.0000
  -6  -8  10     196     114                                                         212    2.72    1.06  1.0000
   6  -8 -10     282     109                                                         302    2.71   -1.04  1.0000
  -6   8  10     618     130                                                         649    2.71    1.04  1.0000
  -4  -8  10    2150     148                                                        2106   -1.19   -1.63  1.0000
   4  -8 -10    1815     192                                                        1776   -1.16    1.64  1.0000
  -4   8  10    2116     203                                                        2074   -1.16   -1.64  1.0000
  -2  -8  10     185      76                                                         182   -0.11    0.18  1.0000
   2  -8 -10     192     106                                                         188   -0.13   -0.20  1.0000
  -2   8  10     232     103                                                         228   -0.13    0.20  1.0000
   0  -8  10       2      59                                                         -38   -0.54   -1.81  1.0000
   0  -8 -10       2      74                                                         -96   -0.55    1.83  1.0000
   0   8  10      62      91                                                          44   -0.55   -1.83  1.0000
 -13  -1  11     748      90                                                         934   -3.71    2.83  1.0000
 -13   1  11     517      95                                                         673    3.72   -2.83  1.0000
 -11  -1  11     958      85                                                         696    3.55   -5.54  1.0000
 -11   1  11    1155     106                                                         865   -3.56    5.54  1.0000
  -9  -1  11    2707     129                                                        2220    7.91    1.08  1.0000
  -9   1  11    2930     149                                                        2424   -7.91   -1.11  1.0000
  -7  -1  11    3528     155                                                        3082    4.91   -2.71  1.0000
   7  -1 -11    3286     150                                                        2858   -4.88   -2.72  1.0000
  -7   1  11    3608     165                                                        3158   -4.88    2.72  1.0000
   5  -1 -11     697      83                                                         455   -6.50   -3.40  1.0000
  -5  -1  11     674      84                                                         436    6.49   -3.39  1.0000
  -5   1  11     527      83                                                         320   -6.50    3.40  1.0000
   5   1 -11     806      79                                                         544    6.49    3.39  1.0000
   3  -1 -11    2115     143                                                        2064   -2.21    2.64  1.0000
  -3  -1  11    2464     155                                                        2409    2.20    2.61  1.0000
  -3   1  11    2301     155                                                        2248   -2.21   -2.64  1.0000
   3   1 -11    2390     140                                                        2336    2.20   -2.61  1.0000
  -1  -1  11    2350     155                                                        2159    4.54    2.17  1.0000
   1  -1 -11    2595     158                                                        2396   -4.50    2.17  1.0000
   1   1 -11    2174     143                                                        1990    4.54   -2.17  1.0000
  -1   1  11    2282     157                                                        2095   -4.50   -2.17  1.0000
   1  -1  11     585     110                                                         601   -0.86   -3.69  1.0000
  -1  -1 -11     374      98                                                         385    0.87   -3.73  1.0000
   1   1  11     495     109                                                         509    0.87    3.73  1.0000
  -1   1 -11     576     104                                                         592   -0.86    3.69  1.0000
   3  -1  11     138      85                                                         115    1.58    2.03  1.0000
  -3  -1 -11      29      73                                                          18   -1.61    2.04  1.0000
   3   1  11     230      88                                                         200   -1.61   -2.04  1.0000
  -3   1 -11     242      89                                                         212    1.58   -2.03  1.0000
  -5  -1 -11     612     123                                                         573   -1.60   -0.34  1.0000
   5  -1  11     252     102                                                         227    1.63   -0.38  1.0000
   5   1  11     585     124                                                         547   -1.60    0.34  1.0000
  -5   1 -11     376     109                                                         345    1.63    0.38  1.0000
   7  -1  11     208     106                                                         255   -1.66    3.38  1.0000
  -7  -1 -11     264     116                                                         317    1.67    3.34  1.0000
  -7   1 -11     256     106                                                         308   -1.66   -3.38  1.0000
   7   1  11     303     116                                                         360    1.67   -3.34  1.0000
 -14  -2  11    2402     112                                                        2482    0.96   -0.70  1.0000
 -14   2  11    2019     158                                                        2093   -0.93    0.75  1.0000
 -12  -2  11    1243      90                                                        1185   -0.31    1.59  1.0000
 -12   2  11    1025     117                                                         974    0.27   -1.60  1.0000
 -10  -2  11     146      61                                                         315   -4.16    7.05  1.0000
 -10   2  11     128      81                                                         290    4.20   -7.09  1.0000
   8  -2 -11      83      60                                                          62    2.58    2.11  1.0000
  -8  -2  11     169      58                                                         141   -2.56    2.14  1.0000
  -8   2  11     106      66                                                          83    2.58   -2.11  1.0000
   6  -2 -11    1068     134                                                        1432   -5.88   -4.61  1.0000
  -6  -2  11     893     113                                                        1227    5.83   -4.60  1.0000
  -6   2  11    1013     138                                                        1369   -5.88    4.61  1.0000
   4  -2 -11     707      99                                                         623    1.15    3.12  1.0000
  -4  -2  11    1253     115                                                        1143   -1.13    3.07  1.0000
   4   2 -11    1144     105                                                        1039   -1.13   -3.07  1.0000
  -4   2  11     991     116                                                         892    1.15   -3.12  1.0000
   2  -2 -11     674     103                                                         585    4.22   -4.77  1.0000
  -2  -2  11     776     101                                                         682   -4.19   -4.74  1.0000
   2   2 -11     871     103                                                         772   -4.19    4.74  1.0000
  -2   2  11     790     110                                                         695    4.22    4.77  1.0000
   0  -2 -11    1109     125                                                         925    5.09   -1.24  1.0000
   0  -2  11     747     108                                                         596   -5.10   -1.21  1.0000
   0   2 -11     991     114                                                         816   -5.10    1.21  1.0000
   0   2  11     886     117                                                         722    5.09    1.24  1.0000
  -2  -2 -11      83      87                                                         212   -6.59   -4.38  1.0000
   2  -2  11     121      89                                                         272    6.58   -4.43  1.0000
  -2   2 -11      52      74                                                         161    6.58    4.43  1.0000
   2   2  11      23      81                                                         106   -6.59    4.38  1.0000
   4  -2  11     112      85                                                          57    5.02   -0.87  1.0000
  -4  -2 -11     211      91                                                         134   -4.98   -0.88  1.0000
   4   2  11     135      86                                                          74   -4.98    0.88  1.0000
  -4   2 -11     206      75                                                         129    5.02    0.87  1.0000
   6   2  11    2763     222                                                        3012   -2.96    2.19  1.0000
  -6   2 -11    2756     213                                                        3003    2.95    2.16  1.0000
 -13   3  11       5      69                                                         -75    3.15    0.28  1.0000
 -11  -3  11     351      58                                                         374    0.74   -0.75  1.0000
 -11   3  11     528     107                                                         556   -0.74    0.77  1.0000
  -9  -3  11     505      62                                                         308    5.87   -4.48  1.0000
   9  -3 -11     503      80                                                         306   -5.88   -4.47  1.0000
  -9   3  11     636      92                                                         412   -5.88    4.47  1.0000
   7  -3 -11    1511     140                                                        1549   -0.29   -1.08  1.0000
  -7  -3  11    1295     112                                                        1331    0.31   -1.07  1.0000
  -7   3  11    1424     144                                                        1461   -0.29    1.08  1.0000
  -5  -3  11     853      85                                                         608   -6.01    5.26  1.0000
   5  -3 -11     718      90                                                         494    6.01    5.20  1.0000
  -5   3  11     435      92                                                         263    6.01   -5.20  1.0000
   3  -3 -11      30      59                                                         -38    1.55   -7.77  1.0000
  -3  -3  11     131      60                                                         131   -1.57   -7.79  1.0000
   3   3 -11      31      52                                                           8   -1.57    7.79  1.0000
  -3   3  11      30      65                                                         -15    1.55    7.77  1.0000
  -1  -3  11     154      81                                                         213    4.77    0.96  1.0000
   1  -3 -11     227      89                                                         298   -4.74    0.97  1.0000
  -1   3  11     413     106                                                         509   -4.74   -0.97  1.0000
   1   3 -11     364      91                                                         455    4.77   -0.96  1.0000
   1  -3  11     474     107                                                         482    0.15   -0.72  1.0000
  -1  -3 -11     648     115                                                         658   -0.15   -0.77  1.0000
  -1   3 -11     463      97                                                         471    0.15    0.72  1.0000
   1   3  11     405     104                                                         413   -0.15    0.77  1.0000
  -3  -3 -11     188      97                                                         197   -0.44    1.09  1.0000
   3  -3  11     225      89                                                         234    0.40    1.04  1.0000
   3   3  11     190      97                                                         199   -0.44   -1.09  1.0000
  -3   3 -11     162      84                                                         170    0.40   -1.04  1.0000
   5  -3  11     919     142                                                         885    0.59    0.92  1.0000
  -5  -3 -11     958     151                                                         924   -0.56    0.96  1.0000
  -5   3 -11     800     138                                                         768    0.59   -0.92  1.0000
   5   3  11     723     134                                                         693   -0.56   -0.96  1.0000
 -12  -4  11    3472     242                                                        3132    4.24   -1.20  1.0000
 -12   4  11    2851     186                                                        2542   -4.26    1.19  1.0000
 -10  -4  11     433      61                                                         417    0.01   -2.51  1.0000
 -10   4  11     226      84                                                         214    0.00    2.49  1.0000
   8  -4 -11      13      61                                                         -63   -0.42    5.20  1.0000
  -8  -4  11     267      55                                                         165    0.44    5.24  1.0000
  -8   4  11     164      75                                                          87   -0.42   -5.20  1.0000
  -6  -4  11       9      52                                                         -11    4.22   -0.74  1.0000
   6  -4 -11      25      58                                                          10   -4.25   -0.75  1.0000
  -6   4  11      25      63                                                          10   -4.25    0.75  1.0000
   4  -4 -11     623      84                                                         247  -10.20  -10.00  1.0000
  -4  -4  11     734      77                                                         320   10.19  -10.03  1.0000
  -4   4  11     693      91                                                         293  -10.20   10.00  1.0000
   2  -4 -11    3179     197                                                        3238    1.02   -0.94  1.0000
  -2  -4  11    2860     175                                                        2914   -0.98   -0.89  1.0000
   2   4 -11    2592     154                                                        2643   -0.98    0.89  1.0000
  -2   4  11    2614     184                                                        2667    1.02    0.94  1.0000
   0  -4 -11     192      84                                                         188   -3.97    0.84  1.0000
   0  -4  11     279      89                                                         276    3.91    0.84  1.0000
   0   4 -11     134      70                                                         129    3.91   -0.84  1.0000
   0   4  11     212      95                                                         208   -3.97   -0.84  1.0000
   2  -4  11     339     104                                                         418   -3.51   -0.40  1.0000
  -2  -4 -11     366     112                                                         448    3.51   -0.36  1.0000
  -2   4 -11     539     110                                                         638   -3.51    0.40  1.0000
   2   4  11     792     144                                                         912    3.51    0.36  1.0000
   4  -4  11    3118     210                                                        2972    1.31   -1.92  1.0000
  -4  -4 -11    3413     220                                                        3262   -1.29   -1.93  1.0000
   4   4  11    2535     223                                                        2405   -1.29    1.93  1.0000
  -4   4 -11    3343     207                                                        3192    1.31    1.92  1.0000
 -11  -5  11     824     156                                                         777   -1.09    0.52  1.0000
 -11   5  11     929     142                                                         880    1.09   -0.50  1.0000
   9  -5 -11     231      87                                                         249    0.85    0.18  1.0000
  -9  -5  11     132      51                                                         146   -0.87    0.16  1.0000
  -9   5  11     363     105                                                         386    0.85   -0.18  1.0000
  -7  -5  11     336      56                                                         138   -9.11   -2.79  1.0000
   7  -5 -11     353      79                                                         149    9.12   -2.77  1.0000
  -7   5  11      44      72                                                         -49    9.12    2.77  1.0000
   5  -5 -11    1297     136                                                        1072    6.18   -3.84  1.0000
  -5  -5  11    1288     112                                                        1063   -6.19   -3.80  1.0000
  -5   5  11    1478     149                                                        1238    6.18    3.84  1.0000
   3  -5 -11       1      64                                                         -28    0.09    1.16  1.0000
  -3  -5  11       1      59                                                         -14   -0.11    1.12  1.0000
  -3   5  11      29      74                                                          29    0.09   -1.16  1.0000
  -1  -5  11     238      93                                                         375    5.47   -1.53  1.0000
   1  -5 -11     242     102                                                         379   -5.44   -1.52  1.0000
  -1   5  11     272     111                                                         416   -5.44    1.52  1.0000
   1  -5  11    1468     169                                                        1606    2.58   -0.62  1.0000
  -1  -5 -11    1611     182                                                        1757   -2.58   -0.66  1.0000
  -1   5 -11    1634     165                                                        1779    2.58    0.62  1.0000
   1   5  11    1666     187                                                        1814   -2.58    0.66  1.0000
  -3  -5 -11     791     130                                                         730    1.60   -0.29  1.0000
   3  -5  11     447     110                                                         400   -1.63   -0.29  1.0000
   3   5  11     286     113                                                         250    1.60    0.29  1.0000
  -3   5 -11     633     114                                                         577   -1.63    0.29  1.0000
 -10  -6  11       8     101                                                         -71   -3.81   -1.76  1.0000
  10  -6 -11       9      74                                                         -23    3.83   -1.73  1.0000
 -10  -6  11       8      39                                                         -31   -3.81   -1.76  1.0000
 -10   6  11       9      83                                                          -9    3.83    1.73  1.0000
  -8  -6  11     278      67                                                         318    0.04   -4.16  1.0000
   8  -6 -11     286      99                                                         327   -0.03   -4.20  1.0000
  -8   6  11     252     100                                                         290   -0.03    4.20  1.0000
   6  -6 -11      90      89                                                         139   -2.44   -2.31  1.0000
  -6  -6  11     163      67                                                         226    2.40   -2.31  1.0000
  -6   6  11     328     112                                                         416   -2.44    2.31  1.0000
  -4  -6  11     505      93                                                         571   -0.11    6.28  1.0000
   4  -6 -11     533     116                                                         603    0.12    6.34  1.0000
  -4   6  11     394     116                                                         452    0.12   -6.34  1.0000
  -2  -6  11      57      65                                                          45    1.26   -0.24  1.0000
   2  -6 -11      33      68                                                          24   -1.24   -0.26  1.0000
  -2   6  11       1      82                                                         -34   -1.24    0.26  1.0000
   0  -6 -11       3      71                                                           3    0.81    1.89  1.0000
   0  -6  11      24      69                                                          27   -0.84    1.92  1.0000
   0   6  11       5      85                                                           5    0.81   -1.89  1.0000
  -2  -6 -11    1383     173                                                        1428   -1.09    0.44  1.0000
   2  -6  11     983     141                                                        1021    1.07    0.38  1.0000
   2   6  11    1332     174                                                        1376   -1.09   -0.44  1.0000
  -2   6 -11    1060     141                                                        1100    1.07   -0.38  1.0000
  -7  -7  11     719      87                                                         645    3.57    0.71  1.0000
  -7  -7  11     465     137                                                         405    3.57    0.71  1.0000
   7  -7 -11     688     124                                                         616   -3.55    0.72  1.0000
  -7   7  11     730     129                                                         656   -3.55   -0.72  1.0000
   5  -7 -11    1279     156                                                        1182   -1.86   -0.78  1.0000
  -5  -7  11    1382     126                                                        1282    1.84   -0.76  1.0000
  -5   7  11     901     141                                                         820   -1.86    0.78  1.0000
   3  -7 -11    1561     170                                                        1455   -2.12    0.63  1.0000
  -3  -7  11    1489     143                                                        1387    2.10    0.62  1.0000
  -3   7  11    1421     176                                                        1320   -2.12   -0.63  1.0000
   1  -7 -11    1370     174                                                        1491    2.29    0.29  1.0000
  -1  -7  11    1412     158                                                        1533   -2.27    0.26  1.0000
  -1   7  11    1529     188                                                        1656    2.29   -0.29  1.0000
 -12   0  12     632      85                                                         469    3.30   -5.03  1.0000
 -10   0  12    4898     212                                                        5221    4.28    5.12  1.0000
  -8   0  12    3596     177                                                        3441   -2.09    0.70  1.0000
  -6   0  12     194      88                                                         371   10.10   -2.85  1.0000
   4   0 -12    4823     225                                                        5199    8.18   -5.64  1.0000
  -4   0  12    4783     232                                                        5158    8.18    5.64  1.0000
  -2   0  12    3120     201                                                        3463    5.47    2.78  1.0000
   2   0 -12    3017     191                                                        3354    5.47   -2.78  1.0000
   0   0 -12     211      78                                                         125   -4.83   -0.54  1.0000
   0   0  12      11      64                                                        -120   -4.83    0.54  1.0000
   2   0  12     118      85                                                         134    1.91    1.72  1.0000
  -2   0 -12     201      90                                                         222    1.91   -1.72  1.0000
  -4   0 -12     360     113                                                         404    1.08   -1.73  1.0000
   4   0  12     297     111                                                         337    1.08    1.73  1.0000
 -13  -1  12     937      99                                                        1004   -1.12    1.15  1.0000
 -13   1  12     745     106                                                         806   -1.11    1.18  1.0000
 -11  -1  12      96      62                                                          81   -0.09    1.41  1.0000
 -11   1  12      57      64                                                          46   -0.10    1.40  1.0000
  -9  -1  12      20      57                                                           3    4.89   -0.36  1.0000
  -9   1  12      56      62                                                          28    4.89   -0.36  1.0000
  -7  -1  12     600      82                                                         370    7.68   -4.40  1.0000
  -7   1  12     531      86                                                         316    7.69   -4.39  1.0000
   5  -1 -12     113      69                                                         137   -1.60   -0.50  1.0000
  -5  -1  12     202      76                                                         233   -1.59    0.51  1.0000
  -5   1  12     177      78                                                         206   -1.60    0.50  1.0000
   3  -1 -12      98      78                                                         203   -0.01    6.55  1.0000
  -3  -1  12     113      77                                                         225   -0.02   -6.56  1.0000
   3   1 -12      98      69                                                         204   -0.02    6.56  1.0000
  -3   1  12      54      79                                                         136   -0.01   -6.55  1.0000
   1  -1 -12     438      94                                                         359    2.88    0.22  1.0000
  -1  -1  12     606     101                                                         512    2.88   -0.21  1.0000
  -1   1  12     281      92                                                         218    2.88   -0.22  1.0000
   1   1 -12     581      99                                                         489    2.88    0.21  1.0000
   1  -1  12      22      68                                                         -20    5.06   -4.42  1.0000
  -1  -1 -12      70      74                                                          14    5.06    4.42  1.0000
   1   1  12      22      74                                                         -31    5.06   -4.42  1.0000
  -1   1 -12     149      64                                                          58    5.06    4.42  1.0000
  -3  -1 -12     261     102                                                         318    2.65    0.15  1.0000
   3  -1  12     230     108                                                         283    2.64   -0.15  1.0000
  -3   1 -12     406     112                                                         476    2.64    0.15  1.0000
   3   1  12     509     127                                                         587    2.65   -0.15  1.0000
   5  -1  12     457     123                                                         409    1.92   -1.45  1.0000
  -5  -1 -12     800     141                                                         737    1.91    1.45  1.0000
  -5   1 -12     838     144                                                         774    1.92    1.45  1.0000
   5   1  12     844     145                                                         780    1.91   -1.45  1.0000
 -12  -2  12    1994     114                                                        1977    1.98    1.80  1.0000
 -12   2  12    1694     152                                                        1679    1.97    1.79  1.0000
 -10  -2  12     590      84                                                         619   -1.64   -3.15  1.0000
 -10   2  12     338      86                                                         359   -1.63   -3.15  1.0000
  -8  -2  12     897     103                                                         935   -0.82    0.51  1.0000
  -8   2  12     777     116                                                         812   -0.82    0.52  1.0000
   6  -2 -12     622     107                                                         753   -2.95   -2.86  1.0000
  -6  -2  12     607     100                                                         737   -2.94    2.89  1.0000
  -6   2  12     645     115                                                         779   -2.95    2.86  1.0000
   4  -2 -12    2030     151                                                        1567    5.49    5.84  1.0000
  -4  -2  12    1798     140                                                        1364    5.49   -5.85  1.0000
  -4   2  12    1799     149                                                        1365    5.49   -5.84  1.0000
  -2  -2  12     559     102                                                         535    0.73   -0.09  1.0000
   2  -2 -12     554     104                                                         531    0.72    0.08  1.0000
  -2   2  12     643     119                                                         618    0.72   -0.08  1.0000
   2   2 -12     565      96                                                         541    0.73    0.09  1.0000
   0  -2  12     817     119                                                         728    2.93    0.70  1.0000
   0  -2 -12     908     125                                                         814    2.94   -0.69  1.0000
   0   2  12     671     120                                                         590    2.94    0.69  1.0000
   0   2 -12     822     117                                                         732    2.93   -0.70  1.0000
  -2  -2 -12     844     145                                                         924   -1.96    0.18  1.0000
   2  -2  12     766     137                                                         842   -1.96   -0.20  1.0000
  -2   2 -12     829     130                                                         908   -1.96    0.20  1.0000
   2   2  12     700     140                                                         773   -1.96   -0.18  1.0000
   4  -2  12     326     105                                                         303    0.54   -1.01  1.0000
  -4  -2 -12     377     113                                                         352    0.54    1.01  1.0000
   4   2  12     330     104                                                         306    0.54   -1.01  1.0000
  -4   2 -12     425     106                                                         398    0.54    1.01  1.0000
 -11  -3  12     338      65                                                         366    0.64   -1.80  1.0000
 -11   3  12     363      99                                                         392    0.63   -1.80  1.0000
  -9  -3  12     750      94                                                         860    3.12    2.68  1.0000
  -9   3  12    1009     136                                                        1137    3.13    2.67  1.0000
   7  -3 -12      28      70                                                          61   -1.14   -4.12  1.0000
  -7  -3  12     109      66                                                         170   -1.13    4.09  1.0000
  -7   3  12      88      76                                                         144   -1.14    4.12  1.0000
  -5  -3  12     586     101                                                         690    2.95   -4.43  1.0000
   5  -3 -12     530     109                                                         628    2.95    4.44  1.0000
  -5   3  12     591     117                                                         695    2.95   -4.44  1.0000
  -3  -3  12    1238     130                                                        1189   -0.34    2.49  1.0000
   3  -3 -12    1632     162                                                        1577   -0.35   -2.47  1.0000
  -3   3  12    1214     149                                                        1166   -0.35    2.47  1.0000
   1  -3 -12     362     102                                                         379    2.76   -1.97  1.0000
  -1  -3  12     364      95                                                         382    2.74    1.94  1.0000
   1   3 -12     206      82                                                         218    2.74   -1.94  1.0000
  -1   3  12     286      98                                                         301    2.76    1.97  1.0000
  -1  -3 -12     563     109                                                         412   -5.02   -3.94  1.0000
   1  -3  12     280      88                                                         175   -5.01    3.94  1.0000
   1   3  12     251      94                                                         152   -5.02    3.94  1.0000
  -1   3 -12     260      84                                                         159   -5.01   -3.94  1.0000
   3  -3  12     725     129                                                         623   -3.25   -0.43  1.0000
  -3  -3 -12     908     136                                                         794   -3.25    0.44  1.0000
  -3   3 -12     454     107                                                         374   -3.25    0.43  1.0000
   3   3  12     579     125                                                         488   -3.25   -0.44  1.0000
 -10  -4  12     140      54                                                         106   -2.17    0.77  1.0000
 -10   4  12     128      80                                                          96   -2.16    0.79  1.0000
  -8  -4  12     510      86                                                         625   -3.39   -3.64  1.0000
   8  -4 -12     526     105                                                         643   -3.40    3.61  1.0000
  -8   4  12     536     115                                                         654   -3.40   -3.61  1.0000
  -6  -4  12     361      78                                                         289    0.74   -3.91  1.0000
   6  -4 -12     448      93                                                         368    0.73    3.90  1.0000
  -6   4  12     374      96                                                         301    0.73   -3.90  1.0000
  -4  -4  12      57      64                                                          25    0.01    4.47  1.0000
   4  -4 -12     277      87                                                         204    0.01   -4.48  1.0000
  -4   4  12     100      78                                                          57    0.01    4.48  1.0000
   2  -4 -12     113      85                                                         133    1.36    0.68  1.0000
  -2  -4  12      44      71                                                          56    1.36   -0.70  1.0000
  -2   4  12       3      81                                                           6    1.36   -0.68  1.0000
   0  -4 -12       5      72                                                         -18    3.03    0.85  1.0000
   0  -4  12       5      71                                                          -1    3.03   -0.85  1.0000
   0   4 -12      94      67                                                          57    3.03    0.85  1.0000
   0   4  12      35      81                                                          14    3.03   -0.85  1.0000
   2  -4  12     133      85                                                         123   -1.14   -1.41  1.0000
  -2  -4 -12      83      89                                                          75   -1.15    1.43  1.0000
   2   4  12       2      82                                                         -48   -1.15   -1.43  1.0000
  -2   4 -12     149      81                                                         139   -1.14    1.41  1.0000
  -9  -5  12    1086      99                                                        1099   -1.68   -2.53  1.0000
   9  -5 -12     913     136                                                         924   -1.67    2.53  1.0000
  -9   5  12     950     145                                                         961   -1.67   -2.53  1.0000
   7  -5 -12     243      98                                                         267   -1.11   -1.10  1.0000
  -7  -5  12     334      82                                                         362   -1.11    1.07  1.0000
  -7   5  12     316      99                                                         343   -1.11    1.10  1.0000
   5  -5 -12      65      71                                                          24   -2.58   -5.15  1.0000
  -5  -5  12      93      62                                                          43   -2.55    5.15  1.0000
  -5   5  12     179      90                                                         109   -2.58    5.15  1.0000
   3  -5 -12     271      90                                                         236    3.18   -1.90  1.0000
  -3  -5  12     443      92                                                         400    3.17    1.90  1.0000
  -3   5  12     457     106                                                         413    3.18    1.90  1.0000
  -1  -5  12      20      73                                                          45   -3.30   -0.25  1.0000
   1  -5 -12       0      83                                                           5   -3.30    0.24  1.0000
  -1   5  12      42      91                                                          77   -3.30   -0.24  1.0000
   1  -5  12       3      66                                                         -90    0.75    2.32  1.0000
  -1  -5 -12       3      75                                                         -81    0.72   -2.34  1.0000
   1   5  12       7      89                                                          19    0.72    2.34  1.0000
  -6  -6  12    1784     131                                                        1812    1.77    1.68  1.0000
   6  -6 -12    1906     191                                                        1935    1.77   -1.68  1.0000
  -6   6  12    1592     182                                                        1618    1.77    1.68  1.0000
  -4  -6  12     463      95                                                         397   -2.31    0.97  1.0000
   4  -6 -12     845     132                                                         755   -2.30   -0.94  1.0000
  -4   6  12     450     110                                                         385   -2.30    0.94  1.0000
  -2  -6  12     588     104                                                         449   -3.53    2.74  1.0000
   2  -6 -12     536     113                                                         403   -3.54   -2.76  1.0000
  -2   6  12     882     135                                                         709   -3.54    2.76  1.0000
 -11  -1  13      13      60                                                          -1   -2.04   -4.82  1.0000
 -11   1  13      52      69                                                          15    2.01    4.86  1.0000
  -9  -1  13     444      88                                                         498    1.80   -1.11  1.0000
  -9   1  13     289      88                                                         332   -1.82    1.07  1.0000
  -7  -1  13     717      94                                                         470   -8.24    2.11  1.0000
  -7   1  13     645      98                                                         411    8.28   -2.10  1.0000
  -5   1  13    3243     204                                                        3457    1.00    5.76  1.0000
   3  -1 -13     239      83                                                         215    2.38   -1.66  1.0000
  -3  -1  13     307      94                                                         281   -2.40   -1.70  1.0000
  -3   1  13     378      97                                                         349    2.38    1.66  1.0000
   1  -1 -13    1545     181                                                        1812   -4.33   -2.03  1.0000
  -1  -1  13    1298     166                                                        1545    4.36   -2.04  1.0000
   1   1 -13    1113     150                                                        1343    4.36    2.04  1.0000
  -1   1  13    1372     177                                                        1624   -4.33    2.03  1.0000
   1  -1  13     470     117                                                         423   -2.48   -0.38  1.0000
  -1  -1 -13     472     111                                                         426    2.48   -0.41  1.0000
   1   1  13     369     107                                                         328    2.48    0.41  1.0000
  -1   1 -13     378     103                                                         336   -2.48    0.38  1.0000
 -10  -2  13    1608     131                                                        1804   -2.73    2.29  1.0000
 -10   2  13    1709     171                                                        1910    2.73   -2.27  1.0000
  -8  -2  13       8      62                                                         -11   -2.40    3.23  1.0000
  -8   2  13       0      69                                                          10    2.39   -3.22  1.0000
  -6  -2  13     249      79                                                         214    1.52   -0.97  1.0000
  -6   2  13     281      91                                                         244   -1.52    0.94  1.0000
  -4  -2  13     342     102                                                         506   -3.85    5.29  1.0000
   4  -2 -13     336     105                                                         499    3.87    5.25  1.0000
  -4   2  13     563     127                                                         770    3.87   -5.25  1.0000
  -2  -2  13     469     112                                                         596   -3.92    0.84  1.0000
   2  -2 -13     464     118                                                         590    3.89    0.85  1.0000
  -2   2  13     594     132                                                         736    3.89   -0.85  1.0000
   0  -2  13     235     102                                                         371   -3.94    4.17  1.0000
   0  -2 -13     318     117                                                         475    3.93    4.21  1.0000
   0   2  13     113     102                                                         213    3.93   -4.21  1.0000
   0   2 -13     249      97                                                         389   -3.94   -4.17  1.0000
  -2  -2 -13       5      86                                                         -28    2.75   -1.35  1.0000
   2  -2  13       4      82                                                         -70   -2.72   -1.31  1.0000
  -2   2 -13       4      67                                                         -24   -2.72    1.31  1.0000
   2   2  13      17      86                                                           5    2.75    1.35  1.0000
  -9  -3  13     168      67                                                         138   -3.05   -3.21  1.0000
  -9   3  13     149      86                                                         121    3.03    3.16  1.0000
  -7  -3  13      65      65                                                          74   -3.24   -0.54  1.0000
  -7   3  13      74      81                                                          84    3.28    0.53  1.0000
   5  -3 -13     748     130                                                         963    5.07    2.44  1.0000
  -5  -3  13     555     112                                                         743   -5.07    2.48  1.0000
  -5   3  13     666     133                                                         870    5.07   -2.44  1.0000
  -3  -3  13      69      75                                                          51    0.15    1.70  1.0000
   3  -3 -13      61      72                                                          44   -0.18    1.73  1.0000
  -3   3  13       7      73                                                           2   -0.18   -1.73  1.0000
  -1  -3  13       3      73                                                         -95   -0.82   -2.54  1.0000
   1  -3 -13     160      85                                                         120    0.87   -2.53  1.0000
  -1   3  13       3      80                                                         -71    0.87    2.53  1.0000
   1  -3  13     344     105                                                         362   -0.49    0.76  1.0000
  -1  -3 -13     275     107                                                         291    0.49    0.70  1.0000
  -1   3 -13     434     118                                                         454   -0.49   -0.76  1.0000
   1   3  13     212     106                                                         226    0.49   -0.70  1.0000
  -8  -4  13     301      82                                                         302    0.04   -0.90  1.0000
  -8   4  13     222     102                                                         223   -0.06    0.90  1.0000
  -6  -4  13     927     115                                                         931   -0.50    2.43  1.0000
   6  -4 -13     790     130                                                         793    0.52    2.47  1.0000
  -6   4  13     853     137                                                         856    0.52   -2.47  1.0000
  -4  -4  13     641     108                                                         618   -0.51    0.54  1.0000
   4  -4 -13     590     118                                                         567    0.53    0.52  1.0000
  -4   4  13     465     115                                                         445    0.53   -0.52  1.0000
  -2  -4  13      50      77                                                          20   -3.89   -1.30  1.0000
   2  -4 -13      95      83                                                          52    3.87   -1.31  1.0000
  -2   4  13       8      75                                                         -95    3.87    1.31  1.0000
   0  -4  13     216      91                                                         213    0.25   -0.97  1.0000
   0  -4 -13     326     109                                                         322   -0.22   -0.93  1.0000
   0   4  13     362     114                                                         358   -0.22    0.93  1.0000
   5  -5 -13     319     114                                                         415    3.66   -0.13  1.0000
  -5  -5  13     358     100                                                         460   -3.67   -0.06  1.0000
  -5   5  13     373     125                                                         477    3.66    0.13  1.0000
  -8   0  14    1905     173                                                        2413   -8.67    0.86  1.0000
  -6   0  14    1134     134                                                         971    0.83   -4.81  1.0000
  -4   0  14       5      70                                                         -73   -3.31    0.05  1.0000
   2   0 -14    2764     189                                                        2531    2.15    2.57  1.0000
  -2   0  14    2307     200                                                        2095    2.15   -2.57  1.0000
  -7  -1  14      17      73                                                           5   -2.50    0.86  1.0000
  -7   1  14      22      73                                                           8   -2.51    0.87  1.0000
  -5  -1  14      97      77                                                          36   -5.78    1.72  1.0000
  -5   1  14     305      88                                                         188   -5.78    1.71  1.0000
   3  -1 -14     703     120                                                         603   -3.19    0.53  1.0000
  -3  -1  14     694     113                                                         594   -3.18   -0.52  1.0000
  -3   1  14     742     128                                                         639   -3.19   -0.53  1.0000
   1  -1 -14       1      76                                                         -76   -1.07   -0.45  1.0000
  -1  -1  14       1      78                                                         -23   -1.08    0.45  1.0000
  -1   1  14      11      84                                                          17   -1.07    0.45  1.0000
  -6  -2  14     207      77                                                         173   -1.10    1.88  1.0000
  -6   2  14      65      80                                                          46   -1.09    1.88  1.0000
  -4  -2  14     119      75                                                          87   -0.33    3.25  1.0000
   4  -2 -14     167      85                                                         129   -0.33   -3.25  1.0000
  -4   2  14     227     102                                                         182   -0.33    3.25  1.0000
  -2  -2  14     161      86                                                         130   -2.94    0.37  1.0000
   2  -2 -14     343     101                                                         299   -2.95   -0.35  1.0000
  -2   2  14     379     109                                                         333   -2.95    0.35  1.0000
   0   0   0       4       0                                                           0   -2.95    0.35  1.0000

;
_shelx_hkl_checksum              52982
#END Tags that were not found in dictionaries
loop_
_space_group_symop_operation_xyz
'x, y, z'
'-x, y, -z+1/2'
'x+1/2, y+1/2, z'
'-x+1/2, y+1/2, -z+1/2'
'-x, -y, -z'
'x, -y, z-1/2'
'-x+1/2, -y+1/2, -z'
'x+1/2, -y+1/2, z-1/2'
loop_
_atom_site_label
_atom_site_type_symbol
_atom_site_fract_x
_atom_site_fract_y
_atom_site_fract_z
_atom_site_U_iso_or_equiv
_atom_site_adp_type
_atom_site_occupancy
_atom_site_site_symmetry_order
_atom_site_calc_flag
_atom_site_refinement_flags_posn
_atom_site_refinement_flags_adp
_atom_site_refinement_flags_occupancy
Zn1 Zn 0.5000 1.17843(9) 0.2500 0.0271(4) Uani 1 2 d S T P
C1 C 0.1032(4) 0.8537(7) 0.2307(5) 0.050(2) Uani 1 1 d . . .
H1 H 0.1149 0.8482 0.2940 0.060 Uiso 1 1 calc R U .
C2 C 0.1455(4) 0.9201(6) 0.1932(5) 0.045(2) Uani 1 1 d . . .
H2 H 0.1850 0.9578 0.2313 0.054 Uiso 1 1 calc R U .
C3 C 0.1301(3) 0.9315(5) 0.0994(5) 0.0254(17) Uani 1 1 d . . .
C4 C 0.0694(4) 0.8761(5) 0.0480(5) 0.0307(18) Uani 1 1 d . . .
H4 H 0.0553 0.8829 -0.0153 0.037 Uiso 1 1 calc R U .
C5 C 0.0294(3) 0.8105(5) 0.0899(5) 0.0294(18) Uani 1 1 d . . .
H5 H -0.0113 0.7739 0.0532 0.035 Uiso 1 1 calc R U .
C6 C 0.1792(4) 0.9981(5) 0.0606(5) 0.0232(17) Uani 1 1 d . . .
C7 C 0.1541(4) 1.0417(6) -0.0350(4) 0.0318(18) Uani 1 1 d . . .
H7A H 0.1935 1.0824 -0.0479 0.048 Uiso 1 1 calc R U .
H7B H 0.1121 1.0881 -0.0409 0.048 Uiso 1 1 calc R U .
H7C H 0.1407 0.9827 -0.0775 0.048 Uiso 1 1 calc R U .
C8 C 0.3595(4) 1.0929(6) 0.1534(5) 0.0282(18) Uani 1 1 d . . .
N1 N 0.0459(3) 0.7967(4) 0.1802(4) 0.0294(15) Uani 1 1 d . . .
N2 N 0.2433(3) 1.0123(4) 0.1159(4) 0.0251(14) Uani 1 1 d . . .
N3 N 0.2946(3) 1.0745(4) 0.0897(4) 0.0268(14) Uani 1 1 d . . .
H3 H 0.2857 1.1004 0.0352 0.032 Uiso 1 1 calc R U .
N4 N 0.3710(3) 1.0392(5) 0.2314(4) 0.0388(17) Uani 1 1 d . . .
H4A H 0.3376 0.9967 0.2406 0.047 Uiso 1 1 calc R U .
N5 N 0.4387(3) 1.0525(5) 0.2989(4) 0.0371(16) Uani 1 1 d . . .
H5A H 0.4663 0.9851 0.3083 0.044 Uiso 1 1 calc R U .
H5B H 0.4302 1.0741 0.3564 0.044 Uiso 1 1 calc R U .
O1 O 0.4057(2) 1.1583(4) 0.1379(3) 0.0312(12) Uani 1 1 d . . .
F1 F 0.2139(2) 0.2834(3) 0.0716(3) 0.0571(13) Uani 1 1 d . . .
F2 F 0.1158(3) 0.2245(5) 0.1114(4) 0.103(2) Uani 1 1 d . . .
F3 F 0.1772(4) 0.3740(8) 0.1765(7) 0.201(5) Uani 1 1 d . . .
F4 F 0.1018(6) 0.3733(10) 0.0642(8) 0.101(4) Uani 0.5 1 d . . P
F5 F 0.2202(7) 0.2391(11) 0.2141(7) 0.105(4) Uani 0.5 1 d . . P
B1 B 0.1687(7) 0.2990(10) 0.1248(9) 0.074(4) Uani 1 1 d . . .
loop_
_atom_site_aniso_label
_atom_site_aniso_U_11
_atom_site_aniso_U_22
_atom_site_aniso_U_33
_atom_site_aniso_U_23
_atom_site_aniso_U_13
_atom_site_aniso_U_12
Zn1 0.0133(7) 0.0240(7) 0.0439(8) 0.000 0.0079(5) 0.000
C1 0.047(5) 0.073(6) 0.035(5) -0.016(5) 0.017(5) -0.043(5)
C2 0.034(5) 0.062(6) 0.040(6) -0.016(4) 0.010(4) -0.036(4)
C3 0.016(4) 0.026(4) 0.033(5) -0.006(4) 0.004(4) 0.003(4)
C4 0.023(4) 0.033(4) 0.035(4) -0.002(4) 0.005(4) -0.005(4)
C5 0.017(4) 0.028(4) 0.039(5) 0.000(4) 0.003(4) -0.003(4)
C6 0.015(4) 0.018(4) 0.035(5) -0.004(3) 0.004(4) -0.002(3)
C7 0.022(4) 0.036(4) 0.036(5) 0.001(4) 0.005(4) -0.007(3)
C8 0.024(5) 0.025(4) 0.038(5) 0.010(4) 0.012(4) 0.007(4)
N1 0.020(3) 0.035(4) 0.035(4) -0.010(3) 0.011(3) -0.010(3)
N2 0.020(4) 0.020(3) 0.040(4) 0.006(3) 0.014(3) -0.003(3)
N3 0.016(3) 0.032(4) 0.029(4) 0.005(3) 0.002(3) -0.006(3)
N4 0.013(3) 0.043(4) 0.053(5) 0.017(4) -0.002(3) -0.007(3)
N5 0.020(3) 0.035(4) 0.050(4) 0.012(3) -0.001(3) -0.005(3)
O1 0.014(3) 0.034(3) 0.045(3) 0.011(2) 0.008(2) -0.007(2)
F1 0.071(3) 0.045(3) 0.066(3) 0.004(2) 0.037(3) 0.010(2)
F2 0.078(4) 0.119(5) 0.130(5) -0.042(4) 0.056(4) -0.019(4)
F3 0.100(5) 0.215(9) 0.293(11) -0.221(10) 0.061(6) -0.018(6)
F4 0.098(9) 0.108(9) 0.100(9) 0.014(8) 0.036(7) 0.057(8)
F5 0.133(11) 0.126(11) 0.054(7) 0.000(7) 0.025(7) 0.001(9)
B1 0.096(10) 0.065(9) 0.075(9) -0.027(8) 0.047(9) -0.028(8)
loop_
_atom_type_symbol
_atom_type_description
_atom_type_scat_dispersion_real
_atom_type_scat_dispersion_imag
_atom_type_scat_source
C C 0.0033 0.0016 'International Tables Vol C Tables 4.2.6.8 and 6.1.1.4'
H H 0.0000 0.0000 'International Tables Vol C Tables 4.2.6.8 and 6.1.1.4'
N N 0.0061 0.0033 'International Tables Vol C Tables 4.2.6.8 and 6.1.1.4'
O O 0.0106 0.0060 'International Tables Vol C Tables 4.2.6.8 and 6.1.1.4'
F F 0.0171 0.0103 'International Tables Vol C Tables 4.2.6.8 and 6.1.1.4'
Zn Zn 0.2839 1.4301 'International Tables Vol C Tables 4.2.6.8 and 6.1.1.4'
B B 0.0013 0.0007 'International Tables Vol C Tables 4.2.6.8 and 6.1.1.4'
loop_
_geom_angle_atom_site_label_1
_geom_angle_atom_site_label_2
_geom_angle_atom_site_label_3
_geom_angle
_geom_angle_site_symmetry_1
_geom_angle_site_symmetry_3
O1 Zn1 O1 166.4(3) 2_655 .
O1 Zn1 N1 92.6(2) 2_655 4
O1 Zn1 N1 96.75(19) . 4
O1 Zn1 N1 96.8(2) 2_655 3
O1 Zn1 N1 92.6(2) . 3
N1 Zn1 N1 93.3(3) 4 3
O1 Zn1 N5 92.65(19) 2_655 .
O1 Zn1 N5 77.64(19) . .
N1 Zn1 N5 89.5(2) 4 .
N1 Zn1 N5 170.1(2) 3 .
O1 Zn1 N5 77.64(19) 2_655 2_655
O1 Zn1 N5 92.65(19) . 2_655
N1 Zn1 N5 170.1(2) 4 2_655
N1 Zn1 N5 89.5(2) 3 2_655
N5 Zn1 N5 89.4(3) . 2_655
N1 C1 C2 123.0(7) . .
N1 C1 H1 118.5 . .
C2 C1 H1 118.5 . .
C1 C2 C3 120.7(6) . .
C1 C2 H2 119.7 . .
C3 C2 H2 119.7 . .
C4 C3 C2 116.1(6) . .
C4 C3 C6 124.2(6) . .
C2 C3 C6 119.6(6) . .
C3 C4 C5 120.2(7) . .
C3 C4 H4 119.9 . .
C5 C4 H4 119.9 . .
N1 C5 C4 123.5(6) . .
N1 C5 H5 118.2 . .
C4 C5 H5 118.2 . .
N2 C6 C3 113.3(6) . .
N2 C6 C7 125.1(6) . .
C3 C6 C7 121.7(6) . .
C6 C7 H7A 109.5 . .
C6 C7 H7B 109.5 . .
H7A C7 H7B 109.5 . .
C6 C7 H7C 109.5 . .
H7A C7 H7C 109.5 . .
H7B C7 H7C 109.5 . .
O1 C8 N4 122.8(6) . .
O1 C8 N3 120.6(6) . .
N4 C8 N3 116.6(6) . .
C5 N1 C1 116.3(6) . .
C5 N1 Zn1 126.4(4) . 3_445
C1 N1 Zn1 116.7(5) . 3_445
C6 N2 N3 119.7(5) . .
C8 N3 N2 116.9(6) . .
C8 N3 H3 121.5 . .
N2 N3 H3 121.5 . .
C8 N4 N5 119.0(6) . .
C8 N4 H4A 120.5 . .
N5 N4 H4A 120.5 . .
N4 N5 Zn1 106.9(4) . .
N4 N5 H5A 110.3 . .
Zn1 N5 H5A 110.3 . .
N4 N5 H5B 110.3 . .
Zn1 N5 H5B 110.3 . .
H5A N5 H5B 108.6 . .
C8 O1 Zn1 113.3(4) . .
F3 B1 F2 126.4(11) . .
F3 B1 F1 121.2(11) . .
F2 B1 F1 112.4(9) . .
F3 B1 F5 82.1(10) . .
F2 B1 F5 93.5(9) . .
F1 B1 F5 96.3(9) . .
F3 B1 F4 82.9(10) . .
F2 B1 F4 82.8(9) . .
F1 B1 F4 105.1(9) . .
F5 B1 F4 158.1(10) . .
loop_
_geom_bond_atom_site_label_1
_geom_bond_atom_site_label_2
_geom_bond_distance
_geom_bond_site_symmetry_2
Zn1 O1 2.108(4) 2_655
Zn1 O1 2.108(4) .
Zn1 N1 2.125(5) 4
Zn1 N1 2.125(5) 3
Zn1 N5 2.187(5) .
Zn1 N5 2.187(5) 2_655
C1 N1 1.338(8) .
C1 C2 1.373(10) .
C1 H1 0.9300 .
C2 C3 1.383(9) .
C2 H2 0.9300 .
C3 C4 1.374(9) .
C3 C6 1.478(9) .
C4 C5 1.378(9) .
C4 H4 0.9300 .
C5 N1 1.333(8) .
C5 H5 0.9300 .
C6 N2 1.278(8) .
C6 C7 1.500(9) .
C7 H7A 0.9600 .
C7 H7B 0.9600 .
C7 H7C 0.9600 .
C8 O1 1.255(8) .
C8 N4 1.324(8) .
C8 N3 1.353(8) .
N1 Zn1 2.125(5) 3_445
N2 N3 1.376(7) .
N3 H3 0.8600 .
N4 N5 1.407(7) .
N4 H4A 0.8600 .
N5 H5A 0.9700 .
N5 H5B 0.9700 .
F1 B1 1.342(12) .
F2 B1 1.329(12) .
F3 B1 1.197(12) .
F4 B1 1.623(17) .
F5 B1 1.613(17) .
loop_
_platon_squeeze_void_nr
_platon_squeeze_void_average_x
_platon_squeeze_void_average_y
_platon_squeeze_void_average_z
_platon_squeeze_void_volume
_platon_squeeze_void_count_electrons
_platon_squeeze_void_content
1 0.511 -0.004 0.003 1277 351 ' '
