#------------------------------------------------------------------------------
#$Date: 2016-03-24 00:09:19 +0200 (Thu, 24 Mar 2016) $
#$Revision: 179525 $
#$URL: svn://www.crystallography.net/cod/cif/4/34/22/4342255.cif $
#------------------------------------------------------------------------------
#
# This file is available in the Crystallography Open Database (COD),
# http://www.crystallography.net/
#
# All data on this site have been placed in the public domain by the
# contributors.
#
data_4342255
loop_
_publ_author_name
'Deshmukh, Mahesh S.'
'Yadav, Ashok'
'Pant, Rakesh'
'Boomishankar, Ramamoorthy'
_publ_section_title
;
 Thermochromic and Mechanochromic Luminescence Umpolung in Isostructural
 Metal-Organic Frameworks Based on Cu6I6 Clusters.
;
_journal_issue                   4
_journal_name_full               'Inorganic chemistry'
_journal_page_first              1337
_journal_page_last               1345
_journal_paper_doi               10.1021/ic502207f
_journal_volume                  54
_journal_year                    2015
_chemical_formula_sum            'C32 H30 Cu6 I6 N6 O0 Si2'
_chemical_formula_weight         1697.44
_chemical_name_systematic
;
 ?
;
_space_group_crystal_system      trigonal
_space_group_IT_number           167
_space_group_name_Hall           '-R 3 2"c'
_space_group_name_H-M_alt        'R -3 c :H'
_symmetry_space_group_name_Hall  '-R 3 2"c'
_symmetry_space_group_name_H-M   'R -3 c :H'
_atom_sites_solution_hydrogens   geom
_atom_sites_solution_primary     direct
_atom_sites_solution_secondary   difmap
_audit_creation_method           SHELXL-2013
_cell_angle_alpha                90
_cell_angle_beta                 90
_cell_angle_gamma                120
_cell_formula_units_Z            6
_cell_length_a                   13.292(11)
_cell_length_b                   13.292(11)
_cell_length_c                   41.79(4)
_cell_measurement_reflns_used    1190
_cell_measurement_temperature    296(2)
_cell_measurement_theta_max      20.11
_cell_measurement_theta_min      2.63
_cell_volume                     6394(10)
_computing_cell_refinement       'Bruker SAINT'
_computing_data_collection       'Bruker APEX2'
_computing_data_reduction        'Bruker SAINT'
_computing_molecular_graphics    'Bruker SHELXTL'
_computing_publication_material  'Bruker SHELXTL'
_computing_structure_refinement  'SHELXL-2013 (Sheldrick 2013)'
_computing_structure_solution    'SHELXS-97 (Sheldrick 2008)'
_diffrn_ambient_temperature      296(2)
_diffrn_measured_fraction_theta_full 0.996
_diffrn_measured_fraction_theta_max 0.994
_diffrn_measurement_device_type  'Bruker APEX-II CCD'
_diffrn_measurement_method       '\f and \w scans'
_diffrn_radiation_type           MoK\a
_diffrn_radiation_wavelength     0.71073
_diffrn_reflns_av_R_equivalents  0.1704
_diffrn_reflns_av_unetI/netI     0.0853
_diffrn_reflns_Laue_measured_fraction_full 0.996
_diffrn_reflns_Laue_measured_fraction_max 0.994
_diffrn_reflns_limit_h_max       16
_diffrn_reflns_limit_h_min       -17
_diffrn_reflns_limit_k_max       17
_diffrn_reflns_limit_k_min       -13
_diffrn_reflns_limit_l_max       53
_diffrn_reflns_limit_l_min       -55
_diffrn_reflns_number            18646
_diffrn_reflns_point_group_measured_fraction_full 0.996
_diffrn_reflns_point_group_measured_fraction_max 0.994
_diffrn_reflns_theta_full        25.242
_diffrn_reflns_theta_max         28.485
_diffrn_reflns_theta_min         2.020
_diffrn_source                   'fine-focus sealed tube'
_exptl_absorpt_coefficient_mu    7.374
_exptl_absorpt_correction_T_max  0.7339
_exptl_absorpt_correction_T_min  0.5897
_exptl_absorpt_correction_type   multi-scan
_exptl_absorpt_process_details   SADABS
_exptl_crystal_colour            colourless
_exptl_crystal_density_diffrn    2.645
_exptl_crystal_description       irregular
_exptl_crystal_F_000             4704
_exptl_crystal_size_max          0.1
_exptl_crystal_size_mid          0.08
_exptl_crystal_size_min          0.06
_refine_diff_density_max         0.776
_refine_diff_density_min         -0.933
_refine_diff_density_rms         0.205
_refine_ls_extinction_method     none
_refine_ls_goodness_of_fit_ref   0.999
_refine_ls_hydrogen_treatment    constr
_refine_ls_matrix_type           full
_refine_ls_number_parameters     80
_refine_ls_number_reflns         1799
_refine_ls_number_restraints     0
_refine_ls_restrained_S_all      0.999
_refine_ls_R_factor_all          0.0972
_refine_ls_R_factor_gt           0.0440
_refine_ls_shift/su_max          0.000
_refine_ls_shift/su_mean         0.000
_refine_ls_structure_factor_coef Fsqd
_refine_ls_weighting_details
'w=1/[\s^2^(Fo^2^)+(0.0307P)^2^+21.3419P] where P=(Fo^2^+2Fc^2^)/3'
_refine_ls_weighting_scheme      calc
_refine_ls_wR_factor_gt          0.0855
_refine_ls_wR_factor_ref         0.1046
_reflns_Friedel_coverage         0.000
_reflns_number_gt                1101
_reflns_number_total             1799
_reflns_threshold_expression     'I > 2\s(I)'
_cod_data_source_file            ic502207f_si_004.cif
_cod_data_source_block           TRI1
_cod_depositor_comments
'Adding full bibliography for 4342249--4342255.cif.'
_cod_original_cell_volume        6394(12)
_cod_database_code               4342255
#BEGIN Tags that were not found in dictionaries:
_shelx_space_group_comment
;
The symmetry employed for this shelxl refinement is uniquely defined
by the following loop, which should always be used as a source of
symmetry information in preference to the above space-group names.
They are only intended as comments.
;
_shelxl_version_number           2013-4
_shelx_res_file
;
TITL TRI1 in R-3c
CELL 0.71073 13.2915 13.2915 41.7923 90.000 90.000 120.000
ZERR 6.00 0.0109 0.0109 0.0376 0.000 0.000 0.000
LATT 3
SYMM -y, x-y, z
SYMM -x+y, -x, z
SYMM x-y, -y, -z+1/2
SYMM -x, -x+y, -z+1/2
SYMM y, x, -z+1/2
SFAC C  H  N  O  Si Cu I
UNIT 192  180  36  0  12  36  36
L.S. 10
ACTA
BOND $H
FMAP 2
PLAN 5
TEMP 23.000
WGHT    0.030700   21.341900
FVAR       0.02060
I1    7    0.802292   -0.027727    0.045406    11.00000    0.03932    0.02896 =
         0.04111   -0.00326    0.00513    0.01632
CU1   6    0.980032    0.161481    0.018098    11.00000    0.03668    0.04037 =
         0.05462   -0.00449   -0.00501    0.02368
SI1   5    0.666667    0.333333    0.009208    10.33333    0.02374    0.02374 =
         0.04583    0.00000    0.00000    0.01187
C1    1    0.666667    0.333333   -0.034899    10.33333    0.05091    0.05091 =
         0.05957    0.00000    0.00000    0.02545
AFIX 137
H1A   2    0.707668    0.411939   -0.042556    10.33333   -1.50000
H1B   2    0.588061    0.295729   -0.042556    10.33333   -1.50000
H1C   2    0.704271    0.292332   -0.042556    10.33333   -1.50000
AFIX   0
C11   1    0.809373    0.362102    0.025192    11.00000    0.02684    0.02626 =
         0.04216    0.00096    0.00091    0.01409
C12   1    0.848863    0.285001    0.017992    11.00000    0.02580    0.02937 =
         0.05241   -0.01054   -0.00780    0.01469
AFIX  43
H12   2    0.802743    0.222316    0.004762    11.00000   -1.20000
AFIX   0
N13   3    0.948693    0.294915    0.028809    11.00000    0.02450    0.02984 =
         0.04184   -0.00752   -0.00703    0.01200
C14   1    1.018286    0.387945    0.045951    11.00000    0.02993    0.02915 =
         0.05191   -0.00620   -0.00937    0.01401
AFIX  43
H14   2    1.088356    0.397018    0.053338    11.00000   -1.20000
AFIX   0
C15   1    0.989818    0.470755    0.053045    11.00000    0.04233    0.03172 =
         0.07348   -0.02260   -0.02236    0.01630
AFIX  43
H15   2    1.040516    0.535441    0.065033    11.00000   -1.20000
AFIX   0
C16   1    0.885858    0.458909    0.042483    11.00000    0.03804    0.03347 =
         0.07258   -0.01927   -0.00981    0.02035
AFIX  43
H16   2    0.867452    0.516310    0.047043    11.00000   -1.20000
AFIX   0
HKLF 4 1 1 0 0 0 1 0 0 0 1

REM  TRI1 in R-3c
REM R1 =  0.0440 for    1101 Fo > 4sig(Fo)  and  0.0972 for all    1799 data
REM     80 parameters refined using      0 restraints

END

WGHT      0.0307     21.5014

REM Highest difference peak  0.776,  deepest hole -0.933,  1-sigma level  0.205
Q1    1   0.7344 -0.0112  0.0662  11.00000  0.05    0.78
Q2    1   0.8599  0.5152  0.0700  11.00000  0.05    0.77
Q3    1   1.1249  0.6643  0.0342  11.00000  0.05    0.73
Q4    1   1.0855  0.3602  0.0545  11.00000  0.05    0.73
Q5    1   0.9102  0.0762 -0.0006  11.00000  0.05    0.73
;
_shelx_res_checksum              90975
_shelx_hkl_file
;
   1   1   0   17.00    2.81
   1   1   0   16.31    2.49
  -2   1   0   14.91    2.66
  -2   1   0   22.20    2.98
  -2   1   0   18.92    2.68
   1  -2   0   23.50    2.72
  -1  -1   0   25.09    2.87
  -1   2   0   17.36    2.65
  -1   2   0   25.83    2.70
  -1   2   0   22.29    2.53
  -1  -1   0   24.23    2.69
  -3   3   0  111.21   15.53
  -3   3   0  126.45   14.24
  -3   3   0  135.82   14.52
  -3   0   0  126.20   14.47
   0   3   0  143.11   14.39
  -3   0   0  134.93   15.75
  -4   2   0  313.03   43.67
  -4   2   0  360.32   40.26
  -4   2   0  327.43   40.29
  -2   4   0  412.20   38.08
  -2   4   0  394.71   43.41
  -2  -2   0  397.24   45.39
  -2   4   0  348.43   40.32
  -2  -2   0  410.87   40.28
   1   4   0  210.75   22.40
  -5   1   0  191.41   23.69
  -5   1   0  213.89   25.83
   1   4   0  213.40   23.54
  -5   1   0  193.70   23.62
  -4   5   0  235.85   25.52
  -4   5   0  175.56   23.68
  -4   5   0  218.54   22.24
  -1  -4   0  220.06   26.35
  -4   5   0  254.03   23.32
  -5   4   0  195.04   20.82
   4   1   0  187.17   19.67
  -5   4   0  182.53   22.71
  -5   4   0  193.97   21.07
  -1   5   0  215.87   19.89
  -1   5   0  173.76   20.86
  -4  -1   0  188.71   20.99
  -4  -1   0  179.23   22.71
  -6   3   0   11.65    2.80
   3   3   0   12.75    2.49
  -6   3   0   12.35    2.68
  -6   3   0   13.42    2.84
  -3  -3   0   15.18    2.74
  -3   6   0   10.04    1.96
  -3   6   0   12.08    2.57
  -3   6   0   10.47    2.14
   0  -6   0  891.75   89.74
  -6   6   0  802.84   90.32
  -6   6   0  741.91   89.72
   6   0   0  844.32   85.01
  -6   6   0  805.24   97.64
  -6   0   0  863.09   90.25
  -6   0   0  884.84   97.96
   0   6   0  849.33   85.30
  -7   2   0   13.05    3.19
  -7   2   0   18.56    3.98
  -7   2   0   23.45    3.65
   2   5   0   23.84    3.44
   2   5   0   16.45    3.19
  -2  -5   0   18.65    3.25
  -5   7   0   23.65    2.56
  -2  -5   0   19.23    3.04
  -5   7   0   16.16    3.00
  -5   7   0   16.32    3.57
  -5   7   0   17.50    3.25
  -7   5   0   19.82    3.91
  -7   5   0   17.71    3.67
   5   2   0   19.70    3.21
  -7   5   0   21.26    3.58
  -2   7   0   23.82    3.53
  -5  -2   0   19.65    3.92
  -2   7   0   22.47    3.81
  -2   7   0   22.17    2.91
  -8   1   0   24.23    4.36
   1   7   0   25.81    3.92
   1   7   0   19.61    3.59
  -8   1   0   21.29    4.40
  -7   8   0   22.40    3.82
  -1  -7   0   20.07    3.36
  -7   8   0   17.10    2.96
  -7   8   0   14.25    3.63
   8  -1   0   23.39    3.21
  -1  -7   0   15.78    3.08
  -8   4   0  102.08   12.22
   4   4   0  116.71   11.55
  -8   4   0  103.55   12.34
  -8   4   0  102.77   13.41
  -4   8   0   81.84   12.38
  -4   8   0   98.72   11.31
  -4  -4   0  126.44   12.36
  -4   8   0  125.27   12.51
  -8   7   0   16.68    3.73
  -8   7   0   25.34    4.18
   7   1   0   17.10    3.11
  -8   7   0   15.31    3.17
  -1   8   0   21.96    3.82
  -7  -1   0   23.15    4.15
  -1   8   0   17.40    3.52
   3   6   0   14.31    3.12
  -9   3   0   19.20    4.30
   3   6   0   14.25    3.27
  -9   3   0   15.78    3.41
  -9   3   0   15.09    3.50
  -6   9   0   17.17    3.13
  -6   9   0   17.66    3.17
  -6   9   0   17.78    3.85
  -3  -6   0   13.68    3.26
   6   3   0   10.05    2.62
  -9   6   0   11.16    2.87
  -9   6   0   11.81    3.38
  -9   6   0   16.79    3.80
  -3   9   0   11.21    2.87
  -3   9   0    7.21    2.64
  -6  -3   0   12.08    3.34
  -3   9   0   17.31    2.26
   9   0   0   31.54    4.67
  -9   9   0   37.72    4.82
  -9   9   0   25.43    5.26
  -9   9   0   34.72    5.96
  -9   0   0   27.39    5.60
   0   9   0   32.22    5.28
   0   9   0   31.26    5.31
 -10   2   0    1.10    2.33
   2   8   0   -0.20    1.75
   2   8   0   -1.67    1.72
 -10   2   0   -0.75    1.87
  -2  -8   0   -1.27    0.81
  -2  -8   0    1.25    1.76
  -8  10   0    1.64    1.12
  10  -2   0    1.89    1.31
  -8  10   0    1.12    2.22
  -8  10   0    1.19    1.68
 -10   5   0   76.49   11.39
 -10   5   0   75.23   10.52
 -10   5   0   96.50   10.67
   5   5   0   85.80    9.84
  -5  -5   0   97.71   10.59
  -5  10   0   74.67   10.25
  -5  10   0   90.98    9.79
  -5  10   0   82.01   10.44
 -10   8   0   -0.01    1.66
   8   2   0    3.30    1.83
 -10   8   0    3.47    2.55
 -10   8   0   -1.78    1.83
  -8  -2   0    4.17    2.41
  -2  10   0   -0.26    1.82
  -2  10   0    1.57    0.81
  -2  10   0    2.41    2.05
   1  10   0   30.36    5.56
   1  10   0   35.79    5.77
 -11   1   0   25.56    5.47
 -10  11   0   27.30    4.56
  11  -1   0   34.46    4.88
 -10  11   0   35.18    6.00
 -10  11   0   35.18    6.45
   4   7   0   33.14    6.08
   4   7   0   51.91    6.76
 -11   4   0   44.30    7.09
 -11   4   0   47.32    8.17
 -11   4   0   39.52    6.88
  -7  11   0   50.79    6.65
  -7  11   0   45.53    7.39
  -4  -7   0   69.32    7.79
  -7  11   0   39.10    6.39
   7   4   0   45.03    6.75
 -11   7   0   50.53    8.40
 -11   7   0   57.44    7.70
 -11   7   0   39.56    7.33
  -4  11   0   43.48    6.76
  -4  11   0   48.81    7.59
  -7  -4   0   53.66    7.74
 -11  10   0   26.73    6.01
  10   1   0   39.13    5.26
 -11  10   0   30.97    6.14
 -11  10   0   35.17    5.15
  -1  11   0   28.74    5.64
  -1  11   0   34.88    5.87
 -10  -1   0   25.13    5.54
   3   9   0   -1.23    2.04
   3   9   0    5.13    2.45
 -12   3   0    4.95    3.03
  12  -3   0    1.65    1.53
  -9  12   0    1.98    2.67
  -9  12   0    3.04    2.10
  -3  -9   0    1.39    2.27
 -12   6   0   42.07    6.78
   6   6   0   36.02    5.60
   6   6   0   24.90    5.21
 -12   6   0   30.36    6.71
 -12   6   0   36.50    6.38
  -6  12   0   36.00    6.47
  -6  -6   0   32.11    6.02
  -6  12   0   38.46    5.73
 -12   9   0    3.10    2.73
   9   3   0    0.78    1.89
 -12   9   0    7.58    3.26
 -12   9   0    1.00    2.23
  -3  12   0    0.81    2.33
  -3  12   0    0.70    2.08
  -9  -3   0    2.76    2.65
 -12  12   0   -1.46    2.30
  12   0   0    0.19    1.90
 -12  12   0   -2.63    2.46
 -12   0   0   -2.26    2.19
   0  12   0    1.04    2.57
   0  12   0   -1.96    1.88
   2  11   0   13.02    3.57
   2  11   0    6.02    3.05
 -13   2   0    5.66    3.54
 -11  13   0    6.16    3.59
  13  -2   0   12.02    2.93
 -11  13   0   12.45    3.63
   5   8   0   -0.71    2.20
 -13   5   0    1.84    2.92
   5   8   0    0.09    2.08
  13  -5   0    3.43    1.60
  -5  -8   0    5.57    3.00
  -8  13   0    2.79    2.80
  -8  13   0   -2.96    2.04
   8   5   0    3.62    2.35
 -13   8   0    1.09    2.67
 -13   8   0    9.30    3.32
 -13   8   0    2.11    2.64
  -5  13   0    1.88    2.47
  -8  -5   0    1.78    2.68
  -5  13   0   -0.06    2.54
 -13  11   0    9.28    3.08
 -13  11   0    7.02    3.54
 -13  11   0    3.02    3.89
  11   2   0    7.29    2.86
 -11  -2   0   15.29    4.39
  -2  13   0   14.24    4.12
  -2  13   0    5.76    3.28
   1  13   0    5.00    3.27
 -14   1   0    7.44    4.19
   1  13   0    8.93    3.27
  14  -1   0    3.71    2.46
 -13  14   0   -0.05    2.99
 -13  14   0    5.35    3.34
 -14   4   0    2.82    3.18
   4  10   0    0.74    2.58
   4  10   0    7.60    2.91
 -10  14   0    2.59    3.09
  -4 -10   0    7.31    3.19
 -14   7   0    3.83    3.70
 -14   7   0    7.59    3.75
   7   7   0    3.02    2.41
 -14   7   0    8.63    3.39
   7   7   0    4.70    2.61
  -7  14   0    6.40    3.06
  -7  -7   0    2.13    2.80
  -7  14   0    3.40    3.30
 -14  10   0    3.50    3.54
 -14  10   0    9.20    3.81
  10   4   0    1.87    2.64
 -14  10   0    3.52    2.83
 -10  -4   0    2.13    3.30
  -4  14   0    5.15    3.20
  -4  14   0    4.28    3.08
 -14  13   0    1.89    3.17
  13   1   0   -1.50    2.02
 -14  13   0    2.25    3.15
  -1  14   0    6.93    3.32
 -13  -1   0    0.42    3.32
  -1  14   0    1.71    2.99
 -15   3   0    5.97    3.70
   3  12   0    5.31    3.74
   3  12   0   10.81    3.21
 -12  15   0    3.62    3.24
   6   9   0   -0.61    2.36
 -15   6   0    0.46    3.09
   6   9   0    0.87    2.51
  -9  15   0    4.89    3.54
  -6  -9   0    3.58    3.07
  -9  15   0    3.02    2.97
 -15   9   0    2.05    3.02
   9   6   0    3.26    2.64
   9   6   0   -1.16    2.39
 -15   9   0    3.38    3.15
  -9  -6   0    0.80    3.23
  -6  15   0    3.19    3.26
  -6  15   0    5.95    3.62
  12   3   0    7.74    3.45
 -15  12   0    4.08    3.31
 -15  12   0    7.13    4.26
 -15  12   0   11.53    4.74
  -3  15   0    7.64    3.65
 -12  -3   0   12.85    4.99
  -3  15   0   14.20    4.38
 -15  15   0    1.96    4.76
   0  15   0    5.36    3.71
   0  15   0    4.96    4.00
 -15   0   0    5.27    4.83
   2  14   0    4.69    4.11
 -16   2   0    2.57    4.48
   2  14   0    3.97    3.12
 -14  16   0    4.55    4.08
   5  11   0    4.00    2.63
 -16   5   0    0.75    3.39
   5  11   0   -0.84    2.50
 -11  16   0   -0.75    3.05
   8   8   0   32.50    5.89
 -16   8   0   22.13    6.02
   8   8   0   24.42    5.27
 -16   8   0   19.42    5.64
  -8  16   0   32.74    6.21
  -8  16   0   20.89    6.02
  -8  -8   0   33.98    6.42
 -16  11   0    6.92    4.53
 -16  11   0    2.65    3.76
  11   5   0   -1.99    2.01
  -5  16   0   -0.12    3.04
 -11  -5   0    5.51    3.92
  -5  16   0    4.09    3.38
  14   2   0    1.09    2.47
 -16  14   0    4.08    4.65
  -2  16   0    3.29    3.68
  -2  16   0    6.03    4.13
 -14  -2   0   -5.13    3.55
   4  13   0   10.56    4.62
 -17   4   0    3.85    5.05
 -13  17   0    6.61    5.18
 -17   7   0    5.22    4.44
   7  10   0    4.68    3.55
 -10  17   0    3.15    4.04
  -7 -10   0    5.53    4.27
 -17  10   0   11.27    4.76
  10   7   0    2.43    3.21
 -17  10   0   -3.26    3.30
 -10  -7   0   -5.37    2.75
  -7  17   0    9.59    4.24
  -7  17   0    4.50    3.82
 -17  13   0    0.63    4.24
  13   4   0    4.35    3.20
  -4  17   0    2.05    3.99
  -4  17   0    4.44    3.73
 -13  -4   0   -0.38    4.07
   0   1  -1   -0.14    0.28
  -1   0  -1    0.07    0.38
   0   1  -1   -0.17    0.30
   0   1  -1   -0.03    0.24
  -1   0  -1   -0.47    0.21
  -1   0  -1    0.11    0.36
   1  -1  -1    0.04    0.30
  -1   0  -1   -0.20    0.26
   1  -1  -1   -0.07    0.23
  -1   1   1   -0.39    0.29
   0  -1   1   -0.18    0.21
  -1   1   1   -0.02    0.29
  -1   1   1   -0.04    0.27
   1   0   1   -0.38    0.16
   1   0   1   -0.01    0.23
  -1   3  -1  111.25   10.37
  -2  -1  -1  111.37   12.32
  -2  -1  -1   88.52   10.97
  -1   3  -1   83.99   10.95
  -2  -1  -1   94.59   11.87
   2   1   1  101.14   10.32
  -3   2   1   92.64   10.94
  -3   2   1   98.72   11.06
  -3   2   1  100.95   11.91
  -2   2  -1    0.06    0.56
   0  -2  -1   -0.22    0.55
  -2   2  -1   -0.51    0.70
  -2   2  -1    0.37    0.52
  -2   2  -1    0.03    0.87
  -2   0   1   -0.73    0.75
   0   2   1    0.07    0.58
  -2   0   1    0.12    0.79
   0   2   1   -0.32    0.61
  -2   5  -1  100.01   11.57
  -2   5  -1  101.67   12.35
  -3  -2  -1  110.97   12.40
  -2   5  -1  112.68   12.96
  -5   3   1   99.98   13.38
  -5   3   1  113.18   12.35
  -5   3   1  130.79   12.62
   3   2   1  103.62   11.58
   1   2  -1   98.92    9.90
  -3   1  -1   95.00   10.47
  -3   1  -1   99.46   10.54
  -3   1  -1  102.88   11.49
  -2   3   1   78.34   10.17
  -2   3   1   89.67    9.83
  -2   3   1  104.92   10.57
  -1  -2   1   93.43   11.51
  -2   3   1   92.29   11.12
  -1  -2   1   95.36   10.40
  -3   4  -1   18.38    3.08
  -3   4  -1   20.18    2.99
  -1  -3  -1   19.60    2.89
  -3   4  -1   17.59    2.54
  -1  -3  -1   25.49    3.08
  -3   4  -1   18.26    2.41
  -4   1   1   19.71    3.46
  -4   1   1   17.25    2.98
  -4   1   1   15.20    2.91
   1   3   1   20.79    2.84
   1   3   1   20.03    2.94
  -3   7  -1   16.12    2.70
  -4  -3  -1   13.86    2.85
  -3   7  -1   12.71    2.98
  -3   7  -1   18.18    2.44
  -7   4   1    9.46    2.72
  -7   4   1    6.45    2.61
  -7   4   1   11.80    3.01
   4   3   1   17.31    2.89
   0   4  -1    1.53    1.24
  -4   0  -1   -1.63    1.29
  -4   0  -1    1.07    1.46
   0   4  -1    0.59    1.00
  -4   4   1   -0.07    1.27
   0  -4   1    0.48    0.81
  -4   4   1   -0.49    1.11
   4   0   1   -0.29    0.80
  -4   4   1   -1.34    1.00
  -4   3  -1   17.89    3.02
   3   1  -1   21.90    2.80
  -4   3  -1   18.16    2.87
  -4   3  -1   21.64    3.41
  -1   4   1   18.38    2.88
  -1   4   1   15.68    2.68
  -3  -1   1   25.62    3.31
  -4   6  -1  267.86   25.21
  -4   6  -1  272.34   27.76
  -2  -4  -1  221.76   25.68
  -2  -4  -1  188.58   28.69
  -4   6  -1  223.98   25.89
  -4   6  -1  232.92   24.23
  -6   2   1  242.59   25.94
  -6   2   1  257.36   25.97
  -6   2   1  235.63   28.19
   2   4   1  209.19   25.56
   2   4   1  219.72   24.41
  -4   9  -1   11.70    2.15
  -4   9  -1    9.01    2.42
  -4   9  -1   11.83    3.11
  -5  -4  -1   11.72    2.97
   5   4   1    8.94    2.33
  -9   5   1   11.37    2.94
  -9   5   1    8.83    2.97
  -9   5   1   12.25    3.31
  -1   6  -1  191.54   19.77
  -5  -1  -1  197.94   22.74
  -1   6  -1  202.50   20.97
  -5  -1  -1  178.01   20.94
  -6   5   1  195.70   20.71
  -6   5   1  182.86   22.55
  -6   5   1  168.07   20.96
   5   1   1  179.28   19.55
  -5   2  -1  108.08   11.84
  -5   2  -1  106.12   12.88
  -5   2  -1  114.52   11.91
   2   3  -1   81.18   11.01
  -3   5   1  101.57   11.82
  -3   5   1   81.60   12.31
  -2  -3   1  131.13   11.82
  -3   5   1  125.41   11.13
  -5   5  -1    0.34    1.32
   0  -5  -1   -0.73    0.93
   5   0  -1    1.07    1.05
  -5   5  -1   -0.15    0.97
  -5   5  -1   -1.23    1.26
  -5   0   1   -0.46    1.40
   0   5   1    1.24    1.22
  -5   0   1    1.11    1.57
   0   5   1    0.23    1.25
  -3  -5  -1    9.21    2.09
  -5   8  -1   10.30    2.25
  -5   8  -1    8.67    2.14
  -3  -5  -1   14.42    2.76
  -5   8  -1    8.93    2.71
   3   5   1   11.55    2.60
  -8   3   1    9.77    2.98
  -8   3   1    9.33    2.61
  -8   3   1    9.21    2.50
   3   5   1    8.79    2.27
  -5  11  -1   55.86    7.39
  -5  11  -1   58.80    7.81
  -6  -5  -1   62.62    8.71
  -5  11  -1   53.63    8.56
   6   5   1   69.36    8.39
 -11   6   1   64.05    8.67
 -11   6   1   46.18    8.23
 -11   6   1   58.92    9.49
  -6  -2  -1   32.49    5.23
  -2   8  -1   34.72    5.22
  -2   8  -1   30.82    4.69
  -2   8  -1   34.50    4.24
  -8   6   1   23.83    4.86
   6   2   1   31.99    4.61
  -8   6   1   31.03    5.29
  -8   6   1   27.72    4.68
   1   5  -1  176.90   19.97
  -6   1  -1  183.27   21.95
  -6   1  -1  207.80   20.29
   1   5  -1  181.52   19.05
   6  -1   1  183.01   18.65
  -5   6   1  203.44   20.36
  -5   6   1  163.95   21.46
  -5   6   1  155.38   19.56
  -5   6   1  183.80   18.85
  -6   4  -1  220.70   25.55
   4   2  -1  251.71   24.05
  -6   4  -1  238.60   27.68
  -6   4  -1  235.94   25.38
  -2   6   1  259.61   26.96
  -2   6   1  194.18   25.35
  -2   6   1  232.49   24.80
  -2   6   1  221.55   24.04
  -4  -2   1  198.63   25.37
  -6   7  -1  107.17   13.72
  -6   7  -1  113.96   12.99
  -1  -6  -1  137.94   14.80
  -6   7  -1  145.10   14.70
  -1  -6  -1   96.91   13.14
   1   6   1  116.26   13.41
  -7   1   1  105.11   13.59
  -7   1   1  109.61   14.85
   1   6   1  116.34   12.88
  -6  10  -1  156.19   16.89
  -6  10  -1  134.34   16.30
  -4  -6  -1  132.06   16.09
  -6  10  -1  123.41   15.01
 -10   4   1  135.58   16.27
   4   6   1  127.99   15.17
 -10   4   1  126.74   17.71
 -10   4   1  141.78   16.38
   4   6   1  150.10   15.85
  -6  13  -1    4.96    3.29
  -6  13  -1    7.64    3.09
  -7  -6  -1   13.79    4.24
 -13   7   1    8.77    3.87
 -13   7   1    7.98    3.83
 -13   7   1    9.68    3.71
   7   6   1   10.99    3.16
   7   6   1   11.84    3.22
  -3  10  -1   94.78   12.85
  -3  10  -1  128.38   12.93
  -3  10  -1  106.68   12.25
  -7  -3  -1   80.50   12.80
 -10   7   1   91.66   12.59
   7   3   1  109.63   12.11
 -10   7   1  109.58   13.42
 -10   7   1  112.82   14.26
   0   7  -1    1.18    1.71
   0   7  -1    0.40    1.37
  -7   0  -1    0.92    1.54
  -7   0  -1   -0.43    1.65
  -7   7   1    1.11    1.28
  -7   7   1   -0.14    1.46
  -7   7   1    0.47    1.80
   0  -7   1    1.10    1.12
   7   0   1    1.50    1.26
  -7   3  -1   14.00    2.88
  -7   3  -1   13.17    2.79
   3   4  -1   13.63    2.63
  -7   3  -1    9.40    2.79
  -4   7   1   13.16    2.75
  -4   7   1    9.91    2.27
  -4   7   1   10.28    2.12
  -3  -4   1   11.84    2.62
  -7   6  -1  110.44   12.53
  -7   6  -1  105.20   13.35
  -7   6  -1   95.55   11.97
   6   1  -1  113.39   11.49
  -6  -1   1  105.97   12.48
  -1   7   1  114.51   11.80
  -1   7   1   96.11   12.19
  -7   9  -1   28.74    5.43
  -2  -7  -1   31.64    4.34
  -7   9  -1   27.70    4.38
   9  -2  -1   30.70    4.23
  -7   9  -1   35.59    5.16
  -7   9  -1   27.39    3.79
  -2  -7  -1   27.51    4.64
  -9   2   1   27.36    4.98
  -9   2   1   33.29    5.96
   2   7   1   38.07    5.06
   2   7   1   22.74    4.43
  -7  12  -1   49.25    8.78
  -7  12  -1   63.53    8.10
  -5  -7  -1   70.78    9.12
  -7  12  -1   52.43    7.80
   5   7   1   66.24    8.41
 -12   5   1   51.42    8.68
   5   7   1   65.88    8.45
 -12   5   1   70.99   10.48
 -12   5   1   62.09    9.17
  -7  15  -1    3.04    3.25
  -7  15  -1    4.87    3.15
  -8  -7  -1   15.05    4.28
 -15   8   1    3.68    3.23
   8   7   1    4.24    2.81
 -15   8   1    1.59    3.36
   8   7   1    5.57    2.99
  -8  -4  -1   48.87    7.30
  -4  12  -1   40.18    6.89
  -4  12  -1   38.34    6.14
 -12   8   1   26.92    5.92
 -12   8   1   43.83    7.47
 -12   8   1   38.95    7.09
   8   4   1   37.56    5.89
  -8  -1  -1   12.79    3.56
  -1   9  -1   12.26    3.03
  -1   9  -1   11.19    2.99
  -9   8   1   14.25    3.48
  -9   8   1   10.74    2.63
  -9   8   1   11.63    3.24
   8   1   1    9.21    2.39
   2   6  -1   29.98    4.80
   2   6  -1   28.20    4.84
  -8   2  -1   28.91    4.90
  -8   2  -1   24.44    5.37
  -8   2  -1   25.57    4.99
  -6   8   1   38.33    4.85
  -6   8   1   26.87    5.21
   8  -2   1   31.69    4.21
  -6   8   1   32.03    4.00
  -6   8   1   29.92    4.62
  -2  -6   1   40.09    4.49
  -2  -6   1   36.01    4.98
  -8   5  -1    7.13    2.72
   5   3  -1    7.24    2.20
  -8   5  -1    7.40    2.63
  -8   5  -1    3.91    2.07
  -3   8   1   12.65    1.69
  -5  -3   1    9.76    2.75
  -3   8   1   11.62    2.44
  -3   8   1    8.67    2.44
  -8   8  -1   -1.25    1.65
   8   0  -1    0.64    1.18
  -8   8  -1   -1.67    1.10
  -8   8  -1    1.44    1.71
   0   8   1    0.20    1.67
   0   8   1    0.97    1.67
  -8   0   1    0.76    1.78
  -8  11  -1   14.24    3.88
  -8  11  -1   16.67    3.42
  -8  11  -1   10.57    3.15
  -3  -8  -1   27.06    4.41
  11  -3  -1   15.48    2.92
 -11   3   1   18.94    4.25
   3   8   1   13.44    3.41
   3   8   1   15.38    3.79
  -8  14  -1   -4.19    2.11
  -8  14  -1   -3.99    2.10
  -6  -8  -1    0.21    2.55
 -14   6   1    0.29    2.68
 -14   6   1    2.42    3.03
   6   8   1   -0.87    2.25
   6   8   1   -0.55    2.29
  -8  17  -1    3.63    3.84
  -9  -8  -1    3.76    3.89
  -8  17  -1    2.86    3.68
 -17   9   1    1.58    3.67
   9   8   1    6.25    3.37
 -17   9   1    3.17    3.94
  -5  14  -1    4.77    3.12
  -5  14  -1    3.56    2.76
  -9  -5  -1   -0.75    2.70
 -14   9   1    3.39    3.34
   9   5   1    2.94    2.42
 -14   9   1   -0.65    2.48
 -14   9   1    0.91    2.75
  -2  11  -1   35.40    7.31
  -9  -2  -1   48.81    8.16
  -2  11  -1   70.22    8.38
 -11   9   1   52.91    7.61
 -11   9   1   53.04    8.70
 -11   9   1   60.16    8.90
   9   2   1   63.75    7.63
  -9   1  -1   11.39    3.43
   1   8  -1   10.84    2.88
   1   8  -1    9.96    2.80
  -9   1  -1   13.31    3.40
  -8   9   1   10.20    2.86
  -1  -8   1   16.48    3.01
  -8   9   1   12.56    3.43
  -1  -8   1   12.72    2.18
  -8   9   1   11.31    2.27
   9  -1   1   13.95    2.55
  -9   4  -1   10.53    3.28
  -9   4  -1    7.82    2.81
  -9   4  -1   15.95    3.29
   4   5  -1    8.87    2.51
  -5   9   1   12.35    2.66
  -5   9   1   13.76    2.34
  -5   9   1    6.79    2.61
  -4  -5   1   18.15    3.33
   7   2  -1   29.97    4.14
  -9   7  -1   32.17    5.08
  -9   7  -1   27.86    5.06
  -9   7  -1   25.98    4.27
  -2   9   1   21.52    4.33
  -2   9   1   21.75    3.10
  -7  -2   1   31.01    4.99
  -2   9   1   22.61    4.13
  -9  10  -1   62.88    8.50
  -1  -9  -1   76.60    8.08
  -9  10  -1   48.82    8.66
  -9  10  -1   43.23    7.10
  10  -1  -1   56.58    7.13
 -10   1   1   63.23    8.85
   1   9   1   56.78    8.13
   1   9   1   68.58    8.02
  -9  13  -1    2.11    2.85
  13  -4  -1    2.61    1.66
  -4  -9  -1    1.61    2.56
   4   9   1    1.35    2.37
 -13   4   1    0.46    2.92
   4   9   1    2.52    2.48
  -9  16  -1   23.43    6.10
  -9  16  -1   22.22    5.23
  -7  -9  -1   24.59    5.78
 -16   7   1   14.32    5.05
   7   9   1   26.51    5.48
  -6  16  -1    6.46    3.86
 -10  -6  -1   10.93    4.41
  -6  16  -1    3.36    3.43
 -16  10   1    3.97    4.09
  10   6   1   11.49    3.77
 -16  10   1    1.71    3.23
 -10  -3  -1   26.04    5.76
  -3  13  -1   27.70    5.40
  -3  13  -1   23.32    4.98
 -13  10   1   24.49    4.73
 -13  10   1   16.40    5.10
  10   3   1   18.75    4.19
 -13  10   1   26.00    5.90
   0  10  -1   -2.02    2.38
   0  10  -1    2.97    2.21
 -10   0  -1    3.19    2.60
 -10  10   1   -2.63    2.20
 -10  10   1   -1.33    1.77
 -10  10   1   -1.32    1.34
  10   0   1    1.21    1.51
 -10   3  -1   98.81   12.87
   3   7  -1   89.66   12.25
 -10   3  -1  104.83   14.02
   3   7  -1  109.48   12.13
  -7  10   1  114.07   13.07
  10  -3   1   96.58   11.25
  -7  10   1  102.86   11.84
  -3  -7   1  112.22   12.62
  -7  10   1  102.10   12.83
  -7  10   1  109.18   11.53
   6   4  -1  121.91   15.03
 -10   6  -1  128.87   16.31
 -10   6  -1  129.33   15.99
 -10   6  -1  118.80   17.49
  -6  -4   1  148.94   16.24
  -4  10   1  142.28   15.18
  -4  10   1  144.52   16.24
  -4  10   1  150.56   16.32
 -10   9  -1   48.64    8.53
 -10   9  -1   59.20    8.68
 -10   9  -1   63.60    7.44
   9   1  -1   57.56    7.47
  -1  10   1   50.80    8.00
  -9  -1   1   51.67    8.39
  -1  10   1   69.86    8.46
  12  -2  -1  148.34   16.75
 -10  12  -1  184.69   19.67
 -10  12  -1  125.71   18.41
 -12   2   1  136.42   18.63
   2  10   1  176.38   18.34
   2  10   1  149.68   17.54
 -10  15  -1    1.25    2.89
  -5 -10  -1    1.45    2.84
   5  10   1    4.73    3.05
   5  10   1   -0.42    2.24
 -15   5   1   -0.39    3.05
 -11  -4  -1   14.30    4.73
  -4  15  -1    9.38    4.04
  -4  15  -1   12.59    4.29
  11   4   1   10.97    3.38
 -15  11   1   12.03    3.95
 -15  11   1   -0.92    3.47
 -11  -1  -1   35.69    6.76
  -1  12  -1   31.31    6.09
  -1  12  -1   38.73    6.26
 -12  11   1   33.72    6.66
  11   1   1   30.37    5.13
 -12  11   1   25.58    4.99
 -12  11   1   40.97    6.70
   2   9  -1   49.22    7.21
   2   9  -1   40.68    6.93
 -11   2  -1   51.09    7.83
  -9  11   1   41.68    5.76
  -9  11   1   47.73    7.73
  11  -2   1   55.49    6.00
  -2  -9   1   50.53    7.01
  -9  11   1   47.03    7.35
 -11   5  -1   42.92    7.59
 -11   5  -1   54.91    7.95
   5   6  -1   65.76    7.94
   5   6  -1   55.93    6.95
 -11   5  -1   48.13    8.59
  -6  11   1   79.49    7.30
  -5  -6   1   62.82    8.15
  -6  11   1   42.50    7.58
  -6  11   1   42.79    6.62
 -11   8  -1   12.82    4.01
 -11   8  -1   15.32    4.16
   8   3  -1   13.97    3.24
 -11   8  -1   15.00    3.61
  -3  11   1   18.23    3.57
  -8  -3   1   14.85    3.71
  -3  11   1   18.31    4.15
 -11  11  -1   -0.45    1.63
 -11  11  -1   -1.49    2.05
 -11  11  -1    0.24    2.22
  11   0  -1   -0.34    1.58
   0  11   1    2.50    2.19
   0  11   1   -0.37    2.25
 -11   0   1    1.25    2.35
 -11  14  -1   -1.01    2.43
  14  -3  -1    0.51    1.66
 -14   3   1    4.25    3.28
   3  11   1   -0.53    2.05
   3  11   1   -0.87    2.34
 -11  17  -1    6.11    4.11
   6  11   1    4.13    3.64
 -17   6   1    4.69    4.47
  -5  17  -1   -1.61    3.17
  -5  17  -1    3.69    3.73
 -12  -5  -1    5.67    4.11
 -17  12   1    5.73    4.06
  12   5   1    7.78    3.66
 -17  12   1   12.85    5.37
 -12  -2  -1    0.28    3.33
  -2  14  -1    3.51    2.87
  -2  14  -1    2.15    2.90
 -14  12   1    2.05    2.95
 -14  12   1   -0.60    2.93
  12   2   1   -0.49    2.10
   1  11  -1   36.82    6.01
 -12   1  -1   26.86    6.10
   1  11  -1   29.05    5.62
 -11  12   1   35.59    6.63
 -11  12   1   26.38    5.75
  12  -1   1   30.50    4.96
 -12   4  -1   33.98    6.71
 -12   4  -1   37.14    7.70
   4   8  -1   42.66    6.58
   4   8  -1   48.20    6.72
  12  -4   1   42.10    5.44
  -8  12   1   48.45    6.48
  -8  12   1   24.55    6.25
  -8  12   1   49.72    6.76
  -4  -8   1   50.17    7.08
   7   5  -1   59.44    8.21
 -12   7  -1   54.76    9.20
 -12   7  -1   40.65    8.10
 -12   7  -1   56.12    9.64
  -5  12   1   76.33    9.54
  -5  12   1   73.20    8.81
  -7  -5   1   69.01    9.01
  10   2  -1  136.93   15.52
 -12  10  -1  163.00   18.46
 -12  10  -1  134.68   16.20
 -12  10  -1  130.77   17.16
  -2  12   1  124.18   16.66
  -2  12   1  143.49   16.01
 -12  13  -1   16.05    4.70
  13  -1  -1   14.35    3.34
 -12  13  -1   17.17    4.50
 -13   1   1    7.36    4.09
   1  12   1   15.07    4.31
   1  12   1   18.27    4.23
 -12  16  -1   26.15    6.87
   4  12   1   27.65    6.59
 -16   4   1   31.15    7.34
   4  12   1   44.72    6.70
  -3  16  -1    8.77    4.30
 -13  -3  -1   14.23    5.42
  -3  16  -1    9.83    4.40
 -16  13   1    4.16    4.45
  13   3   1   10.86    3.66
 -13   0  -1   -2.01    2.74
   0  13  -1   -5.01    1.72
   0  13  -1    3.41    2.74
 -13  13   1   -0.20    2.71
  13   0   1   -0.85    2.02
 -13  13   1    0.38    3.03
 -13   3  -1   12.41    4.42
   3  10  -1   17.03    4.29
   3  10  -1   16.69    4.36
 -10  13   1   28.81    4.81
 -10  13   1   20.14    5.12
  -3 -10   1   29.78    5.11
  13  -3   1   27.22    4.00
 -13   6  -1    7.03    3.80
   6   7  -1   11.07    3.24
 -13   6  -1   13.40    3.88
 -13   6  -1    5.39    3.32
   6   7  -1   10.56    3.17
  -6  -7   1    6.77    3.58
  -7  13   1   13.80    3.90
  -7  13   1   10.04    3.25
 -13   9  -1    1.79    2.95
 -13   9  -1    2.07    2.57
   9   4  -1   -2.00    1.90
 -13   9  -1    1.08    2.63
  -4  13   1    0.92    2.40
  -4  13   1   -3.06    2.25
  -9  -4   1    5.45    3.07
 -13  12  -1   21.28    5.09
 -13  12  -1   12.50    4.49
  12   1  -1   10.22    3.32
 -12  -1   1   16.19    4.84
  -1  13   1   15.88    4.50
  -1  13   1   19.41    4.53
 -13  15  -1    6.16    3.82
   2  13   1    7.79    3.87
   2  13   1    2.53    2.83
 -15   2   1    1.41    3.28
  -1  15  -1    0.42    2.87
  -1  15  -1    1.63    3.14
 -14  -1  -1   -1.25    3.38
 -15  14   1   -2.17    2.94
  14   1   1    2.34    2.52
 -14   2  -1   -0.74    3.03
   2  12  -1    6.30    3.32
   2  12  -1    1.91    2.25
 -12  14   1   -2.39    2.33
  14  -2   1   -0.89    1.82
 -14   5  -1    3.00    3.05
   5   9  -1    0.80    2.34
   5   9  -1   -1.14    2.17
  -9  14   1    1.45    2.70
  -5  -9   1    5.28    2.87
   8   6  -1   -5.80    1.59
   8   6  -1   -0.93    2.14
 -14   8  -1    5.07    3.32
 -14   8  -1   -0.67    2.73
 -14   8  -1    1.92    2.82
  -6  14   1   -0.44    2.81
  -8  -6   1   -0.42    2.59
  -6  14   1    3.65    2.90
 -14  11  -1    3.89    3.42
 -14  11  -1    5.63    3.17
 -14  11  -1    0.24    3.20
  11   3  -1   -1.27    1.89
  -3  14   1    0.24    2.69
  -3  14   1    3.12    2.82
 -11  -3   1    3.32    3.34
 -14  14  -1   -0.95    2.81
 -14  14  -1   -2.47    2.69
  14   0  -1    4.11    2.49
   0  14   1    2.05    3.00
 -14   0   1   -6.98    2.65
   0  14   1    3.91    3.33
 -15   1  -1    4.00    3.99
   1  14  -1   -3.47    2.78
   1  14  -1    4.70    2.96
 -14  15   1    0.73    3.19
 -15   4  -1    6.10    4.16
   4  11  -1   13.63    4.13
   4  11  -1   13.08    3.77
 -11  15   1   11.30    4.32
 -15   7  -1    0.83    3.15
   7   8  -1    3.22    2.65
   7   8  -1    4.35    2.59
 -15   7  -1    0.92    3.00
  -8  15   1    5.12    3.34
  -7  -8   1    9.34    3.51
  -8  15   1   11.29    4.00
 -15  10  -1   -1.24    2.94
 -15  10  -1   -1.65    2.55
 -15  10  -1    1.76    2.92
  10   5  -1   -2.21    1.83
  -5  15   1    2.19    2.85
 -10  -5   1    0.73    2.97
  -5  15   1   -4.33    2.25
  13   2  -1    4.46    2.79
 -15  13  -1   -1.37    3.38
 -15  13  -1    0.41    3.59
  -2  15   1    1.06    3.23
 -13  -2   1   -1.61    3.47
  -2  15   1    2.50    3.07
   3  13  -1   15.15    4.79
   3  13  -1   15.93    4.33
 -16   3  -1    1.45    4.55
 -13  16   1    7.50    4.68
   6  10  -1    5.11    3.43
   6  10  -1    8.21    3.52
 -16   6  -1    8.10    4.16
  -6 -10   1   15.66    4.93
 -10  16   1   10.83    4.47
 -16   9  -1   20.02    5.74
   9   7  -1   18.62    4.71
   9   7  -1   33.64    5.87
 -16   9  -1   21.03    5.69
  -9  -7   1   27.14    6.17
  -7  16   1   17.07    4.98
  -7  16   1   17.52    5.15
 -16  12  -1   39.76    8.15
  12   4  -1   38.06    6.45
 -16  12  -1   27.96    6.32
  -4  16   1   23.97    6.42
 -12  -4   1   39.98    8.12
  -4  16   1   24.34    6.19
 -17   5  -1    9.73    5.51
   5  12  -1    8.90    4.24
 -12  17   1    5.47    4.71
   8   9  -1   10.76    3.86
 -17   8  -1    4.29    4.23
  -8  -9   1    8.65    4.11
  -9  17   1    3.06    3.91
  -9  17   1   14.69    4.71
 -17  11  -1    0.76    3.73
  11   6  -1    9.09    3.74
 -17  11  -1   -3.09    3.41
 -11  -6   1   -6.01    3.14
  -6  17   1    7.76    4.38
  -6  17   1    4.64    3.62
  -1   1  -2  456.57   49.93
   0  -1  -2  469.48   49.94
  -1   1  -2  506.85   50.03
   0   1   2  462.37   47.28
   0   1   2  463.93   49.94
  -1   0   2  470.64   50.01
   1  -1   2  433.41   49.92
   0   2  -2   24.31    3.09
  -2   0  -2   25.19    3.19
  -2   0  -2   27.76    3.48
  -2   0  -2   24.47    2.96
   0   2  -2   24.81    2.93
  -2   2   2   20.73    3.24
   0  -2   2   20.50    2.87
  -2   2   2   25.12    3.02
   2   0   2   29.53    2.78
  -2   2   2   26.71    3.21
  -1  -2  -2  240.49   28.68
  -1  -2  -2  235.26   29.97
  -2   3  -2  272.06   26.71
  -1  -2  -2  225.57   26.53
  -2   3  -2  232.45   25.01
  -2   3  -2  219.28   28.69
   1   2   2  253.25   25.15
  -3   1   2  247.90   26.65
  -3   1   2  245.56   26.65
  -3   1   2  250.45   28.94
   1   2   2  277.20   26.48
  -3  -1  -2  193.76   22.84
  -1   4  -2  195.03   20.59
  -1   4  -2  186.91   21.05
  -3  -1  -2  189.73   21.09
  -4   3   2  217.39   22.88
   1  -4   2  177.96   20.59
  -4   3   2  183.36   20.98
  -4   3   2  191.92   21.17
   3   1   2  194.53   19.82
  -3   2  -2  230.43   27.26
  -3   2  -2  263.29   29.63
  -3   2  -2  240.01   27.18
  -2  -1   2  230.07   27.25
  -1   3   2  246.85   25.77
  -1   3   2  298.21   27.31
  -2  -3  -2   99.29   11.42
  -3   5  -2   91.00   11.52
  -2  -3  -2  117.20   12.71
  -3   5  -2   90.58   10.61
  -3   5  -2  117.23   12.21
  -5   2   2   85.59   12.43
   2   3   2   85.20   10.74
  -5   2   2  109.47   11.58
  -5   2   2  102.26   11.56
  -2   6  -2   29.60    4.42
  -4  -2  -2   33.72    4.82
  -2   6  -2   33.92    4.06
  -2   6  -2   27.79    4.09
  -4  -2  -2   30.44    4.49
   4   2   2   29.87    4.13
  -6   4   2   24.21    4.39
  -6   4   2   27.57    4.25
  -6   4   2   25.14    4.62
  -4   1  -2  190.37   21.27
  -4   1  -2  196.83   21.19
  -4   1  -2  195.38   23.11
   1   3  -2  194.60   20.10
   1   3  -2  185.22   21.15
  -3   4   2  188.66   21.30
  -3   4   2  190.02   20.02
   4  -1   2  185.69   19.79
  -3   4   2  214.48   20.97
  -1  -3   2  186.95   21.06
  -4   4  -2   67.56    7.17
  -4   4  -2   48.45    6.66
  -4   4  -2   55.56    7.48
  -4   0   2   58.34    7.05
   0   4   2   62.67    6.68
   0   4   2   65.09    6.88
  -4   7  -2  168.15   18.92
  -3  -4  -2  161.49   22.43
  -4   7  -2  166.55   20.30
  -3  -4  -2  195.80   20.32
  -7   3   2  195.79   20.41
   3   4   2  167.01   19.14
   3   4   2  198.88   20.02
  -7   3   2  189.76   22.24
  -7   3   2  194.27   20.45
  -5  -3  -2   10.02    2.83
  -3   8  -2    9.03    2.76
  -3   8  -2   11.05    2.64
  -3   8  -2   14.30    2.30
   5   3   2   14.63    2.66
  -8   5   2   11.50    3.01
  -8   5   2   11.67    3.02
  -8   5   2   13.66    2.97
  -5   0  -2  702.59   74.91
   0   5  -2  775.52   74.87
  -5   0  -2  696.17   81.28
   0   5  -2  622.71   70.72
  -5   5   2  765.61   81.06
   5   0   2  644.11   70.50
  -5   5   2  605.40   74.52
  -5   5   2  748.33   75.06
  -5   3  -2   89.45   12.77
  -5   3  -2  110.15   11.88
  -5   3  -2   92.76   11.65
   3   2  -2  103.67   11.08
  -2   5   2   97.10   11.71
  -3  -2   2  112.33   11.82
  -2   5   2  120.43   11.16
  -5   6  -2  260.28   27.31
  -1  -5  -2  228.99   28.84
  -5   6  -2  262.70   29.37
  -5   6  -2  313.89   31.55
   1   5   2  263.43   27.62
  -6   1   2  252.11   31.72
  -6   1   2  243.04   29.19
   1   5   2  295.30   29.07
  -4  -5  -2   42.64    6.66
  -5   9  -2   42.38    6.03
  -5   9  -2   53.20    6.27
  -5   9  -2   40.43    6.73
  -9   4   2   47.80    7.03
  -9   4   2   45.57    6.82
   4   5   2   51.88    6.45
   4   5   2   46.94    6.28
  -9   4   2   38.00    7.14
  -4  10  -2   36.31    5.76
  -4  10  -2   36.01    5.05
  -6  -4  -2   31.52    5.60
  -4  10  -2   27.79    4.58
 -10   6   2   37.32    5.67
 -10   6   2   34.70    6.28
 -10   6   2   26.53    5.43
   6   4   2   37.78    5.26
  -1   7  -2   53.50    6.23
  -6  -1  -2   41.13    6.83
  -1   7  -2   40.92    6.02
  -6  -1  -2   43.78    6.42
   6   1   2   44.51    5.46
  -7   6   2   47.32    6.53
  -7   6   2   52.08    6.90
  -7   6   2   44.10    6.07
  -6   2  -2   30.99    4.41
  -6   2  -2   25.88    4.43
   2   4  -2   31.04    4.01
  -6   2  -2   26.63    3.95
   2   4  -2   30.61    3.95
  -4   6   2   18.97    3.56
  -2  -4   2   34.52    4.00
  -4   6   2   23.72    4.01
  -4   6   2   27.40    3.73
  -4   6   2   21.02    3.15
   5   1  -2  265.00   27.81
  -6   5  -2  264.35   32.09
  -6   5  -2  261.45   29.33
  -6   5  -2  277.06   29.74
  -1   6   2  264.52   28.00
  -5  -1   2  244.96   29.60
  -1   6   2  302.90   29.58
  -2  -6  -2   44.36    7.07
  -6   8  -2   62.14    6.44
  -6   8  -2   61.23    6.17
  -2  -6  -2   55.06    6.83
  -6   8  -2   58.89    7.31
  -6   8  -2   40.01    7.25
  -8   2   2   52.73    7.56
   2   6   2   46.57    6.67
  -8   2   2   58.47    8.54
   2   6   2   52.86    7.15
  -6  11  -2   88.37    8.73
  -6  11  -2   61.26    9.64
  -5  -6  -2   92.81    9.61
  -6  11  -2   55.50    8.86
 -11   5   2   60.34    9.65
 -11   5   2   76.31   11.09
   5   6   2   66.04    8.60
   5   6   2   65.48    9.00
 -11   5   2   81.53    9.50
  -7  -5  -2   -1.14    2.19
  -5  12  -2    3.11    2.64
  -5  12  -2    1.23    2.21
   7   5   2    3.42    2.05
 -12   7   2    1.86    2.40
 -12   7   2    6.26    2.73
 -12   7   2    0.00    2.54
  -2   9  -2   51.09    6.82
  -7  -2  -2   47.67    7.17
  -2   9  -2   57.69    7.55
  -2   9  -2   42.44    6.50
  -9   7   2   50.50    7.54
  -9   7   2   56.25    6.84
  -9   7   2   52.86    7.90
   7   2   2   54.90    6.36
   1   6  -2   47.35    6.20
   1   6  -2   33.74    5.55
  -7   1  -2   50.71    6.73
  -7   1  -2   44.55    6.84
  -6   7   2   38.29    5.26
  -6   7   2   48.91    5.99
   7  -1   2   49.73    5.12
  -6   7   2   47.14    6.50
  -1  -6   2   40.22    5.60
  -1  -6   2   43.91    5.50
   4   3  -2  175.06   19.18
  -7   4  -2  193.73   20.54
  -7   4  -2  199.43   22.33
  -7   4  -2  209.42   20.44
  -3   7   2  222.84   19.35
  -3   7   2  158.83   21.29
  -4  -3   2  157.73   20.23
  -3   7   2  168.41   20.34
   7   0  -2   67.81    7.52
  -7   7  -2   78.12    8.70
  -7   7  -2   62.36    8.81
  -7   7  -2   55.84    7.68
   0   7   2   61.13    8.05
   0   7   2   80.30    8.09
  -7   0   2   71.11    8.64
  -3  -7  -2   19.33    2.96
  -7  10  -2   16.29    3.25
  -7  10  -2    8.33    2.60
  -7  10  -2   11.58    3.38
  -3  -7  -2   13.27    3.28
   3   7   2   16.83    3.44
   3   7   2    9.37    2.76
 -10   3   2   20.36    4.11
  -7  13  -2    2.87    3.03
  -7  13  -2    1.62    2.30
  -6  -7  -2   -0.84    2.39
   6   7   2   -2.55    1.65
 -13   6   2   -1.44    2.45
 -13   6   2    2.53    2.43
   6   7   2    2.55    2.15
  -8  -6  -2   50.61    8.15
  -6  14  -2   48.41    7.47
  -6  14  -2   42.11    7.87
 -14   8   2   48.31    7.99
   8   6   2   46.51    7.17
 -14   8   2   36.09    8.04
   8   6   2   62.65    8.00
  -3  11  -2    1.81    2.40
  -3  11  -2    3.63    2.38
  -8  -3  -2    8.99    3.14
 -11   8   2    7.05    3.32
   8   3   2    3.72    2.08
 -11   8   2   -0.85    1.97
 -11   8   2    5.07    2.81
   0   8  -2  237.85   27.61
  -8   0  -2  248.74   27.86
  -8   0  -2  251.44   30.28
   0   8  -2  225.31   26.19
  -8   8   2  263.17   28.08
  -8   8   2  263.58   27.31
   8   0   2  259.67   25.87
  -8   8   2  245.31   29.85
   0  -8   2  233.71   27.09
  -8   3  -2   18.57    3.53
  -8   3  -2   13.00    3.38
  -8   3  -2   13.98    3.13
   3   5  -2   15.59    3.04
   3   5  -2   11.55    2.69
  -5   8   2   10.35    3.02
  -5   8   2   10.64    2.44
  -5   8   2   15.34    2.87
  -5   8   2   17.44    1.98
  -3  -5   2   11.47    2.81
  -8   6  -2   59.21    7.91
  -8   6  -2   48.43    7.08
   6   2  -2   54.56    6.54
  -8   6  -2   57.39    7.81
  -2   8   2   59.42    6.85
  -2   8   2   52.66    6.97
  -6  -2   2   50.52    7.41
  -8   9  -2   39.14    6.47
  -8   9  -2   37.21    6.53
   9  -1  -2   45.97    5.51
  -8   9  -2   37.96    5.28
  -1  -8  -2   46.16    5.80
   1   8   2   32.01    5.65
  -9   1   2   35.77    6.31
   1   8   2   39.50    6.03
  -8  12  -2    8.98    2.92
  -8  12  -2    6.77    3.43
  -8  12  -2   16.04    3.11
  -4  -8  -2   13.63    3.56
  12  -4  -2    8.61    2.27
   4   8   2    7.48    3.03
   4   8   2    5.74    2.55
 -12   4   2    9.15    3.78
  -7  -8  -2    1.77    3.00
  -8  15  -2    1.18    2.96
  -8  15  -2    1.41    2.52
   7   8   2   -3.13    1.52
 -15   7   2    0.17    2.72
 -15   7   2   -0.67    2.74
   7   8   2    0.60    2.34
  -7  16  -2    2.35    3.38
  -9  -7  -2   -1.21    2.86
  -7  16  -2    1.77    3.46
 -16   9   2    1.88    3.37
   9   7   2   -2.67    2.11
 -16   9   2    6.29    4.00
  -4  13  -2   24.57    5.10
  -9  -4  -2   13.56    4.56
  -4  13  -2   14.91    4.03
   9   4   2   22.10    4.26
 -13   9   2   14.09    4.51
 -13   9   2   14.09    4.59
 -13   9   2   18.93    4.41
  -1  10  -2   17.21    3.59
  -9  -1  -2    8.85    3.27
  -1  10  -2   13.07    3.48
 -10   9   2   12.53    3.69
 -10   9   2    9.33    3.44
   9   1   2   18.17    3.13
 -10   9   2   13.16    2.95
  -9   2  -2   57.30    9.29
   2   7  -2   65.93    7.75
   2   7  -2   54.59    7.58
  -9   2  -2   50.79    8.14
  -7   9   2   53.81    7.79
  -2  -7   2   81.03    7.80
  -7   9   2   63.56    6.91
  -7   9   2   47.75    8.13
   9  -2   2   53.23    6.66
  -9   5  -2   43.77    6.41
  -9   5  -2   49.35    6.39
  -9   5  -2   38.53    6.52
   5   4  -2   55.20    6.21
  -4   9   2   32.39    4.95
  -4   9   2   42.35    5.70
  -5  -4   2   51.75    6.45
  -4   9   2   41.46    6.16
  -9   8  -2   40.79    5.07
  -9   8  -2   44.57    6.27
  -9   8  -2   33.24    5.80
   8   1  -2   36.97    4.98
  -1   9   2   35.77    5.39
  -8  -1   2   31.33    5.47
  -1   9   2   36.40    5.33
  -1   9   2   27.23    4.05
  -9  11  -2   -1.25    1.68
  11  -2  -2   -0.20    1.34
  -9  11  -2    2.20    2.64
 -11   2   2    0.36    2.26
   2   9   2   -0.85    1.85
   2   9   2    2.39    2.13
  -9  14  -2    9.82    3.10
  -9  14  -2    7.71    3.57
  -5  -9  -2    8.09    3.59
   5   9   2    5.86    2.91
 -14   5   2    5.81    3.33
   5   9   2   10.38    3.38
  -9  17  -2    4.50    3.74
  -8  -9  -2   17.39    5.36
  -9  17  -2    3.80    4.28
   8   9   2    8.93    3.74
 -17   8   2    8.97    4.44
  -5  15  -2    5.74    3.53
  -5  15  -2    3.12    3.05
 -10  -5  -2    2.92    3.79
 -15  10   2    5.96    3.38
 -15  10   2    3.62    3.51
  10   5   2    9.88    3.32
 -10  -2  -2   20.39    5.35
  -2  12  -2   21.42    5.10
  -2  12  -2   21.31    4.93
 -12  10   2   33.68    5.20
 -12  10   2   20.93    5.32
  10   2   2   37.80    5.17
 -12  10   2   26.62    5.88
 -10   1  -2   18.85    4.47
   1   9  -2   11.64    3.19
 -10   1  -2   11.25    3.51
   1   9  -2   13.71    3.57
  -1  -9   2   12.51    2.96
  -9  10   2   18.15    3.76
  10  -1   2   16.84    2.93
  -9  10   2   10.60    3.55
  -9  10   2   15.75    2.81
   4   6  -2   24.51    4.70
   4   6  -2   25.46    4.55
 -10   4  -2   24.50    5.49
 -10   4  -2   37.26    5.76
 -10   4  -2   28.58    5.16
  -6  10   2   26.64    5.06
  10  -4   2   32.10    3.96
  -6  10   2   34.62    4.34
  -4  -6   2   27.69    4.87
  -6  10   2   30.68    4.75
 -10   7  -2   15.81    3.74
 -10   7  -2    9.71    2.78
   7   3  -2    9.15    2.66
 -10   7  -2   10.00    3.30
  -7  -3   2   10.79    3.38
  -3  10   2   12.71    2.96
  -3  10   2    7.52    3.02
 -10  10  -2   -0.20    1.99
 -10  10  -2   -1.54    1.34
 -10  10  -2    0.55    2.00
  10   0  -2    1.81    1.68
   0  10   2    0.45    1.71
   0  10   2    1.21    2.19
 -10   0   2   -0.14    2.19
 -10  13  -2    2.34    2.82
  13  -3  -2    2.23    1.97
 -10  13  -2    5.90    2.58
   3  10   2    4.14    2.77
 -13   3   2    1.65    3.15
   3  10   2    6.09    2.61
 -10  16  -2    0.37    3.37
   6  10   2    4.80    3.48
 -16   6   2    5.18    3.58
 -11  -6  -2   -4.73    3.10
  -6  17  -2   -2.17    3.40
  -6  17  -2    1.96    3.65
  11   6   2    1.72    2.95
 -17  11   2   -1.92    3.67
 -17  11   2    3.40    3.77
  -3  14  -2    3.20    3.06
 -11  -3  -2    2.77    3.36
  -3  14  -2    1.11    2.55
 -14  11   2   -0.23    2.74
 -14  11   2    1.38    2.51
  11   3   2   -0.65    1.90
 -11   0  -2   43.98    7.35
   0  11  -2   53.40    7.38
   0  11  -2   43.63    7.00
  11   0   2   47.69    6.42
 -11  11   2   56.64    7.91
 -11  11   2   29.14    6.99
 -11  11   2   36.65    6.02
 -11   3  -2    0.57    2.02
 -11   3  -2    1.03    2.17
   3   8  -2    5.82    2.59
   3   8  -2    2.14    2.20
  -3  -8   2    4.22    2.32
  -8  11   2    3.76    1.89
  11  -3   2    3.26    1.42
  -8  11   2   -0.74    1.99
   6   5  -2   69.41    8.37
 -11   6  -2   57.32   10.18
 -11   6  -2   78.63   10.09
 -11   6  -2   72.32    9.53
  -5  11   2   69.52    8.86
  -5  11   2   59.66    9.40
  -6  -5   2   62.73    9.10
 -11   9  -2    0.24    1.96
   9   2  -2   -1.09    1.59
 -11   9  -2    0.44    2.45
 -11   9  -2   -0.66    2.19
  -2  11   2   -3.24    1.82
  -9  -2   2    0.58    2.43
  -2  11   2    3.21    2.24
 -11  12  -2    3.02    3.01
 -11  12  -2    4.95    2.75
  12  -1  -2    5.66    2.27
   1  11   2    4.06    2.53
 -12   1   2    2.50    3.01
   1  11   2    7.12    3.15
 -11  15  -2    2.69    3.14
   4  11   2    1.05    2.74
   4  11   2    7.81    2.94
 -15   4   2   -0.84    2.85
 -12  -4  -2   -1.59    3.37
  -4  16  -2    2.12    3.36
  -4  16  -2    0.07    3.38
 -16  12   2    1.80    3.57
  12   4   2    0.55    2.39
 -16  12   2    0.13    3.06
 -12  -1  -2    2.05    3.88
  -1  13  -2    1.86    2.91
  -1  13  -2    3.80    2.85
  12   1   2    9.14    2.69
 -13  12   2    7.11    3.50
 -13  12   2    1.87    3.12
   2  10  -2   34.70    5.86
   2  10  -2   37.39    5.83
 -12   2  -2   16.54    5.21
 -10  12   2   34.18    5.63
  12  -2   2   30.36    4.68
  -2 -10   2   34.18    5.45
 -10  12   2   24.18    5.85
   5   7  -2    4.05    2.18
   5   7  -2    2.25    2.40
 -12   5  -2    0.38    2.38
 -12   5  -2    3.99    2.68
 -12   5  -2   -0.16    2.13
  12  -5   2   -0.82    1.11
  -7  12   2   -0.13    2.41
  -7  12   2    1.40    2.21
  -5  -7   2    3.71    2.50
 -12   8  -2    5.77    3.13
 -12   8  -2    9.89    3.77
   8   4  -2    9.68    2.92
 -12   8  -2   10.83    3.35
  -8  -4   2    8.49    3.32
  -4  12   2   15.98    3.83
  -4  12   2   14.47    3.53
 -12  11  -2    2.65    2.27
 -12  11  -2    4.95    3.02
 -12  11  -2   -0.02    2.52
  11   1  -2    6.26    2.46
 -11  -1   2    3.91    3.18
  -1  12   2    9.63    3.42
  -1  12   2    4.30    2.59
 -12  14  -2    1.23    2.75
 -12  14  -2   -1.50    2.39
  14  -2  -2    6.22    2.48
 -14   2   2    5.20    3.50
   2  12   2    3.14    2.45
   2  12   2    0.53    2.85
 -12  17  -2    4.60    4.50
   5  12   2    0.90    3.33
 -17   5   2   -1.30    3.88
  -2  15  -2   -1.63    2.75
 -13  -2  -2   -1.74    3.52
  -2  15  -2    1.90    3.15
  13   2   2   -0.15    2.12
 -15  13   2   -1.49    3.68
   1  12  -2    4.44    2.85
 -13   1  -2    1.90    3.57
   1  12  -2    4.60    3.01
 -12  13   2    2.00    3.43
  13  -1   2    4.87    2.30
 -13   4  -2   21.49    5.38
 -13   4  -2   15.69    5.27
   4   9  -2   24.82    5.00
   4   9  -2   20.23    4.57
  13  -4   2   19.48    3.47
  -4  -9   2   20.38    4.50
  -9  13   2   26.12    5.61
 -13   7  -2    0.37    2.40
   7   6  -2   -1.78    2.03
 -13   7  -2    2.51    2.69
 -13   7  -2    0.60    2.92
  -6  13   2    3.79    2.79
  -6  13   2   -2.05    2.26
  -7  -6   2    0.18    2.41
 -13  10  -2    6.91    3.66
 -13  10  -2    1.63    2.90
  10   3  -2    3.72    2.39
 -13  10  -2    4.35    2.71
  -3  13   2    7.50    3.05
 -10  -3   2    2.71    2.99
  -3  13   2    1.50    2.62
 -13  13  -2    4.71    3.69
 -13  13  -2    1.91    3.12
  13   0  -2   -1.28    1.89
   0  13   2   -2.52    2.17
 -13   0   2   -1.46    2.36
   0  13   2    2.11    2.76
 -13  16  -2    7.51    3.87
 -16   3   2    0.68    3.89
   3  13   2    4.84    3.52
 -14   0  -2   25.28    7.43
   0  14  -2   39.37    7.12
   0  14  -2   38.16    7.13
 -14  14   2   47.17    8.92
  14   0   2   42.48    6.52
   3  11  -2    1.84    2.51
 -14   3  -2   -1.81    2.86
   3  11  -2    1.80    2.62
 -11  14   2   -3.19    2.87
 -14   6  -2   38.63    8.51
   6   8  -2   57.06    7.77
 -14   6  -2   53.83    8.54
   6   8  -2   45.14    7.44
 -14   6  -2   55.24    8.63
  -8  14   2   41.53    7.34
  -8  14   2   44.78    8.02
  -6  -8   2   49.76    8.05
 -14   9  -2   19.18    5.06
 -14   9  -2    6.25    3.31
   9   5  -2   12.19    3.41
 -14   9  -2   11.75    4.27
  -5  14   2    0.59    2.90
  -9  -5   2    8.74    3.97
  -5  14   2    5.71    3.49
 -14  12  -2    5.66    3.74
  12   2  -2    6.02    2.64
 -14  12  -2    0.82    3.61
  -2  14   2    4.21    3.15
  -2  14   2    3.52    3.27
 -12  -2   2    7.39    3.69
 -14  15  -2    9.75    4.60
 -15   1   2    5.65    4.18
   1  14   2    0.57    2.91
   1  14   2    2.46    3.02
   2  13  -2   -1.94    2.49
   2  13  -2   -0.58    2.46
 -15   2  -2   -0.10    3.47
 -13  15   2    1.27    3.07
   5  10  -2    6.37    3.11
   5  10  -2    6.78    3.33
 -15   5  -2    8.00    4.40
  -5 -10   2    6.89    3.62
 -10  15   2    9.76    4.34
 -15   8  -2    2.40    3.07
 -15   8  -2   -2.50    2.52
   8   7  -2   -1.97    2.27
 -15   8  -2   -1.17    2.61
   8   7  -2   -0.55    2.25
  -8  -7   2   -3.72    2.60
  -7  15   2   -2.03    2.36
  -7  15   2    1.04    2.65
 -15  11  -2   -0.75    3.36
 -15  11  -2    0.77    3.15
 -15  11  -2    7.75    3.61
  11   4  -2    8.67    3.32
  -4  15   2    2.12    3.29
 -11  -4   2   14.37    4.74
  -4  15   2    8.01    3.53
 -15  14  -2    1.40    3.59
  14   1  -2    3.47    2.69
 -15  14  -2    6.24    3.78
  -1  15   2    3.63    3.26
  -1  15   2    0.92    3.22
 -14  -1   2    4.44    3.76
 -16   4  -2    0.72    3.56
   4  12  -2    8.01    3.58
   4  12  -2    2.85    2.55
 -12  16   2    1.77    3.48
   7   9  -2   -0.35    2.75
   7   9  -2    2.66    3.07
 -16   7  -2    3.39    3.74
  -9  16   2   -1.69    2.52
  -7  -9   2   -2.15    2.91
  -9  16   2    8.96    3.95
 -16  10  -2    5.26    4.13
  10   6  -2   -0.44    2.33
 -16  10  -2    0.99    3.02
  10   6  -2   -2.47    2.44
 -16  10  -2    0.19    3.13
  -6  16   2   -4.70    2.80
 -10  -6   2    1.18    3.57
  -6  16   2    4.20    3.55
  13   3  -2   -0.06    2.56
 -16  13  -2   -2.47    3.37
 -16  13  -2    2.57    3.89
  -3  16   2   -0.39    2.85
 -13  -3   2   -2.26    4.11
  -3  16   2    5.34    3.60
   6  11  -2    2.44    3.14
 -17   6  -2   -0.33    3.94
 -11  17   2   -3.31    3.28
 -17   9  -2   12.11    5.02
   9   8  -2   16.80    4.54
 -17   9  -2   12.48    4.89
  -8  17   2   11.98    4.50
  -8  17   2    5.14    3.80
  -9  -8   2    7.33    4.27
  12   5  -2   -1.68    2.38
 -17  12  -2    1.18    3.98
  -5  17   2   -1.29    3.33
 -12  -5   2    3.37    4.30
  -5  17   2   -0.33    3.37
  -1   2  -3    4.52    0.84
  -1   2  -3    2.62    0.95
  -1  -1  -3    3.26    1.09
  -1  -1  -3    4.69    1.02
  -1  -1  -3    3.68    1.05
  -2   1   3    3.81    1.10
  -2   1   3    6.59    1.24
   1   1   3    3.94    0.93
  -2   1  -3    3.66    1.02
  -2   1  -3    4.95    1.18
  -2   1  -3    4.32    0.96
  -1   2   3    4.42    1.06
  -1  -1   3    3.70    1.00
  -1   2   3    3.73    1.00
   2  -1   3    3.40    0.49
  -2   4  -3  220.43   25.32
  -2  -2  -3  238.72   28.52
  -2  -2  -3  252.52   25.37
  -2   4  -3  269.09   27.30
  -2   4  -3  198.01   23.75
  -2  -2  -3  246.74   27.34
  -4   2   3  239.94   25.37
  -4   2   3  214.57   27.45
  -4   2   3  220.43   25.38
   2   2   3  213.61   23.86
  -3   0  -3    0.44    1.08
   0   3  -3   -0.58    0.99
   0   3  -3   -0.76    1.07
  -3   0  -3   -0.26    1.24
   0  -3   3   -0.04    0.75
  -3   3   3    0.08    0.92
   3   0   3    0.56    0.70
  -3   3   3   -0.74    1.03
  -3   3   3    0.11    0.92
  -3   3  -3   -0.63    0.82
  -3   3  -3   -0.69    1.04
  -3   3  -3    0.35    0.63
  -3   3  -3    0.19    1.02
   0   3   3    0.40    0.90
   0   3   3    0.01    0.51
   0   3   3   -1.21    0.88
  -3   0   3    0.51    1.24
  -3  -3  -3   67.73    7.94
  -3   6  -3   53.32    7.84
  -3   6  -3   75.32    8.13
  -3  -3  -3   77.19    8.62
  -3   6  -3   63.33    7.22
  -6   3   3   64.54    8.63
   3   3   3   51.55    7.21
  -6   3   3   62.91    7.93
  -6   3   3   58.49    7.95
  -4  -1  -3   43.50    6.36
  -4  -1  -3   45.18    5.97
  -1   5  -3   58.58    6.12
  -5   4   3   52.40    6.14
  -5   4   3   50.27    5.91
   1  -5   3   38.11    5.30
   4   1   3   53.61    5.50
  -5   4   3   60.59    6.59
  -4   2  -3  229.45   27.49
  -4   2  -3  235.76   25.23
   2   2  -3  240.58   23.86
  -4   2  -3  226.29   25.21
  -2   4   3  240.06   25.27
  -2  -2   3  225.72   25.19
  -2   4   3  217.99   23.83
  -4   5  -3   58.34    7.37
  -4   5  -3   53.37    6.81
  -1  -4  -3   81.30    7.32
  -4   5  -3   53.93    6.55
  -4   5  -3   59.20    7.75
   1   4   3   72.25    7.13
  -5   1   3   59.67    7.50
   1   4   3   55.46    6.91
  -4   8  -3   11.85    2.28
  -4   8  -3   13.44    2.90
  -4   8  -3   10.58    2.23
  -4  -4  -3    8.09    2.55
  -8   4   3   11.63    2.95
  -8   4   3    8.10    2.91
  -8   4   3   12.31    3.07
   4   4   3    8.16    2.30
  -2   7  -3   63.96    7.03
  -5  -2  -3   54.94    7.53
  -5  -2  -3   63.19    8.06
  -2   7  -3   53.43    7.48
  -2   7  -3   43.46    7.43
  -7   5   3   58.75    7.32
  -7   5   3   58.75    8.12
  -7   5   3   65.93    7.74
   5   2   3   73.98    7.01
   1   4  -3   58.31    6.13
  -5   1  -3   56.08    6.56
  -5   1  -3   55.67    6.25
  -5   1  -3   55.12    7.11
   1   4  -3   48.43    6.27
  -4   5   3   55.84    6.00
   5  -1   3   54.21    5.60
  -4   5   3   44.46    5.94
  -4   5   3   49.62    6.38
  -4   5   3   50.75    6.54
  -1  -4   3   38.86    5.99
   4   1  -3   53.98    6.49
  -5   4  -3   52.30    7.61
  -5   4  -3   54.35    6.85
  -5   4  -3   63.23    7.18
  -4  -1   3   63.37    7.24
  -1   5   3   65.24    7.03
  -1   5   3   56.96    6.72
  -5   7  -3  174.23   24.42
  -5   7  -3  233.59   23.18
  -2  -5  -3  176.67   25.34
  -5   7  -3  191.74   21.32
  -2  -5  -3  256.15   22.92
  -5   7  -3  187.90   22.15
   2   5   3  219.44   21.72
  -7   2   3  198.29   22.96
  -7   2   3  203.52   24.97
  -7   2   3  228.88   23.09
   2   5   3  229.50   22.66
  -5  10  -3    4.93    1.98
  -5  10  -3    3.77    2.21
  -5  10  -3    3.13    1.61
  -5  -5  -3    5.00    2.53
   5   5   3    3.69    1.81
   5   5   3    2.18    1.87
 -10   5   3    3.93    2.42
 -10   5   3   -1.39    2.08
 -10   5   3    3.38    2.58
  -3   9  -3    3.02    1.79
  -3   9  -3    0.25    1.05
  -6  -3  -3    4.11    2.21
  -3   9  -3   -1.18    1.82
  -9   6   3    0.45    1.79
  -9   6   3    0.72    1.99
  -9   6   3   -1.05    1.69
   6   3   3    1.08    1.52
  -6   0  -3    2.00    1.83
  -6   0  -3   -0.31    1.62
   0   6  -3   -1.10    1.37
   0   6  -3    1.48    1.65
   6   0   3   -0.39    0.94
  -6   6   3   -0.89    1.09
   0  -6   3   -0.15    0.92
  -6   6   3   -2.45    1.22
  -6   6   3    1.52    1.54
  -6   3  -3   61.16    7.35
  -6   3  -3   60.50    8.10
   3   3  -3   55.77    6.87
  -6   3  -3   61.59    7.37
  -3   6   3   74.80    7.25
  -3   6   3   46.72    6.60
  -3  -3   3   55.35    7.24
  -3   6   3   64.43    7.40
  -3   6   3   58.49    6.85
  -6   6  -3    0.21    1.45
  -6   6  -3   -0.20    1.08
  -6   6  -3    0.36    1.51
  -6   0   3    1.52    1.66
   0   6   3   -1.24    1.14
   0   6   3   -2.12    1.33
  -3  -6  -3   51.33    7.09
  -6   9  -3   69.70    7.17
  -6   9  -3   44.89    7.31
  -3  -6  -3   39.34    6.80
  -6   9  -3   53.04    6.23
  -9   3   3   55.63    7.64
   3   6   3   46.70    6.85
   3   6   3   52.67    6.49
  -9   3   3   49.03    7.27
  -6  12  -3    7.90    2.33
  -6  12  -3    6.97    2.71
  -6  12  -3   12.77    3.60
  -6  -6  -3   10.68    3.56
 -12   6   3   10.86    3.58
 -12   6   3    7.48    3.15
   6   6   3    7.59    2.90
   6   6   3    9.75    2.72
  -4  11  -3  115.28   11.89
  -7  -4  -3  104.72   12.39
  -4  11  -3   88.91   11.15
  -4  11  -3   84.32   11.98
 -11   7   3   84.44   12.89
 -11   7   3   75.32   12.37
   7   4   3   90.29   11.07
 -11   7   3  100.33   11.97
  -1   8  -3   28.90    5.08
  -7  -1  -3   32.45    5.84
  -1   8  -3   29.30    4.91
  -7  -1  -3   34.59    5.40
  -8   7   3   39.08    5.87
  -8   7   3   40.44    5.80
  -8   7   3   30.85    4.83
   7   1   3   30.98    4.51
  -7   2  -3   58.14    6.85
   2   5  -3   50.85    6.71
  -7   2  -3   61.03    7.16
  -7   2  -3   61.31    7.65
   2   5  -3   41.69    6.50
  -5   7   3   66.31    6.60
  -5   7   3   49.01    6.83
  -2  -5   3   50.25    6.58
  -5   7   3   50.04    6.23
   7  -2   3   54.44    5.91
  -5   7   3   56.68    7.02
  -7   5  -3  189.75   21.96
   5   2  -3  203.07   20.60
  -7   5  -3  228.61   21.84
  -7   5  -3  202.28   23.89
  -5  -2   3  187.91   21.93
  -2   7   3  192.27   20.66
  -2   7   3  165.62   21.69
  -1  -7  -3   -3.27    1.22
  -7   8  -3    1.14    1.67
  -7   8  -3   -1.50    0.96
  -7   8  -3    2.09    2.01
   1   7   3   -0.13    1.29
   1   7   3   -0.33    1.59
  -8   1   3   -0.51    1.79
  -7  11  -3  135.20   15.24
  -7  11  -3  115.61   14.86
  -4  -7  -3  117.18   14.50
  -7  11  -3  114.68   13.43
 -11   4   3  123.91   14.81
   4   7   3  137.27   14.22
   4   7   3   95.96   13.56
  -7  14  -3   -3.88    2.44
  -7  14  -3    1.74    2.77
  -7  -7  -3   -2.76    2.24
   7   7   3   -4.41    1.62
 -14   7   3    0.65    2.80
   7   7   3   -2.19    2.05
 -14   7   3   -1.20    2.92
  -5  13  -3   17.14    4.57
  -5  13  -3   24.24    4.49
  -8  -5  -3   13.65    4.49
 -13   8   3   17.47    4.88
 -13   8   3   18.66    4.62
   8   5   3   19.63    4.24
  -8  -2  -3    6.98    2.98
  -2  10  -3    6.68    2.61
  -2  10  -3    6.21    2.28
  -2  10  -3    8.83    2.97
 -10   8   3    8.52    3.10
 -10   8   3   13.72    3.09
 -10   8   3   13.26    3.58
   8   2   3    7.85    2.41
  -8   1  -3   30.53    5.82
   1   7  -3   29.12    4.65
   1   7  -3   25.34    4.68
  -8   1  -3   32.67    5.27
  -7   8   3   30.79    4.36
  -1  -7   3   35.25    4.69
  -7   8   3   31.03    5.04
   8  -1   3   33.30    4.27
  -7   8   3   33.52    5.29
   4   4  -3    2.45    1.98
  -8   4  -3    9.33    2.62
  -8   4  -3   11.81    2.64
  -8   4  -3    9.32    3.02
  -4   8   3   12.99    1.80
  -4   8   3   10.35    2.39
  -4   8   3    8.16    1.31
  -4  -4   3   14.05    2.77
  -4   8   3    7.73    2.48
  -8   7  -3   -0.26    1.34
   7   1  -3   -1.06    1.13
  -8   7  -3   -0.38    1.62
  -8   7  -3    0.25    1.89
  -7  -1   3    1.85    1.80
  -1   8   3    1.71    1.45
  -1   8   3   -1.10    1.53
  -8  10  -3    0.00    0.96
  -8  10  -3   -1.70    1.95
  -8  10  -3   -0.03    1.72
  10  -2  -3   -0.46    1.23
  -2  -8  -3   -0.33    1.47
   2   8   3    1.52    1.64
   2   8   3   -1.63    1.69
 -10   2   3   -3.90    1.79
  -8  13  -3    7.47    2.72
  -5  -8  -3    4.61    3.20
  -8  13  -3    8.00    3.34
 -13   5   3    6.22    3.18
   5   8   3    2.05    2.32
   5   8   3   10.75    3.03
  -8  16  -3    9.33    3.56
  -8  16  -3    1.47    3.50
  -8  -8  -3   -1.04    3.11
 -16   8   3   -2.52    2.99
   8   8   3   -0.26    2.26
 -16   8   3   -5.44    2.55
  -9  -6  -3    3.47    3.30
  -6  15  -3    9.65    4.12
  -6  15  -3    9.86    3.71
 -15   9   3    9.30    3.89
   9   6   3    3.41    2.88
 -15   9   3    8.50    4.12
  -3  12  -3    1.36    2.43
  -3  12  -3   -1.76    1.87
  -9  -3  -3    3.38    3.20
 -12   9   3   -0.29    2.24
   9   3   3   -0.66    1.94
 -12   9   3   -0.11    1.93
 -12   9   3   -2.15    2.50
   0   9  -3   -1.49    1.57
  -9   0  -3    1.13    2.21
   0   9  -3    1.14    2.00
  -9   0  -3   -0.61    2.07
  -9   9   3   -0.55    1.74
  -9   9   3    0.67    1.83
  -9   9   3   -0.89    1.37
   0  -9   3   -2.21    1.17
   9   0   3   -1.37    1.10
  -9   3  -3   -1.26    1.78
  -9   3  -3    0.18    1.70
  -9   3  -3   -0.55    2.03
   3   6  -3    0.67    1.54
   3   6  -3    0.05    1.64
   9  -3   3    0.24    0.90
  -6   9   3   -1.62    1.07
  -3  -6   3    1.37    1.74
  -6   9   3    1.01    0.78
  -6   9   3    1.24    2.02
  -6   9   3    3.29    1.82
  -9   6  -3   42.41    6.81
  -9   6  -3   55.99    7.66
  -9   6  -3   50.28    8.02
   6   3  -3   48.09    6.67
  -6  -3   3   51.00    7.15
  -3   9   3   55.04    6.87
  -3   9   3   54.26    7.30
  -9   9  -3    1.50    2.20
   9   0  -3   -2.38    1.12
  -9   9  -3   -0.58    1.81
  -9   9  -3   -2.20    1.21
   0   9   3    0.27    1.48
  -9   0   3    2.43    2.42
   0   9   3    1.11    1.67
  -9  12  -3   34.10    5.71
  12  -3  -3   28.14    4.57
  -9  12  -3   29.80    6.16
   3   9   3   25.82    5.23
   3   9   3   35.50    5.40
 -12   3   3   29.41    6.01
  -6  -9  -3    2.17    3.21
  -9  15  -3    3.57    2.78
  -9  15  -3    0.37    2.74
   6   9   3    3.28    2.55
   6   9   3    1.70    2.39
 -15   6   3    3.05    3.22
 -10  -7  -3    7.59    4.42
  -7  17  -3    2.95    4.06
  -7  17  -3    6.76    3.87
 -17  10   3    3.78    4.18
  10   7   3    1.09    2.86
 -17  10   3    5.40    3.89
  -4  14  -3   -0.51    2.51
  -4  14  -3    0.20    2.92
 -10  -4  -3    4.11    3.28
  10   4   3    5.17    2.44
 -14  10   3    3.82    3.02
 -14  10   3    8.80    4.32
  -1  11  -3   19.28    4.61
  -1  11  -3   27.48    5.24
 -10  -1  -3   22.52    5.06
 -11  10   3   24.08    5.54
 -11  10   3   34.67    4.98
 -11  10   3   25.17    5.34
  10   1   3   26.23    4.46
   2   8  -3    8.48    2.85
   2   8  -3    7.32    2.62
 -10   2  -3    8.24    2.96
 -10   2  -3   14.00    3.94
  -8  10   3    7.30    2.35
  -8  10   3    6.54    2.95
  10  -2   3    8.88    1.98
  -2  -8   3   12.48    2.80
  -8  10   3    5.69    1.65
 -10   5  -3    2.77    2.10
   5   5  -3    3.46    2.12
 -10   5  -3    4.28    2.71
 -10   5  -3    2.47    2.07
  -5  10   3    4.54    1.24
  -5  10   3    1.45    1.83
  -5  10   3    2.41    2.13
  -5  -5   3    0.42    1.92
 -10   8  -3    0.28    2.04
 -10   8  -3   -1.62    1.43
 -10   8  -3    0.35    2.03
   8   2  -3    0.23    1.55
  -8  -2   3   -0.98    1.71
  -2  10   3   -1.81    1.64
  -2  10   3    0.38    1.71
 -10  11  -3   45.35    6.33
 -10  11  -3   44.38    7.91
 -10  11  -3   65.46    9.04
  11  -1  -3   55.85    6.98
   1  10   3   41.60    7.14
 -11   1   3   63.75    8.69
   1  10   3   65.98    8.27
  14  -4  -3    8.86    2.62
 -10  14  -3    6.22    3.95
   4  10   3    7.24    3.32
 -14   4   3   11.44    4.17
   4  10   3   12.56    3.33
 -10  17  -3   18.67    5.76
 -17   7   3   16.34    5.68
   7  10   3    9.29    4.31
 -11  -5  -3   -1.55    3.13
  -5  16  -3    1.45    3.42
  -5  16  -3   -0.28    3.27
  11   5   3    1.50    2.72
 -16  11   3   -0.10    2.90
 -16  11   3    0.09    3.63
  -2  13  -3   23.26    4.95
  -2  13  -3   22.56    4.93
 -11  -2  -3   23.36    5.71
 -13  11   3   10.23    3.57
 -13  11   3   20.20    5.35
  11   2   3   19.33    4.22
   1  10  -3   28.75    5.14
 -11   1  -3   24.57    5.37
   1  10  -3   30.91    5.41
  11  -1   3   26.90    4.35
  -1 -10   3   29.99    4.70
 -10  11   3   34.25    5.57
 -10  11   3   19.73    5.21
 -10  11   3   30.35    4.44
 -11   4  -3  107.06   12.43
 -11   4  -3   91.64   13.50
   4   7  -3   92.46   11.79
   4   7  -3   80.27   11.31
 -11   4  -3   90.73   12.06
  11  -4   3  100.05   10.55
  -7  11   3   93.59   11.38
  -7  11   3  114.27   12.22
  -4  -7   3   94.44   11.91
  -7  11   3   95.48   12.20
 -11   7  -3  102.69   15.86
 -11   7  -3  120.90   14.55
 -11   7  -3  137.10   15.19
   7   4  -3  129.10   13.87
  -7  -4   3  109.44   14.65
  -4  11   3  129.91   13.95
  -4  11   3  127.84   14.80
 -11  10  -3   53.64    9.27
  10   1  -3   57.99    8.15
 -11  10  -3   76.19    8.21
 -11  10  -3   56.12    9.51
  -1  11   3   68.92    9.04
 -10  -1   3   51.87    9.04
  -1  11   3   60.03    8.78
 -11  13  -3   39.68    7.58
 -11  13  -3   37.97    7.67
  13  -2  -3   55.30    6.87
 -13   2   3   52.22    8.60
   2  11   3   51.59    7.52
   2  11   3   41.11    7.16
 -11  16  -3    3.37    3.86
   5  11   3    2.69    3.04
 -16   5   3    3.13    3.46
  -3  15  -3   -3.53    2.68
 -12  -3  -3    4.34    3.98
  -3  15  -3    6.27    3.58
 -15  12   3    8.52    3.36
  12   3   3    9.61    3.21
 -15  12   3   15.44    5.20
 -12   0  -3    0.62    2.74
   0  12  -3    4.87    2.88
   0  12  -3   -1.40    2.24
  12   0   3    0.96    1.80
 -12  12   3    1.23    2.84
 -12   3  -3   -0.21    2.59
   3   9  -3   -1.62    1.91
   3   9  -3    0.86    2.05
 -12   3  -3   -2.26    2.42
  -9  12   3    1.64    1.80
  -9  12   3    0.95    2.16
  -3  -9   3   -0.40    1.82
  12  -3   3    1.14    1.52
 -12   6  -3   16.51    3.99
 -12   6  -3   12.69    3.82
   6   6  -3    7.71    2.94
 -12   6  -3    6.19    3.60
   6   6  -3   11.74    3.39
  -6  -6   3    6.18    3.11
  -6  12   3    5.95    2.71
  12  -6   3   12.36    2.10
  -6  12   3    7.40    3.04
 -12   9  -3   31.47    5.43
   9   3  -3   34.02    5.35
 -12   9  -3   27.56    6.14
 -12   9  -3   23.97    5.84
  -3  12   3   33.47    5.68
  -9  -3   3   24.39    5.54
  -3  12   3   41.15    6.25
  12   0  -3    0.47    1.79
 -12  12  -3    2.50    2.78
 -12  12  -3   -0.08    2.76
   0  12   3   -1.80    2.04
 -12   0   3    0.13    2.61
   0  12   3   -0.17    2.17
 -12  15  -3   17.39    5.30
 -15   3   3   13.71    5.06
   3  12   3   36.50    5.46
   3  12   3   16.65    4.90
  -4  17  -3    5.29    4.02
  13   4   3    4.66    3.27
  -1  14  -3    2.25    2.94
  -1  14  -3    2.23    3.21
 -13  -1  -3    0.98    3.39
  13   1   3   -0.33    1.73
 -14  13   3   -2.56    2.39
 -13   2  -3   15.81    4.71
   2  11  -3   11.82    4.05
   2  11  -3   13.25    3.81
 -11  13   3   16.25    4.60
  13  -2   3   21.92    3.63
 -13   5  -3   18.45    5.53
   5   8  -3   24.36    4.45
 -13   5  -3   18.99    5.12
 -13   5  -3   19.12    4.77
   5   8  -3   16.41    4.18
  -5  -8   3   17.04    4.64
  -8  13   3   37.66    5.38
  -8  13   3   14.43    4.67
 -13   8  -3    6.08    3.56
   8   5  -3    8.02    2.96
 -13   8  -3    3.73    3.35
 -13   8  -3    8.31    3.37
  -8  -5   3    5.91    3.20
  -5  13   3    9.81    3.42
  -5  13   3    5.92    2.93
 -13  11  -3   41.51    8.04
 -13  11  -3   44.33    6.73
 -13  11  -3   48.57    8.37
  11   2  -3   46.82    6.76
 -11  -2   3   34.30    7.05
  -2  13   3   35.81    7.02
  -2  13   3   44.22    7.32
  14  -1  -3   -2.30    1.91
 -13  14  -3    5.37    3.72
 -13  14  -3   -0.60    2.87
   1  13   3    1.10    2.61
   1  13   3    4.12    2.63
 -14   1   3   -1.65    2.71
 -13  17  -3   -0.44    4.09
 -17   4   3   -2.23    4.04
  -2  16  -3    2.61    3.56
 -14  -2  -3    3.72    4.19
  -2  16  -3   -2.98    3.06
  14   2   3   -0.36    2.58
 -16  14   3   -4.39    3.21
 -14   1  -3   -2.04    3.14
   1  13  -3    1.55    2.50
   1  13  -3    2.82    3.18
  14  -1   3    3.09    2.55
 -13  14   3   -1.80    3.11
 -14   4  -3    5.38    3.89
   4  10  -3    3.70    2.84
   4  10  -3    1.74    2.70
 -10  14   3   -0.65    3.04
  -4 -10   3    1.99    2.75
   7   7  -3    0.12    2.30
 -14   7  -3    3.53    3.31
 -14   7  -3   -2.14    2.53
 -14   7  -3    1.38    3.02
   7   7  -3   -0.57    2.29
  -7  14   3    0.96    2.27
  -7  14   3    4.04    2.83
  -7  -7   3    0.75    2.82
 -14  10  -3   10.26    3.80
 -14  10  -3   16.12    5.01
  10   4  -3   14.23    3.87
 -14  10  -3    9.34    4.24
 -10  -4   3   14.71    4.41
  -4  14   3   10.66    3.87
  -4  14   3    7.12    3.53
  13   1  -3    5.59    2.74
 -14  13  -3    0.81    3.21
 -14  13  -3   -0.14    3.27
 -13  -1   3    4.03    3.58
  -1  14   3   -0.38    2.55
  -1  14   3   -0.34    2.55
 -14  16  -3    1.43    3.74
   2  14   3   -0.41    3.29
 -16   2   3   -0.94    3.15
 -15   0  -3   -1.21    3.22
   0  15  -3   -0.17    3.20
   0  15  -3    4.52    3.54
 -15  15   3   -2.93    3.53
   3  12  -3    7.33    3.43
   3  12  -3    2.79    3.00
 -15   3  -3    4.14    4.23
 -12  15   3    3.82    3.55
   6   9  -3   13.71    3.88
 -15   6  -3   11.96    4.69
   6   9  -3    6.36    3.51
 -15   6  -3    7.67    4.44
  -6  -9   3   15.40    4.43
  -9  15   3    8.60    3.87
 -15   9  -3    0.59    2.78
 -15   9  -3    0.40    3.20
   9   6  -3    1.53    2.59
 -15   9  -3    0.62    3.01
  -6  15   3    2.18    3.15
  -6  15   3    3.37    2.89
  -9  -6   3   -0.36    3.05
 -15  12  -3   23.33    6.27
  12   3  -3   22.84    4.90
 -15  12  -3   16.94    5.43
 -12  -3   3   11.46    4.96
  -3  15   3   32.23    5.99
  -3  15   3   11.84    4.57
  15   0  -3   -1.57    2.39
 -15  15  -3    4.59    4.50
   0  15   3    2.85    3.65
 -15   0   3    3.35    4.38
   0  15   3    1.83    3.01
   2  14  -3    4.98    3.43
   2  14  -3   -2.11    2.59
 -16   2  -3   -3.02    3.83
 -14  16   3    2.06    3.69
   5  11  -3   -0.39    2.53
 -16   5  -3    2.93    3.78
   5  11  -3    3.05    3.19
 -11  16   3    3.97    3.79
 -16   8  -3    1.34    3.44
 -16   8  -3   -4.09    3.06
 -16   8  -3    3.33    3.25
   8   8  -3   -2.64    2.42
   8   8  -3   -5.26    2.24
  -8  -8   3   -3.12    2.66
  -8  16   3    4.60    3.44
  -8  16   3   -0.97    2.88
 -16  11  -3    5.04    3.88
 -16  11  -3    0.17    3.53
  11   5  -3    0.99    2.57
 -16  11  -3    3.25    3.46
  -5  16   3    3.90    3.60
 -11  -5   3   -2.22    3.08
  -5  16   3    3.63    3.77
 -16  14  -3    9.04    4.86
  14   2  -3    0.45    2.92
 -16  14  -3    7.33    4.38
  -2  16   3    1.56    3.47
 -14  -2   3    0.37    4.29
  -2  16   3    3.07    3.76
   4  13  -3   -1.80    3.16
 -13  17   3   13.53    5.23
   7  10  -3   10.68    4.35
 -17   7  -3    4.32    4.43
   7  10  -3    3.54    2.98
  -7 -10   3    4.13    4.13
 -10  17   3    2.24    3.75
  10   7  -3   16.51    4.71
 -17  10  -3   11.82    5.03
 -17  10  -3   25.74    6.42
  -7  17   3   24.86    5.87
  -7  17   3   11.73    5.09
 -10  -7   3   18.62    5.53
  13   4  -3   11.78    4.09
 -17  13  -3    4.84    5.05
  -4  17   3   10.55    4.79
  -1   0  -4  367.63   42.64
  -1   0  -4  373.01   37.44
  -1   0  -4  347.53   40.77
   0   1  -4  315.37   42.46
   1   0   4  319.97   35.46
   1   0   4  334.03   37.43
  -1   1   4  392.74   37.61
  -1   3  -4  331.99   35.80
  -2  -1  -4  382.84   43.01
  -2  -1  -4  361.13   37.99
  -1   3  -4  320.05   37.95
  -2  -1  -4  332.73   41.11
  -3   2   4  324.81   38.01
  -3   2   4  369.08   37.96
   2   1   4  383.12   35.83
  -2   2  -4    0.44    0.82
  -2   2  -4    0.34    0.40
   0  -2  -4   -0.17    0.49
  -2   2  -4   -0.06    0.79
  -2   0   4   -0.32    0.87
   0   2   4    1.25    0.53
   0   2   4    0.46    0.74
   0   2   4    0.61    0.61
  -2   5  -4   54.70    6.97
  -3  -2  -4   65.08    8.39
  -3  -2  -4   70.13    7.80
  -2   5  -4   63.95    7.60
  -3  -2  -4   59.02    8.08
  -2   5  -4   66.79    7.96
  -5   3   4   70.00    7.77
  -5   3   4   53.57    8.18
   3   2   4   61.22    7.07
  -5   3   4   74.41    7.74
  -3   1  -4  371.02   39.06
  -3   1  -4  360.79   42.53
   1   2  -4  400.41   37.03
  -3   1  -4  338.98   39.14
  -2   3   4  371.19   39.18
  -2   3   4  384.72   37.06
   3  -1   4  317.65   36.72
  -3   4  -4    9.19    2.22
  -3   4  -4   15.93    1.97
  -1  -3  -4   14.48    2.40
  -3   4  -4   13.42    2.52
  -1  -3  -4   15.54    2.20
   1   3   4   10.79    2.23
   1   3   4   13.42    1.99
  -4   1   4   14.26    2.60
  -3   7  -4   12.62    2.33
  -4  -3  -4   11.18    2.60
  -4  -3  -4   14.42    3.04
  -3   7  -4    9.27    2.48
  -4  -3  -4   10.30    2.49
  -3   7  -4    9.94    2.22
   4   3   4   14.54    2.51
  -7   4   4   10.17    2.65
  -7   4   4   12.95    2.95
  -7   4   4   12.00    3.00
  -4   0  -4   30.49    4.56
   0   4  -4   32.48    4.55
   0   4  -4   32.94    4.28
  -4   0  -4   31.63    4.90
  -4   4   4   29.62    4.54
  -4   4   4   36.41    4.58
  -4   4   4   31.70    4.16
   0  -4   4   40.42    3.99
   4   0   4   25.28    3.73
  -4   3  -4    9.73    1.99
  -4   3  -4    8.95    2.05
  -4   3  -4    8.36    2.29
  -3  -1   4   12.94    2.38
  -1   4   4    7.67    1.89
  -1   4   4   13.29    2.09
   4  -3   4   10.64    1.25
  -2  -4  -4    0.35    1.30
  -4   6  -4    0.31    1.35
  -4   6  -4    0.19    1.16
  -4   6  -4    0.43    0.93
  -2  -4  -4    0.09    1.25
   2   4   4    0.32    0.97
  -6   2   4    1.36    1.53
  -6   2   4   -0.03    1.58
   2   4   4    0.05    1.32
  -4   9  -4    2.64    1.71
  -5  -4  -4    1.39    1.93
  -4   9  -4    3.11    1.99
  -4   9  -4    0.65    1.29
   5   4   4    0.58    1.53
  -9   5   4   -0.39    1.65
  -9   5   4    0.36    1.75
  -9   5   4    0.49    1.68
  -5  -1  -4  227.84   27.60
  -5  -1  -4  240.73   25.53
  -6   5   4  253.50   25.69
   5   1   4  252.48   23.89
  -6   5   4  199.60   27.39
   1  -6   4  210.56   24.76
  -6   5   4  238.72   25.32
   2   3  -4   44.62    7.11
  -5   2  -4   61.79    7.81
  -5   2  -4   60.29    6.90
  -5   2  -4   59.06    7.02
  -3   5   4   68.36    7.06
   5  -2   4   49.30    5.99
  -3   5   4   69.57    7.16
  -3   5   4   67.42    6.54
  -3   5   4   63.18    6.62
  -2  -3   4   55.75    6.81
  -5   5  -4  182.01   22.72
  -5   5  -4  190.94   23.17
  -5   5  -4  200.94   24.95
   0   5   4  231.75   22.93
  -5   0   4  226.69   23.23
   0   5   4  225.61   21.92
  -3  -5  -4  172.73   24.06
  -5   8  -4  218.51   22.05
  -5   8  -4  172.32   23.14
  -5   8  -4  203.29   20.31
  -3  -5  -4  231.86   21.87
  -8   3   4  188.47   21.88
  -8   3   4  215.57   22.06
   3   5   4  183.56   21.34
   3   5   4  179.74   20.54
  -6  -5  -4   17.75    4.42
  -5  11  -4   19.15    3.87
  -5  11  -4   22.66    4.80
  -5  11  -4   29.10    3.95
   6   5   4   19.13    4.00
 -11   6   4   16.23    4.31
 -11   6   4   22.77    4.76
   6   5   4   19.62    3.70
  -2   8  -4    0.96    1.60
  -2   8  -4   -0.76    1.38
  -2   8  -4   -2.05    1.35
  -6  -2  -4   -1.71    1.67
  -6  -2  -4   -1.46    1.37
  -8   6   4    0.70    1.47
   6   2   4   -1.68    1.06
  -8   6   4   -0.26    1.67
  -8   6   4    0.16    1.97
  -6   1  -4  218.91   24.21
  -6   1  -4  213.96   26.29
  -6   1  -4  225.79   24.00
   1   5  -4  210.27   24.12
  -5   6   4  190.23   24.15
   6  -1   4  210.35   22.39
  -1  -5   4  264.84   23.90
  -5   6   4  229.52   25.87
  -5   6   4  190.95   23.67
   4   2  -4    1.40    1.28
  -6   4  -4    0.15    1.20
  -6   4  -4   -1.86    1.30
  -6   4  -4   -0.04    1.68
  -2   6   4    1.19    1.32
  -4  -2   4    1.67    1.56
  -2   6   4    1.43    1.35
  -6   7  -4   41.83    4.13
  -6   7  -4   27.18    4.91
  -6   7  -4   25.95    4.03
  -6   7  -4   27.87    4.95
  -7   1   4   36.83    5.19
   1   6   4   31.49    4.56
   1   6   4   35.72    4.77
  -4  -6  -4    3.13    1.62
  -6  10  -4    1.19    2.22
  -6  10  -4    3.89    1.93
  -6  10  -4    1.03    1.64
  -4  -6  -4   -0.48    1.87
 -10   4   4    4.30    2.39
   4   6   4    3.61    1.98
 -10   4   4    3.92    2.50
   4   6   4    2.95    1.66
  -7  -6  -4   11.16    3.73
  -6  13  -4   19.65    3.98
  -6  13  -4    7.49    3.68
 -13   7   4    9.50    3.76
   7   6   4   14.78    3.34
 -13   7   4    9.80    4.12
   7   6   4   16.60    3.68
  -3  10  -4    6.05    1.59
  -3  10  -4    2.92    2.28
  -7  -3  -4    2.11    2.44
  -3  10  -4    3.42    2.15
 -10   7   4    2.25    2.24
 -10   7   4    0.45    1.85
   7   3   4    3.94    1.93
 -10   7   4    0.81    2.40
  -7   0  -4   11.62    3.09
  -7   0  -4    6.22    2.56
   0   7  -4    6.66    2.31
   0   7  -4    9.47    2.37
  -7   7   4   10.05    2.49
  -7   7   4    8.97    2.15
   7   0   4    9.35    1.92
   0  -7   4    7.50    1.82
  -7   7   4    4.34    2.27
  -7   3  -4   11.55    2.73
  -7   3  -4   15.52    3.00
  -7   3  -4    7.57    2.67
   3   4  -4    7.15    2.13
  -4   7   4   12.16    2.49
  -3  -4   4    8.48    2.39
  -4   7   4   10.48    1.95
  -4   7   4   15.82    1.91
  -4   7   4   10.50    2.68
   7  -3   4   10.20    1.62
  -7   6  -4   30.48    4.98
  -7   6  -4   24.13    4.98
   6   1  -4   27.96    4.21
  -7   6  -4   29.51    4.39
  -6  -1   4   32.98    5.05
  -1   7   4   31.48    4.54
  -1   7   4   37.39    4.83
  -7   9  -4   33.02    5.56
  -2  -7  -4   36.20    5.53
  -2  -7  -4   34.96    5.38
  -7   9  -4   40.75    6.19
  -7   9  -4   36.26    4.80
   2   7   4   30.06    5.19
  -9   2   4   35.13    5.95
   2   7   4   30.28    5.06
  -7  12  -4   38.60    6.15
  -7  12  -4   40.01    6.48
  -7  12  -4   38.56    6.96
  -5  -7  -4   49.19    7.26
 -12   5   4   40.77    7.25
   5   7   4   50.66    6.97
   5   7   4   45.15    6.33
 -12   5   4   36.43    6.82
  -7  15  -4    4.47    3.04
  -8  -7  -4   -0.41    2.95
  -7  15  -4    0.09    3.29
 -15   8   4   -0.69    2.85
 -15   8   4    1.90    3.37
   8   7   4    3.22    2.75
  -4  12  -4    3.65    2.44
  -4  12  -4    1.43    2.54
  -8  -4  -4   -2.19    2.47
 -12   8   4    1.06    2.18
   8   4   4    0.81    1.88
 -12   8   4    1.84    2.36
  -1   9  -4  133.94   14.58
  -8  -1  -4  136.86   16.83
  -8  -1  -4  115.45   15.44
  -1   9  -4  116.41   15.26
  -9   8   4  133.23   15.74
  -9   8   4  134.60   15.03
   8   1   4  134.54   14.19
  -9   8   4  132.72   16.48
  -8   2  -4    0.87    1.78
   2   6  -4   -1.76    1.30
   2   6  -4   -0.31    1.46
  -8   2  -4   -0.49    1.38
  -8   2  -4    0.12    1.59
   8  -2   4    0.44    0.86
  -6   8   4   -0.87    0.96
  -6   8   4    0.16    1.31
  -6   8   4   -0.97    1.73
  -2  -6   4   -1.24    1.40
   5   3  -4  173.91   18.49
  -8   5  -4  182.42   19.78
  -8   5  -4  169.83   21.50
  -8   5  -4  183.22   19.56
  -3   8   4  151.97   19.52
  -5  -3   4  192.23   19.80
  -3   8   4  161.44   18.49
  -8   8  -4    7.15    2.63
   8   0  -4    6.01    1.99
  -8   8  -4    9.58    3.00
  -8   8  -4    8.37    2.06
  -8   0   4    5.94    2.69
   0   8   4    8.97    2.50
   0   8   4    9.56    2.58
  -3  -8  -4    6.12    2.77
  -8  11  -4    6.10    2.57
  -8  11  -4    5.17    2.26
  -3  -8  -4    6.13    2.15
  -8  11  -4    6.58    2.97
   3   8   4    7.03    2.80
 -11   3   4    3.77    2.76
   3   8   4    3.95    2.48
  -6  -8  -4   -2.29    2.50
  -8  14  -4    1.18    2.28
  -8  14  -4   -0.45    3.04
 -14   6   4    0.47    2.90
   6   8   4    2.99    2.34
   6   8   4    2.37    2.24
  -8  17  -4    3.39    3.43
  -8  17  -4    8.84    4.72
  -9  -8  -4   15.95    5.28
 -17   9   4    6.51    4.14
   9   8   4    4.75    3.56
  -5  14  -4   55.29    8.62
  -9  -5  -4   49.76    8.48
  -5  14  -4   53.66    7.76
   9   5   4   43.80    7.41
 -14   9   4   52.37    8.40
 -14   9   4   42.96    8.40
  -2  11  -4   11.44    2.68
  -2  11  -4   11.73    3.38
  -2  11  -4    9.61    3.06
  -9  -2  -4    5.36    3.46
   9   2   4   11.05    2.84
 -11   9   4    8.35    3.41
 -11   9   4   14.57    3.81
 -11   9   4   11.42    3.10
   1   8  -4  147.57   15.26
  -9   1  -4  127.21   17.56
  -9   1  -4  131.71   16.14
   1   8  -4  121.15   15.77
  -1  -8   4  115.28   15.36
  -8   9   4  154.98   15.37
  -8   9   4  158.18   17.03
  -8   9   4  125.59   16.16
   9  -1   4  137.24   14.57
  -9   4  -4   -0.44    1.69
  -9   4  -4    3.21    1.99
  -9   4  -4    1.15    2.01
   4   5  -4    2.55    1.80
  -5   9   4    0.59    0.71
  -5   9   4    1.41    1.76
  -5   9   4   -0.48    0.88
   9  -4   4    0.29    0.68
  -4  -5   4    4.33    1.87
  -5   9   4    0.25    1.63
  -9   7  -4   39.08    6.11
  -9   7  -4   35.15    4.91
  -9   7  -4   28.62    5.14
   7   2  -4   23.22    4.29
  -2   9   4   32.92    4.75
  -2   9   4   30.81    5.04
  -7  -2   4   24.94    4.98
  10  -1  -4    0.50    1.50
  -9  10  -4   -0.38    2.13
  -9  10  -4    1.62    2.03
  -9  10  -4   -0.83    1.16
  -1  -9  -4   -1.41    1.67
   1   9   4    0.25    1.77
   1   9   4   -1.59    1.25
 -10   1   4    0.21    2.40
  -9  13  -4   -0.38    1.95
  13  -4  -4   -1.55    1.42
  -9  13  -4    4.25    2.40
  -9  13  -4    0.04    2.79
   4   9   4    2.03    2.01
   4   9   4    4.04    2.65
 -13   4   4    1.02    2.46
  -9  16  -4    1.75    3.40
  -7  -9  -4   -1.45    3.41
  -9  16  -4    1.21    2.96
   7   9   4   -3.85    2.26
 -16   7   4   -1.00    3.06
  -6  16  -4   -4.71    2.48
 -10  -6  -4    0.16    3.26
  -6  16  -4   -2.30    2.39
  10   6   4    1.40    2.57
 -16  10   4    6.89    3.34
 -16  10   4   -1.63    2.79
  -3  13  -4    2.69    2.65
  -3  13  -4    4.57    3.13
 -10  -3  -4    2.10    3.23
 -13  10   4    2.41    2.42
  10   3   4    4.74    2.52
 -13  10   4    1.29    3.36
   0  10  -4    1.61    2.71
 -10   0  -4   -0.42    2.34
 -10   0  -4   -1.78    1.93
   0  10  -4   -1.72    1.86
 -10  10   4   -1.62    2.14
  10   0   4    1.28    1.56
 -10  10   4    0.46    1.49
 -10  10   4    0.74    1.96
   3   7  -4   -0.02    1.77
   3   7  -4   -0.10    1.81
 -10   3  -4    2.03    2.33
 -10   3  -4    3.65    2.43
 -10   3  -4    3.04    1.95
  -3  -7   4    2.24    1.82
  -7  10   4    0.71    1.79
  -7  10   4    2.47    2.02
  -7  10   4    1.88    1.08
  10  -3   4    1.17    1.16
  -7  10   4    0.72    1.33
   6   4  -4    7.60    2.39
 -10   6  -4    0.90    1.80
 -10   6  -4    5.33    2.37
 -10   6  -4    3.38    2.52
  -4  10   4   -1.44    1.70
  -6  -4   4    1.71    1.96
  -4  10   4    1.14    1.87
 -10   9  -4   -0.81    1.57
   9   1  -4   -1.93    1.29
 -10   9  -4    1.92    2.31
 -10   9  -4    0.51    2.37
  -1  10   4    1.46    1.87
  -1  10   4    2.44    1.90
  -9  -1   4    1.58    2.37
 -10  12  -4    5.77    3.06
 -10  12  -4    4.45    2.79
  12  -2  -4    5.67    2.27
   2  10   4    6.59    2.58
   2  10   4    9.62    3.41
 -12   2   4    8.19    3.46
 -10  15  -4   -0.18    2.64
   5  10   4    2.66    2.01
   5  10   4   -1.75    2.57
 -15   5   4    1.55    3.46
  -4  15  -4    1.96    2.88
 -11  -4  -4    6.30    3.89
  -4  15  -4   -0.26    3.02
  11   4   4   -1.89    2.27
 -15  11   4    4.43    3.10
 -15  11   4    6.51    4.22
  -1  12  -4   12.88    3.71
  -1  12  -4   14.65    3.94
 -11  -1  -4   12.30    4.48
 -12  11   4    9.84    3.01
 -12  11   4   12.36    4.05
  11   1   4   11.99    3.19
   2   9  -4   11.12    3.42
 -11   2  -4   14.13    3.80
   2   9  -4   10.54    3.40
 -11   2  -4    6.76    3.58
  11  -2   4   15.63    2.80
  -2  -9   4   12.35    3.07
  -9  11   4   15.80    2.55
  -9  11   4   13.38    3.13
  -9  11   4    7.67    3.42
 -11   5  -4   29.03    5.04
 -11   5  -4   19.05    4.48
   5   6  -4   15.92    3.85
 -11   5  -4   22.59    5.47
   5   6  -4   28.58    4.63
  11  -5   4   20.62    2.99
  -5  -6   4   27.11    4.71
  -6  11   4   30.91    4.64
  -6  11   4   19.06    4.54
 -11   8  -4    6.95    2.57
 -11   8  -4    5.44    2.88
 -11   8  -4    3.64    2.91
   8   3  -4    7.32    2.50
  -3  11   4    6.00    2.65
  -8  -3   4    5.42    2.64
  -3  11   4    5.31    2.63
 -11  11  -4   -1.06    2.19
 -11  11  -4    1.93    1.72
  11   0  -4    5.17    2.24
 -11  11  -4    8.17    3.24
   0  11   4    5.06    2.62
   0  11   4    3.25    2.35
 -11   0   4    5.02    2.79
  14  -3  -4   11.28    2.90
 -11  14  -4    4.72    3.74
 -14   3   4   12.09    4.34
   3  11   4    6.65    3.03
   3  11   4    6.28    2.89
 -11  17  -4   -2.05    3.73
   6  11   4   -1.95    2.65
 -17   6   4    0.17    3.62
  -5  17  -4    4.31    3.90
  -5  17  -4    1.49    3.53
 -12  -5  -4    0.40    3.90
  12   5   4   -1.56    2.47
 -17  12   4    2.23    4.39
 -17  12   4   -3.55    2.97
 -12  -2  -4    0.19    3.15
  -2  14  -4   -0.79    2.73
  -2  14  -4    2.36    2.89
 -14  12   4    0.94    2.32
  12   2   4   -1.86    1.73
 -14  12   4   -4.88    2.11
 -12   1  -4    9.63    3.99
   1  11  -4   12.06    3.70
   1  11  -4   14.27    4.07
 -11  12   4   12.89    4.53
  12  -1   4   11.74    2.97
 -12   4  -4    1.44    2.54
   4   8  -4    0.11    2.02
   4   8  -4    0.78    1.91
 -12   4  -4    0.77    2.77
 -12   4  -4    1.83    2.15
  -8  12   4    0.21    2.19
  12  -4   4    2.84    1.34
  -4  -8   4    2.21    2.36
 -12   7  -4   37.34    6.97
   7   5  -4   35.06    5.76
 -12   7  -4   40.13    6.79
 -12   7  -4   47.72    6.69
  -5  12   4   28.17    5.99
  -7  -5   4   27.50    5.86
  -5  12   4   33.89    5.82
 -12  10  -4    8.28    3.23
  10   2  -4    4.07    2.17
 -12  10  -4    6.22    3.17
 -12  10  -4    5.62    2.49
  -2  12   4   -2.04    2.00
  -2  12   4    2.09    2.48
 -10  -2   4    4.15    2.96
 -12  13  -4   10.00    3.51
  13  -1  -4    2.95    2.25
 -12  13  -4    8.12    3.88
   1  12   4    8.24    3.15
 -13   1   4    2.11    2.94
   1  12   4    9.19    3.75
 -12  16  -4    0.99    3.48
 -16   4   4    4.79    3.87
   4  12   4    5.09    3.66
 -13  -3  -4   -0.89    3.51
  -3  16  -4    5.04    3.76
  -3  16  -4    0.13    3.30
 -16  13   4    4.26    4.43
  13   3   4   -0.70    2.53
   0  13  -4   76.64   10.40
   0  13  -4   75.03   10.37
 -13   0  -4   56.64   10.60
 -13  13   4   55.54   10.67
  13   0   4   68.69    8.99
   3  10  -4    8.72    2.85
   3  10  -4    2.13    2.45
 -13   3  -4    5.59    3.33
 -13   3  -4    3.47    3.02
 -10  13   4    3.57    2.98
  13  -3   4    3.61    1.84
  -3 -10   4   -0.39    2.17
 -13   6  -4    6.88    3.39
   6   7  -4    9.90    3.38
 -13   6  -4    8.64    4.30
 -13   6  -4   14.62    4.02
   6   7  -4   18.83    4.06
  -7  13   4   10.56    3.84
  -7  13   4   11.80    3.58
  -6  -7   4   16.37    4.08
 -13   9  -4    4.16    2.65
   9   4  -4   -0.65    2.05
 -13   9  -4    3.49    2.83
 -13   9  -4    1.65    2.64
  -4  13   4   -1.57    2.28
  -4  13   4    6.90    3.00
  -9  -4   4    2.47    2.63
  12   1  -4    5.05    2.70
 -13  12  -4    2.31    3.26
 -13  12  -4    9.67    4.42
  -1  13   4    1.94    2.63
 -12  -1   4    7.46    3.83
  -1  13   4    7.20    3.16
 -13  15  -4    0.38    3.19
  15  -2  -4    0.03    2.03
   2  13   4    2.38    2.51
 -15   2   4    0.76    2.96
   2  13   4    1.07    3.07
  -1  15  -4    7.39    3.61
 -14  -1  -4    5.95    4.29
  -1  15  -4    5.39    3.69
  14   1   4    6.27    3.12
 -15  14   4    8.80    4.83
 -14   2  -4   -0.48    3.02
   2  12  -4    6.92    2.99
   2  12  -4   -1.32    2.51
 -12  14   4   -1.94    2.89
 -14   5  -4   59.37    9.19
 -14   5  -4   50.29    9.39
   5   9  -4   43.51    7.44
   5   9  -4   54.22    7.72
  -9  14   4   43.70    8.20
  -5  -9   4   36.04    7.14
   8   6  -4    3.42    2.76
 -14   8  -4    5.68    3.11
 -14   8  -4    2.47    2.96
 -14   8  -4   -2.15    2.44
  -6  14   4   -1.20    2.50
  -6  14   4    0.35    2.35
  -8  -6   4    3.65    2.88
 -14  11  -4   11.00    3.43
  11   3  -4    4.83    2.78
 -14  11  -4   12.02    4.68
 -14  11  -4    8.70    4.29
  -3  14   4   10.61    3.43
 -11  -3   4   13.67    4.07
  -3  14   4    9.59    3.95
 -14  14  -4   -2.01    3.21
  14   0  -4   -1.13    2.17
 -14  14  -4   -2.72    3.05
   0  14   4    2.70    3.23
   0  14   4    6.16    3.00
 -14   0   4    5.44    3.93
   1  14  -4    5.65    3.40
   1  14  -4    3.84    3.34
 -15   1  -4    8.38    4.39
 -14  15   4    6.37    4.56
   4  11  -4    5.29    3.28
   4  11  -4    5.70    2.95
 -15   4  -4    5.50    4.24
 -11  15   4    3.64    3.67
   7   8  -4    4.89    3.06
 -15   7  -4    9.66    3.74
 -15   7  -4    4.16    3.51
   7   8  -4    0.66    2.73
 -15   7  -4    4.20    3.82
  -7  -8   4    2.92    3.30
  -8  15   4    1.51    2.70
  -8  15   4    6.20    3.57
 -15  10  -4    0.33    2.74
  10   5  -4    3.08    2.75
 -15  10  -4    2.18    3.77
 -15  10  -4    4.09    4.23
 -10  -5   4   -1.28    2.76
  -5  15   4    0.13    2.80
  -5  15   4    2.33    3.04
 -15  13  -4    2.44    3.39
 -15  13  -4   -3.34    2.72
  13   2  -4   -2.20    2.16
  -2  15   4    1.19    2.61
  -2  15   4   -0.18    2.77
 -13  -2   4    3.24    3.29
   3  13  -4    6.72    3.29
 -16   3  -4    3.63    4.13
   3  13  -4    4.74    3.51
 -13  16   4    5.58    4.05
   6  10  -4   -0.04    2.57
 -16   6  -4    0.44    3.58
   6  10  -4    0.75    2.72
  -6 -10   4   -3.11    2.79
 -10  16   4    2.71    3.39
 -16   9  -4    2.26    3.63
 -16   9  -4   -2.60    2.70
 -16   9  -4   -0.91    3.40
   9   7  -4   -0.90    2.45
   9   7  -4   -4.12    2.18
  -9  -7   4    0.80    3.62
  -7  16   4   -1.02    2.83
  -7  16   4   -2.10    2.17
  12   4  -4    2.52    2.76
 -16  12  -4    2.77    4.16
 -16  12  -4   -0.94    3.61
  -4  16   4   -4.06    3.05
 -12  -4   4    2.18    3.49
  -4  16   4   -1.70    2.88
 -17   5  -4   -1.28    3.62
   5  12  -4   -0.05    3.40
   5  12  -4    6.98    3.68
 -12  17   4   -4.91    3.02
   8   9  -4   -4.23    2.31
   8   9  -4    3.06    3.39
 -17   8  -4    5.41    4.35
  -9  17   4    4.66    3.49
  -8  -9   4    6.10    3.92
  11   6  -4    0.23    2.63
 -17  11  -4    2.17    4.00
 -17  11  -4    2.77    3.58
 -17  11  -4   -2.16    3.69
  -6  17   4    0.37    3.71
 -11  -6   4   -2.07    3.74
  -6  17   4    0.95    3.56
  -1   1  -5   -0.78    0.64
  -1   1  -5   -0.14    0.84
  -1   1  -5    0.13    0.54
   0  -1  -5   -0.12    0.39
   0   1   5   -0.98    0.63
   0   1   5   -0.32    0.39
   0   2  -5   -0.37    0.53
  -2   0  -5   -0.61    1.01
  -2   0  -5   -0.08    0.52
  -2   0  -5    0.46    1.12
   0   2  -5   -2.16    0.88
  -2   0  -5   -1.90    0.96
  -2   2   5   -0.62    0.94
   0  -2   5   -1.02    0.69
   2   0   5    0.50    0.62
   0  -2   5   -0.75    0.56
  -2   3  -5  141.13   19.20
  -1  -2  -5  177.27   19.12
  -2   3  -5  169.01   17.82
  -2   3  -5  145.25   16.60
  -3   1   5  160.51   17.85
   1   2   5  157.79   16.82
   1   2   5  178.15   17.50
  -3  -1  -5  127.89   15.71
  -1   4  -5  127.15   13.08
  -1   4  -5  100.46   13.80
  -3  -1  -5  128.91   13.98
  -3  -1  -5  132.10   15.10
  -4   3   5  136.56   14.10
  -4   3   5  128.49   13.88
   3   1   5  116.09   12.95
  -3   2  -5  152.27   17.64
  -3   2  -5  159.45   19.29
  -3   2  -5  160.80   17.70
  -2  -1   5  171.60   17.76
  -1   3   5  151.20   17.63
  -1   3   5  174.95   16.85
  -3   5  -5    1.10    0.96
  -2  -3  -5    0.03    1.21
  -3   5  -5    1.39    1.16
  -2  -3  -5    0.74    1.04
  -3   5  -5   -0.03    1.21
  -2  -3  -5    1.49    1.37
   2   3   5    0.02    0.76
  -5   2   5    1.15    1.49
  -5   2   5    0.10    1.44
   2   3   5    1.58    1.22
  -2   6  -5    1.54    1.43
  -2   6  -5    4.04    1.87
  -4  -2  -5    0.66    1.64
  -4  -2  -5   -0.01    1.36
  -2   6  -5   -0.61    1.15
  -4  -2  -5   -1.25    1.16
  -6   4   5    0.30    1.49
  -6   4   5   -0.29    1.38
   4   2   5    0.59    1.08
  -6   4   5    1.76    1.79
  -4   1  -5  124.48   13.22
  -4   1  -5  130.29   14.67
  -4   1  -5  123.60   13.49
   1   3  -5   91.25   12.47
  -3   4   5  118.54   12.67
  -3   4   5  125.47   13.42
  -1  -3   5  115.91   13.17
  -3   4   5  117.65   13.10
   4  -1   5  125.80   12.28
  -4   4  -5   -0.36    0.86
  -4   4  -5    1.22    1.35
  -4   4  -5    0.64    1.36
  -4   4  -5   -0.24    0.60
   0   4   5   -0.28    1.02
  -4   0   5    0.03    1.46
   0   4   5    0.45    0.93
  -3  -4  -5  130.48   14.84
  -3  -4  -5  116.19   13.33
  -4   7  -5  106.04   13.36
  -4   7  -5  130.89   14.15
  -4   7  -5  112.96   12.34
   3   4   5  109.01   12.88
  -7   3   5  112.90   13.51
   3   4   5  104.26   12.53
  -7   3   5  108.06   13.47
  -3   8  -5    2.10    1.81
  -3   8  -5    3.20    1.66
  -5  -3  -5    4.45    1.96
  -5  -3  -5    4.98    2.39
  -3   8  -5    3.20    1.56
  -8   5   5    4.54    2.28
  -8   5   5    5.65    2.17
  -8   5   5    5.18    2.52
   5   3   5    5.77    1.80
  -5   0  -5   -0.59    1.27
   0   5  -5   -0.11    1.24
  -5   0  -5   -0.91    1.53
   0   5  -5    0.74    1.43
  -5   5   5   -0.02    1.14
  -5   5   5   -0.54    1.12
   5   0   5    0.77    0.90
   0  -5   5   -0.32    0.83
  -5   5   5   -2.14    1.35
  -5   3  -5    2.19    1.44
   3   2  -5    1.22    1.21
  -5   3  -5    2.40    1.63
  -5   3  -5    0.95    1.30
  -3  -2   5    0.91    1.23
  -2   5   5    1.07    1.41
  -2   5   5    0.59    1.26
  -5   6  -5   83.93   10.32
  -5   6  -5   99.40    8.76
  -5   6  -5   71.01    9.05
  -5   6  -5   81.21    9.74
   1   5   5   75.19    9.52
   1   5   5   77.66    9.14
  -6   1   5   76.90    9.75
  -5   9  -5   14.12    3.56
  -4  -5  -5   20.23    3.64
  -5   9  -5   15.85    3.27
  -4  -5  -5   17.90    3.59
  -5   9  -5   20.73    3.27
   4   5   5   18.06    3.04
  -9   4   5   19.03    3.92
   4   5   5   13.44    3.08
  -9   4   5   14.78    3.66
  -6  -4  -5   -1.75    1.88
  -4  10  -5    0.71    1.26
  -4  10  -5   -0.46    1.60
  -4  10  -5    0.48    1.86
 -10   6   5    0.00    1.93
 -10   6   5    0.53    1.92
   6   4   5   -0.15    1.59
  -1   7  -5   30.63    4.46
  -1   7  -5   26.44    3.88
  -6  -1  -5   26.91    4.69
  -6  -1  -5   31.02    4.61
  -7   6   5   27.93    4.64
   6   1   5   26.44    3.62
  -7   6   5   17.60    3.94
   1  -7   5   17.83    3.03
  -7   6   5   30.65    4.13
  -6   2  -5   -0.04    1.46
   2   4  -5    2.04    1.33
  -6   2  -5   -0.66    1.19
  -6   2  -5    0.35    1.60
   6  -2   5   -0.36    0.51
  -4   6   5   -1.09    0.90
  -4   6   5   -0.58    1.29
  -2  -4   5    0.33    1.20
  -4   6   5   -0.97    1.13
  -6   5  -5   83.83    9.50
  -6   5  -5   62.41    9.01
  -6   5  -5   90.41   10.27
  -1   6   5   79.51    9.21
  -1   6   5   80.27    8.82
  -5  -1   5   77.93    9.46
  -2  -6  -5    2.09    1.80
  -6   8  -5    3.74    1.82
  -6   8  -5    5.45    2.12
  -6   8  -5    1.70    1.34
  -2  -6  -5    5.36    1.77
  -8   2   5    4.53    2.36
   2   6   5    4.50    1.83
   2   6   5    3.38    1.57
  -5  -6  -5   -1.72    1.92
  -6  11  -5    3.54    1.84
  -6  11  -5    4.26    2.46
  -6  11  -5    6.89    2.20
 -11   5   5    7.01    2.95
   5   6   5    2.18    2.07
 -11   5   5    7.75    3.11
   5   6   5    0.70    1.61
  -7  -5  -5   35.08    6.58
  -5  12  -5   43.89    6.15
  -5  12  -5   33.93    6.53
  -5  12  -5   42.63    5.96
 -12   7   5   33.74    6.84
   7   5   5   39.77    6.23
 -12   7   5   40.76    6.72
  -2   9  -5   23.23    4.40
  -2   9  -5   16.80    3.63
  -7  -2  -5   24.44    4.38
  -2   9  -5   25.39    3.93
  -7  -2  -5   24.17    4.71
  -9   7   5   18.60    3.76
  -9   7   5   20.50    4.37
   7   2   5   15.99    3.37
  -9   7   5   21.53    4.36
  -7   1  -5   18.34    4.14
  -7   1  -5   20.61    3.84
   1   6  -5   18.08    3.62
   1   6  -5   20.13    3.49
  -6   7   5   24.33    3.43
  -6   7   5   15.40    3.45
  -6   7   5   20.96    4.13
  -1  -6   5   32.67    3.64
   7  -1   5   26.53    3.20
   4   3  -5  113.62   11.54
  -7   4  -5   89.78   12.03
  -7   4  -5  111.01   13.46
  -7   4  -5  103.63   12.22
  -4  -3   5  109.83   12.19
  -3   7   5  101.25   11.52
  -3   7   5  103.36   12.20
  -7   7  -5    1.45    1.94
  -7   7  -5    0.84    1.17
  -7   7  -5    0.93    1.61
   0   7   5    1.28    1.35
   0   7   5   -0.86    1.29
  -7   0   5   -1.85    1.68
  -7  10  -5   58.48    8.15
  -3  -7  -5   40.05    7.31
  -7  10  -5   57.43    6.64
  -3  -7  -5   56.22    7.76
  -7  10  -5   69.82    7.84
 -10   3   5   52.43    7.98
   3   7   5   46.48    7.12
   3   7   5   61.67    7.00
  -7  13  -5    3.28    2.28
  -7  13  -5    1.95    2.90
  -6  -7  -5    2.48    2.73
   6   7   5   -2.02    1.90
 -13   6   5    0.01    2.57
   6   7   5    0.51    1.96
 -13   6   5    4.58    2.89
  -6  14  -5    1.36    2.82
  -6  14  -5    0.02    2.26
  -8  -6  -5    0.41    2.77
 -14   8   5   -1.71    2.23
   8   6   5   -2.05    1.85
 -14   8   5    1.46    3.11
   8   6   5    1.29    2.22
  -3  11  -5    9.63    2.69
  -3  11  -5   12.08    3.24
  -8  -3  -5    6.37    3.13
  -3  11  -5    7.04    3.42
 -11   8   5    8.80    3.05
   8   3   5    6.34    2.38
 -11   8   5    7.48    3.65
   0   8  -5   -1.18    1.67
  -8   0  -5   -1.30    1.87
  -8   0  -5   -3.15    1.73
   0   8  -5    2.72    2.47
   0  -8   5   -1.55    1.07
   8   0   5   -0.78    1.06
  -8   8   5    1.17    1.54
  -8   8   5   -1.55    1.62
  -8   8   5   -0.20    1.50
  -8   3  -5    6.78    2.47
   3   5  -5    3.77    1.81
  -8   3  -5    0.51    1.71
  -8   3  -5    4.69    1.85
  -3  -5   5    3.39    1.85
  -5   8   5    4.03    2.01
  -5   8   5    4.20    1.18
   8  -3   5    3.59    0.95
  -5   8   5    4.13    1.88
  -8   6  -5    2.98    1.81
   6   2  -5    2.17    1.49
  -8   6  -5    2.57    2.15
  -8   6  -5    2.85    1.69
  -6  -2   5    6.67    2.33
  -2   8   5    3.26    1.87
  -2   8   5    2.04    1.72
  -8   9  -5   12.86    2.32
  -8   9  -5    4.77    2.82
  -1  -8  -5   11.48    2.95
  -8   9  -5   15.12    3.45
  -9   1   5   11.56    3.29
   1   8   5   17.49    3.03
   1   8   5    7.63    2.78
  -4  -8  -5   -3.54    2.06
  -8  12  -5    1.29    1.77
  -8  12  -5    0.50    2.01
  -8  12  -5   -1.87    2.00
   4   8   5    2.66    2.25
   4   8   5    0.64    1.77
 -12   4   5    1.82    2.63
  -7  -8  -5    3.48    3.35
  -8  15  -5   -3.32    2.35
  -8  15  -5   -0.75    2.91
   7   8   5   -2.67    1.96
 -15   7   5   -3.38    2.97
  -7  16  -5    4.46    3.46
  -7  16  -5    5.56    3.98
  -9  -7  -5    2.11    3.51
 -16   9   5    7.91    4.58
 -16   9   5    1.11    3.30
   9   7   5    5.44    3.05
  -4  13  -5    0.11    2.02
  -9  -4  -5   -0.57    2.75
  -4  13  -5    2.42    2.53
   9   4   5   -1.64    1.77
 -13   9   5    1.82    2.57
 -13   9   5    2.72    2.79
  -9  -1  -5    0.14    2.37
  -1  10  -5   -1.30    1.66
  -9  -1  -5    0.55    2.15
  -1  10  -5    2.06    2.25
 -10   9   5    0.34    2.03
   9   1   5    0.67    1.52
 -10   9   5    1.08    1.79
  -9   2  -5   19.27    4.13
   2   7  -5   20.83    3.93
  -9   2  -5   17.03    4.19
   2   7  -5   12.22    3.38
   9  -2   5   18.09    2.87
  -7   9   5   17.62    4.01
  -7   9   5   18.33    3.41
  -7   9   5   22.94    3.16
  -2  -7   5   23.05    3.66
  -9   5  -5   11.42    3.32
   5   4  -5   14.51    3.10
  -9   5  -5   17.18    4.17
  -9   5  -5   14.88    3.40
  -5  -4   5   18.42    3.67
  -4   9   5   16.68    3.56
  -4   9   5   18.66    3.58
  -4   9   5   18.69    2.31
  -9   8  -5    8.66    2.58
   8   1  -5   17.21    2.98
  -9   8  -5   13.90    3.50
  -9   8  -5    7.42    3.07
  -8  -1   5   12.15    3.16
  -1   9   5    8.18    2.57
  -1   9   5   10.30    2.94
  11  -2  -5   35.54    4.88
  -9  11  -5   23.84    5.55
  -9  11  -5   28.32    5.55
  -2  -9  -5   26.16    4.90
   2   9   5   29.94    5.26
 -11   2   5   30.08    5.96
   2   9   5   37.49    5.33
  -9  14  -5    6.81    3.36
  -9  14  -5    2.02    2.51
 -14   5   5    6.28    3.42
   5   9   5    6.52    2.59
   5   9   5    3.26    2.88
  -9  17  -5    0.93    3.72
 -17   8   5    4.45    3.83
   8   9   5   -0.09    3.21
 -10  -5  -5    7.76    3.99
  -5  15  -5    8.02    3.73
  -5  15  -5   15.61    4.80
 -15  10   5    8.87    3.81
 -15  10   5    6.24    4.19
  10   5   5    9.63    3.40
  -2  12  -5   -0.56    2.19
 -10  -2  -5    1.15    2.97
  -2  12  -5    2.00    2.70
 -12  10   5    2.02    3.01
  10   2   5    0.79    1.71
 -12  10   5    2.29    2.14
 -10   1  -5   -1.51    2.16
 -10   1  -5    1.20    2.08
   1   9  -5   -0.21    1.82
   1   9  -5    2.08    2.30
  -1  -9   5   -1.43    1.37
  -9  10   5    1.05    1.34
  10  -1   5    0.60    1.31
  -9  10   5    3.67    2.25
 -10   4  -5    1.57    1.98
   4   6  -5   -0.62    1.72
 -10   4  -5    1.15    1.94
 -10   4  -5   -0.22    2.08
   4   6  -5    1.36    1.89
  -6  10   5    0.53    1.75
  -4  -6   5   -0.25    1.84
  10  -4   5    0.43    0.78
  -6  10   5   -0.42    0.69
  -6  10   5   -0.08    1.80
 -10   7  -5   53.45    7.83
 -10   7  -5   58.52    7.49
   7   3  -5   56.86    6.98
 -10   7  -5   55.95    8.29
  -3  10   5   40.64    6.99
  -7  -3   5   41.07    7.11
  -3  10   5   46.01    6.87
 -10  10  -5   -1.11    1.37
 -10  10  -5   -1.23    1.98
  10   0  -5   -0.38    1.52
 -10  10  -5    1.46    2.18
 -10   0   5    4.35    2.80
   0  10   5    0.54    1.81
   0  10   5    0.71    1.93
 -10  13  -5    7.14    3.03
  13  -3  -5    3.48    2.02
 -10  13  -5    2.27    2.53
 -13   3   5    3.14    2.94
   3  10   5    8.35    2.46
   3  10   5    2.43    2.59
 -10  16  -5    1.81    3.10
 -16   6   5    3.17    3.54
   6  10   5    4.16    3.07
 -11  -6  -5   -1.08    3.83
  -6  17  -5    8.16    4.20
  -6  17  -5   -0.98    3.26
 -17  11   5    4.68    3.72
  11   6   5    6.08    3.33
 -17  11   5    8.32    4.78
  -3  14  -5    3.65    3.20
  -3  14  -5    3.51    2.99
 -11  -3  -5    6.48    3.83
  11   3   5    1.54    2.34
 -14  11   5    7.71    3.34
 -14  11   5    9.12    3.96
   0  11  -5    0.86    2.38
 -11   0  -5    0.97    2.88
   0  11  -5    2.69    2.55
  11   0   5    0.91    1.80
 -11  11   5   -3.19    2.14
 -11  11   5    0.14    1.49
   3   8  -5    6.87    2.94
   3   8  -5    8.74    3.30
 -11   3  -5    5.11    2.91
 -11   3  -5    3.81    3.02
  -8  11   5    6.59    1.59
  11  -3   5    8.37    1.92
  -8  11   5   11.49    3.51
  -3  -8   5    5.30    2.42
   6   5  -5    2.23    2.12
 -11   6  -5    5.48    2.57
 -11   6  -5    1.01    2.30
 -11   6  -5    4.21    2.69
  -6  -5   5    1.32    2.28
  -5  11   5    0.60    1.96
  11  -6   5    3.36    0.98
  -5  11   5    3.72    2.52
 -11   9  -5   22.49    4.68
 -11   9  -5   26.73    5.41
 -11   9  -5   28.50    5.75
   9   2  -5   29.63    4.85
  -2  11   5   30.28    5.24
  -9  -2   5   34.09    5.79
  -2  11   5   24.89    5.11
  12  -1  -5   36.95    5.49
 -11  12  -5   36.61    6.82
 -11  12  -5   35.82    6.50
   1  11   5   30.56    6.12
   1  11   5   45.64    6.32
 -12   1   5   20.09    5.84
 -11  15  -5   16.22    4.88
   4  11   5   16.09    4.60
 -15   4   5    2.86    3.97
 -12  -4  -5    2.73    3.57
  -4  16  -5    0.26    3.03
  -4  16  -5    2.00    3.33
 -16  12   5   -1.61    2.79
 -16  12   5    0.33    3.36
  12   4   5    5.54    3.07
  -1  13  -5   -1.85    2.38
 -12  -1  -5    1.07    3.28
  -1  13  -5    3.12    3.04
 -13  12   5   -1.37    1.89
 -13  12   5    1.06    3.16
  12   1   5    1.37    2.05
 -12   2  -5    1.12    2.62
 -12   2  -5   -1.25    2.67
   2  10  -5   -1.81    2.20
   2  10  -5    0.25    2.20
 -10  12   5   -2.99    2.24
  12  -2   5    0.30    1.40
  -2 -10   5   -0.78    1.90
 -12   5  -5   51.10    7.55
   5   7  -5   43.13    6.53
 -12   5  -5   46.46    8.24
   5   7  -5   45.54    6.71
 -12   5  -5   37.66    6.66
  -5  -7   5   40.30    6.63
  -7  12   5   30.98    6.57
  -7  12   5   36.55    6.32
 -12   8  -5   -3.46    1.38
 -12   8  -5   -0.97    2.10
 -12   8  -5   -0.90    2.51
   8   4  -5    1.36    1.91
  -8  -4   5   -0.33    2.28
  -4  12   5    0.57    1.98
  -4  12   5    3.09    2.62
 -12  11  -5   31.12    6.39
 -12  11  -5   36.28    6.82
  11   1  -5   22.53    4.82
 -12  11  -5   38.84    5.37
  -1  12   5   31.65    5.77
 -11  -1   5   26.66    5.99
  -1  12   5   37.69    5.99
 -12  14  -5    3.82    3.10
 -12  14  -5    1.95    2.86
  14  -2  -5    2.87    2.26
 -14   2   5    0.86    3.56
   2  12   5   -2.40    2.24
   2  12   5    8.05    2.71
 -12  17  -5    0.45    3.77
 -17   5   5    2.01    3.88
   5  12   5    0.22    3.00
 -13  -2  -5   -0.61    3.36
  -2  15  -5   -6.12    2.60
  -2  15  -5    1.33    3.20
  13   2   5    0.04    2.33
 -15  13   5    0.05    2.98
 -13   1  -5    3.75    3.52
   1  12  -5   -3.70    2.13
   1  12  -5    3.26    2.76
 -12  13   5    1.84    3.33
  13  -1   5    4.55    2.21
   4   9  -5   -0.92    2.21
 -13   4  -5    0.31    2.84
 -13   4  -5   -2.69    2.52
   4   9  -5   -0.50    2.26
  -4  -9   5    2.64    2.54
  -9  13   5    2.55    2.56
 -13   7  -5   -0.64    2.81
   7   6  -5    5.38    2.69
 -13   7  -5    3.17    2.92
 -13   7  -5    4.19    3.20
  -6  13   5   -0.49    2.40
  -6  13   5    3.70    2.53
  -7  -6   5   -0.67    2.25
  10   3  -5    3.59    2.47
 -13  10  -5    6.24    2.75
 -13  10  -5    2.38    3.25
 -13  10  -5    5.85    3.34
 -10  -3   5    2.07    2.74
  -3  13   5    3.97    2.89
  -3  13   5   10.33    3.37
  13   0  -5    0.53    2.07
 -13  13  -5    1.14    2.96
 -13  13  -5    2.29    3.35
 -13   0   5   -1.80    2.50
   0  13   5    0.83    2.25
   0  13   5    2.33    2.69
 -13  16  -5    5.45    4.30
   3  13   5    0.88    3.35
 -16   3   5    1.57    3.75
 -14   0  -5    0.32    3.24
   0  14  -5    3.36    3.02
   0  14  -5    1.63    3.01
 -14  14   5    0.86    3.57
 -14   3  -5    2.51    3.38
   3  11  -5    5.53    3.07
   3  11  -5    6.41    3.18
 -11  14   5    2.62    3.34
 -14   6  -5    0.42    2.48
 -14   6  -5    0.04    3.09
 -14   6  -5    1.69    3.17
   6   8  -5   -0.25    2.38
   6   8  -5   -1.82    2.25
  -8  14   5   -3.46    2.45
  -8  14   5   -5.25    2.09
  -6  -8   5   -5.74    2.00
   9   5  -5    2.16    2.53
 -14   9  -5   -1.75    2.49
 -14   9  -5    6.34    3.62
 -14   9  -5    5.15    3.52
  -5  14   5    1.64    2.97
  -9  -5   5    0.59    2.72
  -5  14   5    4.22    2.97
 -14  12  -5    0.32    3.15
 -14  12  -5    1.08    3.14
  12   2  -5   -0.21    2.02
  -2  14   5    3.42    3.16
  -2  14   5    2.85    2.64
 -12  -2   5    8.58    3.83
  15  -1  -5    2.42    2.75
 -14  15  -5    1.90    3.62
 -15   1   5    2.22    3.75
   1  14   5    3.15    2.99
   1  14   5    2.11    2.99
 -15   2  -5    0.33    3.58
   2  13  -5    2.97    3.11
   2  13  -5    2.40    2.90
 -13  15   5   -0.06    3.03
 -15   5  -5   10.10    4.49
 -15   5  -5    7.11    4.11
   5  10  -5    3.32    2.83
   5  10  -5    3.83    2.95
 -10  15   5    7.42    3.84
  -5 -10   5   19.25    4.29
   8   7  -5   -1.21    2.35
 -15   8  -5    0.26    2.85
   8   7  -5   -2.61    2.36
 -15   8  -5    0.12    3.01
 -15   8  -5   -0.69    2.62
  -7  15   5   -3.63    2.26
  -7  15   5   -2.27    2.68
  -8  -7   5    0.83    3.04
  11   4  -5   15.18    4.24
 -15  11  -5   12.37    4.87
 -15  11  -5    6.49    4.38
 -15  11  -5    7.82    3.75
  -4  15   5   18.40    4.79
 -11  -4   5   25.30    5.64
  -4  15   5   18.24    5.00
  14   1  -5   -0.09    2.40
 -15  14  -5    0.56    3.42
 -15  14  -5   -1.32    3.25
  -1  15   5    3.46    3.10
 -14  -1   5    3.50    3.73
  -1  15   5    2.83    3.42
 -16   4  -5    1.00    3.82
   4  12  -5    4.58    3.01
   4  12  -5    1.86    2.93
 -12  16   5    2.71    3.42
 -16   7  -5   -2.21    3.41
   7   9  -5   -0.98    2.76
 -16   7  -5    1.12    3.74
 -16   7  -5   -0.11    3.07
   7   9  -5    3.48    2.99
  -9  16   5    1.61    3.44
  -7  -9   5   -1.09    3.16
 -16  10  -5    0.53    3.44
 -16  10  -5    2.76    3.45
 -16  10  -5    1.11    2.87
  10   6  -5   -2.96    2.41
  -6  16   5    2.76    3.55
 -10  -6   5   -1.75    3.08
  -6  16   5   -0.51    2.86
 -16  13  -5   10.95    5.03
  13   3  -5    3.01    2.99
 -16  13  -5    1.53    3.75
 -13  -3   5    0.77    3.82
  -3  16   5    3.70    3.95
  -3  16   5    9.44    4.06
 -17   6  -5    3.43    4.37
   6  11  -5    2.63    3.51
   6  11  -5   -1.41    2.65
 -11  17   5    2.12    4.08
   9   8  -5   -1.35    2.79
   9   8  -5   -4.47    2.51
 -17   9  -5    5.79    4.05
 -17   9  -5   -4.69    2.84
 -17   9  -5    3.17    4.55
  -8  17   5    0.56    3.50
  -9  -8   5    3.31    3.86
  -8  17   5    3.39    3.53
 -17  12  -5    3.11    4.31
 -17  12  -5    0.62    4.02
  12   5  -5    0.20    3.08
 -12  -5   5    4.53    4.44
  -5  17   5    3.57    3.51
  -5  17   5    2.27    3.80
  -1  -1  -6   23.30    3.26
  -1   2  -6   21.51    3.46
  -1   2  -6   25.63    3.23
  -1  -1  -6   23.37    3.72
   1   1   6   25.04    2.93
  -2   1   6   25.34    3.19
  -2   1  -6   22.09    3.55
  -2   1  -6   26.86    3.98
  -2   1  -6   24.00    2.72
  -2   1  -6   27.45    3.09
  -1  -1   6   24.49    3.25
  -1   2   6   22.30    3.22
  -1   2   6   26.77    3.16
  -2   4  -6   20.44    2.70
  -2  -2  -6   26.85    3.66
  -2   4  -6   21.96    3.15
  -2   4  -6   18.64    3.21
  -2  -2  -6   22.34    3.26
  -2  -2  -6   20.63    3.17
   2   2   6   19.07    2.80
  -4   2   6   17.44    3.06
  -4   2   6   22.73    3.31
   2   2   6   15.57    2.40
  -3   0  -6   26.51    3.85
  -3   0  -6   27.91    3.37
  -3   0  -6   30.00    4.33
   0   3  -6   26.36    3.53
  -3   0  -6   30.51    4.56
   0  -3   6   25.43    3.44
   0  -3   6   29.81    3.59
  -3   3   6   21.26    3.74
  -3   3   6   28.05    3.70
   3   0   6   26.91    3.21
  -3   3  -6   25.57    3.75
  -3   3  -6   22.51    3.39
   0  -3  -6   21.41    2.95
  -3   3  -6   26.86    2.55
   0   3   6   21.50    2.98
  -3   0   6   17.99    3.27
   0   3   6   19.28    3.03
  -3   6  -6   -3.09    1.13
  -3  -3  -6   -0.63    1.31
  -3  -3  -6    0.66    1.13
  -3   6  -6    0.25    1.44
  -3   6  -6   -0.59    1.00
  -3  -3  -6   -0.99    1.40
   3   3   6    0.67    1.08
  -6   3   6   -0.63    1.48
  -6   3   6    1.87    1.57
  -4  -1  -6   27.57    4.68
  -1   5  -6   25.97    3.83
  -4  -1  -6   24.36    4.17
  -4  -1  -6   30.42    4.64
  -1   5  -6   24.28    4.14
   1  -5   6   35.92    3.49
  -5   4   6   22.30    3.98
   4   1   6   28.84    3.74
  -5   4   6   29.12    4.53
  -4   2  -6   19.81    3.01
  -4   2  -6   22.19    3.67
  -4   2  -6   22.30    3.26
  -2   4   6   22.33    3.10
  -2   4   6   15.76    2.95
  -2  -2   6   23.30    3.17
  -1  -4  -6    7.08    1.51
  -4   5  -6    7.98    1.44
  -4   5  -6    6.85    2.16
  -4   5  -6    4.44    1.89
   1   4   6    8.47    2.01
   1   4   6   11.50    1.70
  -5   1   6    8.49    2.35
  -4   8  -6    5.08    1.73
  -4   8  -6    1.25    2.07
  -4  -4  -6    5.08    2.07
  -4  -4  -6    4.91    1.99
  -4   8  -6    2.82    1.51
  -8   4   6    6.26    2.38
   4   4   6    3.22    1.70
   4   4   6    4.66    1.50
  -8   4   6    3.44    2.27
  -5  -2  -6  110.56   11.92
  -5  -2  -6  111.28   12.63
  -2   7  -6   86.43   10.75
  -2   7  -6  100.69   11.65
  -7   5   6   96.55   11.60
   5   2   6   97.85   10.73
  -7   5   6   86.73   11.67
   1   4  -6   22.95    3.69
  -5   1  -6   30.29    4.76
  -5   1  -6   26.80    4.15
   1   4  -6   21.59    3.87
  -5   1  -6   29.31    3.88
  -4   5   6   29.26    3.66
  -4   5   6   30.03    4.30
   5  -1   6   26.78    3.23
  -1  -4   6   32.27    3.94
  -5   4  -6   10.45    2.49
  -5   4  -6    6.96    1.80
  -5   4  -6    6.85    2.20
  -1   5   6    6.68    1.79
  -1   5   6    8.42    1.80
  -4  -1   6    7.74    2.27
  -5   7  -6   18.02    3.71
  -2  -5  -6   23.36    3.84
  -5   7  -6   20.30    3.80
  -2  -5  -6   26.42    4.24
  -5   7  -6   18.78    3.01
   2   5   6   17.50    3.46
  -7   2   6   23.02    4.16
   2   5   6   26.43    3.38
  -5  10  -6    6.59    2.68
  -5  -5  -6    5.01    2.61
  -5  10  -6    6.87    2.18
  -5  10  -6    7.54    2.16
 -10   5   6    5.95    2.61
   5   5   6    3.75    1.82
 -10   5   6    8.08    2.74
   5   5   6    6.26    2.24
  -3   9  -6   42.89    6.64
  -3   9  -6   37.14    5.94
  -6  -3  -6   52.39    7.11
  -3   9  -6   49.42    6.60
  -6  -3  -6   55.59    7.44
  -9   6   6   41.20    6.47
   6   3   6   42.18    5.93
  -9   6   6   36.87    6.81
   0   6  -6   25.10    4.19
  -6   0  -6   28.31    4.57
   0   6  -6   24.61    3.78
  -6   0  -6   20.04    4.29
  -6   6   6   21.62    3.68
  -6   6   6   20.48    4.08
   0  -6   6   28.53    3.57
   6   0   6   32.04    3.65
  -6   3  -6   -0.13    1.52
  -6   3  -6   -0.82    1.43
   3   3  -6    0.02    1.09
  -6   3  -6    0.90    1.32
  -3   6   6    0.80    1.38
   6  -3   6   -0.56    0.39
  -3  -3   6    1.19    1.45
  -3   6   6    0.91    1.44
  -6   6  -6  131.59   13.10
  -6   6  -6  105.27   14.45
  -6   6  -6  108.68   13.53
   0   6   6  135.63   12.87
   0   6   6  111.36   13.12
  -6   0   6  102.25   13.46
  -6   9  -6   44.20    5.05
  -6   9  -6   28.32    5.60
  -6   9  -6   32.41    5.56
  -3  -6  -6   32.88    5.72
  -3  -6  -6   53.76    6.26
  -9   3   6   33.49    5.82
   3   6   6   33.53    5.32
   3   6   6   34.49    5.04
  -6  12  -6   13.93    3.15
  -6  12  -6    9.11    2.74
  -6  12  -6    6.81    3.07
  -6  -6  -6   13.95    3.97
 -12   6   6   14.91    3.82
   6   6   6    4.70    2.31
   6   6   6    9.10    2.94
 -12   6   6   21.08    4.67
  -4  11  -6    0.42    1.76
  -7  -4  -6    1.16    2.35
  -4  11  -6   -2.55    1.68
  -4  11  -6   -0.19    1.50
 -11   7   6    0.81    2.41
 -11   7   6    0.45    2.00
   7   4   6    2.84    1.89
  -7  -1  -6   16.65    3.75
  -7  -1  -6   17.33    3.79
  -1   8  -6   18.19    3.22
  -1   8  -6   20.21    3.67
  -8   7   6    9.94    2.79
   1  -8   6   11.60    2.17
   7   1   6   14.39    2.70
  -8   7   6   14.10    3.59
  -7   2  -6   89.40   13.04
  -7   2  -6   98.26   11.80
   2   5  -6  117.40   11.43
  -7   2  -6  105.52   12.16
   2   5  -6   89.93   11.77
  -2  -5   6   84.67   11.57
  -5   7   6   95.98   11.30
   7  -2   6  116.52   10.77
  -5   7   6  118.53   11.55
  -5   7   6   92.44   11.99
   5   2  -6   20.69    3.17
  -7   5  -6   17.42    3.33
  -7   5  -6   23.52    4.12
  -7   5  -6   17.13    3.47
  -2   7   6   16.30    3.25
  -2   7   6   20.66    3.38
  -5  -2   6   15.74    3.22
  -7   8  -6   59.27    8.88
  -7   8  -6   51.64    8.40
  -7   8  -6   79.72    7.51
  -7   8  -6   73.18    7.20
   1   7   6   45.05    7.64
   1   7   6   60.58    7.66
  -8   1   6   55.30    8.42
  -7  11  -6   10.86    2.73
  -7  11  -6    5.79    2.32
  -4  -7  -6    7.74    2.53
  -4  -7  -6    7.86    3.08
  -7  11  -6    4.11    2.63
   4   7   6   10.38    2.51
   4   7   6    7.59    2.78
 -11   4   6    5.20    3.05
  -7  14  -6   -0.23    2.53
  -7  -7  -6    3.57    2.83
  -7  14  -6   -1.40    2.28
   7   7   6   -4.36    1.68
 -14   7   6    1.93    2.97
   7   7   6   -2.86    1.77
 -14   7   6    2.25    2.83
  -5  13  -6   25.82    5.15
  -8  -5  -6   27.76    5.89
  -5  13  -6   30.04    6.21
 -13   8   6   27.34    6.12
   8   5   6   23.46    4.66
   8   5   6   32.21    5.35
 -13   8   6   40.43    6.35
  -8  -2  -6    4.53    2.94
  -8  -2  -6   -2.14    1.77
  -2  10  -6    0.44    2.24
  -2  10  -6    1.80    2.02
  -2  10  -6    0.10    1.98
 -10   8   6   -1.41    1.54
 -10   8   6    1.74    2.49
   8   2   6    1.70    1.57
   1   7  -6   10.22    2.86
   1   7  -6   19.35    3.60
  -8   1  -6   14.53    3.66
  -8   1  -6   10.48    3.01
  -7   8   6   16.53    3.62
  -1  -7   6   15.45    2.72
   8  -1   6   12.99    2.37
  -7   8   6   11.65    2.58
  -8   4  -6    2.59    2.35
  -8   4  -6    0.21    1.58
  -8   4  -6    3.96    2.18
   4   4  -6    4.82    1.88
  -4   8   6    2.49    1.05
  -4   8   6    0.91    1.57
   8  -4   6    2.10    0.68
  -4  -4   6    6.32    2.10
  -4   8   6    2.20    1.61
   7   1  -6   58.28    7.37
  -8   7  -6   60.52    8.76
  -8   7  -6   61.46    7.69
  -8   7  -6   64.54    8.25
  -7  -1   6   68.38    8.99
  -1   8   6   74.56    7.83
  -1   8   6   56.72    7.72
  -8  10  -6   -0.61    1.90
  -2  -8  -6    2.23    1.75
  -8  10  -6    1.20    1.41
  -8  10  -6    4.59    2.27
   2   8   6    2.49    1.99
 -10   2   6    1.74    2.51
   2   8   6    4.07    1.80
  -5  -8  -6   61.97    9.58
  -8  13  -6   55.93    9.75
  -8  13  -6   52.57    9.06
  -8  13  -6   65.23    8.59
   5   8   6   82.91    8.57
   5   8   6   60.53    8.95
 -13   5   6   56.98    9.60
  -8  16  -6   -0.36    3.73
  -8  16  -6   -2.32    2.75
  -8  -8  -6    5.95    4.08
 -16   8   6   -2.89    3.07
   8   8   6   -3.58    2.29
  -6  15  -6    5.10    3.08
  -9  -6  -6    1.87    3.34
  -6  15  -6    3.05    3.52
 -15   9   6    5.60    3.34
   9   6   6    4.07    2.68
 -15   9   6   -1.44    3.07
  -3  12  -6    0.20    2.13
  -3  12  -6   -2.00    1.91
  -9  -3  -6   -1.28    2.48
   9   3   6    0.82    1.79
 -12   9   6    0.95    2.02
 -12   9   6   -0.76    2.30
  -9   0  -6   44.04    6.87
   0   9  -6   33.07    6.23
   0   9  -6   29.62    5.89
  -9   0  -6   38.31    7.23
  -9   9   6   70.32    8.24
  -9   9   6   48.94    6.19
   0  -9   6   41.77    5.47
   9   0   6   49.83    5.87
  -9   3  -6   30.65    6.65
   3   6  -6   45.36    6.28
   3   6  -6   40.79    5.99
  -9   3  -6   41.50    6.19
  -9   3  -6   35.05    6.22
  -6   9   6   51.40    5.26
  -3  -6   6   53.79    6.39
  -6   9   6   43.52    6.65
  -6   9   6   37.75    5.89
   9  -3   6   38.02    4.78
  -9   6  -6   30.92    5.33
  -9   6  -6   34.94    5.77
   6   3  -6   34.00    4.96
  -9   6  -6   30.92    6.00
  -3   9   6   40.56    5.37
  -3   9   6   33.61    5.26
  -6  -3   6   31.57    5.36
  -9   9  -6   22.47    3.94
   9   0  -6   25.59    4.20
  -9   9  -6   31.42    5.41
  -9   9  -6   25.57    4.93
   0   9   6   16.08    3.96
  -9   0   6   37.43    5.81
   0   9   6   28.42    4.51
  -9  12  -6   -2.75    1.68
  -9  12  -6    0.02    2.33
  -9  12  -6   -1.78    1.84
 -12   3   6   -1.66    2.47
   3   9   6   -1.03    2.00
   3   9   6    1.98    1.78
  -9  15  -6   -0.18    2.76
  -9  15  -6    4.64    2.75
 -15   6   6    2.93    3.43
   6   9   6    3.56    2.96
 -10  -7  -6    8.20    4.66
  -7  17  -6    9.99    4.65
  -7  17  -6    4.96    4.22
 -17  10   6   13.76    4.89
 -17  10   6    4.90    3.92
  10   7   6    3.80    3.27
  -4  14  -6    2.40    2.78
  -4  14  -6    0.82    2.91
 -10  -4  -6    1.02    2.91
  10   4   6    1.75    2.13
 -14  10   6    6.43    4.00
 -14  10   6    6.99    3.04
 -10  -1  -6   21.31    5.58
  -1  11  -6   26.48    5.32
  -1  11  -6   42.93    6.38
 -10  -1  -6   34.10    6.56
 -11  10   6   35.87    5.48
  10   1   6   30.32    4.83
 -11  10   6   27.11    5.94
 -10   2  -6    2.11    2.58
   2   8  -6    2.37    2.14
   2   8  -6    3.06    2.19
 -10   2  -6    3.02    2.61
  -8  10   6   -3.51    1.73
  -8  10   6    3.09    1.38
  10  -2   6    0.19    1.13
  -2  -8   6    3.56    1.93
 -10   5  -6    8.87    3.48
   5   5  -6    2.51    2.04
 -10   5  -6    6.82    2.83
 -10   5  -6    7.19    2.74
  -5  -5   6    8.49    2.69
  -5  10   6    9.24    2.76
  -5  10   6    7.28    1.31
  -5  10   6    7.51    2.70
  10  -5   6    7.34    1.27
 -10   8  -6    5.93    3.03
 -10   8  -6    3.00    2.55
 -10   8  -6    1.26    1.89
   8   2  -6    2.40    1.86
  -2  10   6    1.84    1.96
  -2  10   6   -0.79    1.95
  -8  -2   6   -0.69    1.90
 -10  11  -6    3.11    2.83
  -1 -10  -6    0.67    2.69
  11  -1  -6    6.88    2.36
 -10  11  -6    8.96    3.27
   1  10   6   10.22    2.79
   1  10   6    3.44    2.57
 -11   1   6    3.07    2.70
 -10  14  -6    3.94    3.20
  14  -4  -6    0.33    1.91
 -14   4   6    2.94    3.11
   4  10   6   -2.05    2.21
   4  10   6    2.49    1.95
 -10  17  -6   -2.06    3.16
 -17   7   6   -2.57    3.69
   7  10   6   -2.02    2.76
  -5  16  -6    9.85    4.45
  -5  16  -6    7.07    3.96
 -11  -5  -6    4.55    4.31
 -16  11   6   15.76    5.43
 -16  11   6    9.68    4.12
  11   5   6    5.51    3.08
 -11  -2  -6   13.25    4.82
  -2  13  -6   19.95    4.76
  -2  13  -6   21.65    4.78
 -13  11   6   12.28    4.86
  11   2   6   16.28    3.76
 -13  11   6   19.76    4.12
 -11   1  -6   35.01    7.19
   1  10  -6   32.25    6.16
 -11   1  -6   38.76    7.07
   1  10  -6   38.67    6.23
  -1 -10   6   36.89    5.39
 -10  11   6   36.41    5.38
  11  -1   6   35.06    5.19
 -10  11   6   37.98    7.10
 -11   4  -6    1.43    2.62
 -11   4  -6    3.48    2.26
 -11   4  -6    1.07    2.61
   4   7  -6   -2.33    1.77
   4   7  -6    2.56    2.27
  11  -4   6    0.93    1.03
  -7  11   6   -1.33    1.76
  -7  11   6   -1.70    1.78
  -4  -7   6    0.68    1.97
   7   4  -6    8.06    2.55
 -11   7  -6    4.78    2.73
 -11   7  -6    7.07    3.05
 -11   7  -6    6.90    3.26
  -4  11   6    3.32    2.43
  -7  -4   6    8.38    2.91
  -4  11   6    8.25    2.83
  10   1  -6    0.76    2.06
 -11  10  -6    3.84    3.05
 -11  10  -6    9.70    3.40
 -11  10  -6    6.39    2.38
 -10  -1   6    7.72    3.25
  -1  11   6    6.30    2.72
  -1  11   6    6.26    2.78
 -11  13  -6   -1.58    2.15
  13  -2  -6    3.63    2.09
 -11  13  -6   -1.37    2.44
 -13   2   6   -4.65    2.16
   2  11   6    2.29    2.05
   2  11   6    2.07    2.37
 -11  16  -6    1.55    3.22
   5  11   6   -0.82    2.59
 -16   5   6   -0.72    3.42
 -12  -3  -6   -0.90    3.25
  -3  15  -6    5.05    3.24
  -3  15  -6    0.24    2.80
 -15  12   6    1.45    2.92
 -15  12   6   -1.39    3.25
  12   3   6   -0.61    2.21
   0  12  -6    3.11    2.46
   0  12  -6    6.42    2.81
 -12   0  -6   -0.83    2.76
  12   0   6    1.08    1.86
 -12  12   6   -1.78    2.17
 -12   3  -6    0.96    2.85
 -12   3  -6   -2.64    2.71
   3   9  -6   -0.69    1.93
   3   9  -6    1.87    2.39
  -9  12   6   -0.62    2.27
  -3  -9   6   -0.11    2.05
  12  -3   6    3.73    1.55
 -12   6  -6    9.41    3.55
 -12   6  -6   11.36    4.20
 -12   6  -6    7.87    3.41
   6   6  -6   10.10    3.04
  -6  12   6   12.27    3.48
  -6  -6   6   10.48    3.26
  -6  12   6   10.78    3.18
 -12   9  -6   -0.98    2.36
 -12   9  -6   -0.47    2.09
   9   3  -6   -1.28    1.73
 -12   9  -6    3.43    2.88
  -3  12   6   -0.66    2.10
  -3  12   6    0.35    2.11
  -9  -3   6   -2.53    2.23
 -12  12  -6   26.60    5.81
  12   0  -6   14.98    3.74
 -12  12  -6   23.75    5.20
   0  12   6   19.37    4.62
 -12   0   6   12.63    4.83
   0  12   6   26.60    4.84
 -12  15  -6   -6.50    2.12
  15  -3  -6    0.15    2.13
 -15   3   6   -2.98    3.07
   3  12   6   -1.22    2.52
  -1  14  -6    8.85    3.64
 -13  -1  -6    9.32    4.47
  -1  14  -6    5.81    3.53
  13   1   6    6.22    2.73
 -14  13   6   -2.49    2.67
   2  11  -6   24.25    4.90
 -13   2  -6   18.19    5.19
 -13   2  -6   12.93    4.86
   2  11  -6    7.32    3.34
 -11  13   6    9.15    4.18
  13  -2   6   18.19    3.33
 -13   5  -6   35.61    6.39
   5   8  -6   27.04    5.26
   5   8  -6   27.62    5.21
 -13   5  -6   24.40    6.09
 -13   5  -6   25.39    5.47
  -5  -8   6   33.49    5.55
  -8  13   6   18.89    5.40
   8   5  -6   40.48    7.39
 -13   8  -6   70.60    9.07
 -13   8  -6   61.62    9.78
 -13   8  -6   54.74    9.03
  -5  13   6   65.18    8.43
  -5  13   6   58.21    8.76
  -8  -5   6   42.42    8.09
  11   2  -6   -0.04    2.03
 -13  11  -6    0.43    2.57
 -13  11  -6    3.30    2.37
 -13  11  -6   -0.49    2.77
  -2  13   6   -0.03    2.54
 -11  -2   6   -0.48    2.89
  -2  13   6    4.64    2.82
 -13  14  -6   18.46    4.61
 -13  14  -6    9.10    4.16
  14  -1  -6    9.96    3.25
   1  13   6   10.36    3.85
   1  13   6    3.88    3.07
 -14   1   6    8.44    4.21
 -14  -2  -6   -0.90    3.76
  -2  16  -6   -4.56    3.10
  -2  16  -6    2.11    3.46
  14   2   6   -0.96    2.37
 -16  14   6   -5.52    3.42
   1  13  -6    6.70    3.33
 -14   1  -6    2.57    3.24
   1  13  -6    7.64    3.68
 -13  14   6    2.12    3.90
 -14   4  -6    2.36    3.70
 -14   4  -6   -0.33    3.26
   4  10  -6   -0.64    2.40
   4  10  -6    0.81    2.47
 -10  14   6    1.19    2.74
  -4 -10   6    4.51    3.00
   7   7  -6   -0.69    2.17
 -14   7  -6    3.26    3.15
 -14   7  -6   -0.94    3.00
   7   7  -6   -0.08    2.22
 -14   7  -6    2.97    2.84
  -7  -7   6   -2.00    2.31
  -7  14   6    3.05    2.74
  -7  14   6   -0.37    2.53
  10   4  -6   -1.86    2.05
 -14  10  -6    3.64    2.96
 -14  10  -6    0.55    2.54
 -14  10  -6    1.46    2.93
 -10  -4   6   -1.53    2.55
  -4  14   6   -1.37    2.24
  -4  14   6    2.42    2.69
 -14  13  -6   19.18    5.23
  13   1  -6   10.55    3.44
 -14  13  -6   11.91    4.70
  -1  14   6   11.76    4.13
 -13  -1   6   14.22    4.94
  -1  14   6    9.69    4.21
 -14  16  -6   -0.05    2.97
 -16   2   6   -2.53    3.34
   2  14   6   -0.44    3.14
 -15   0  -6    1.29    3.99
   0  15  -6   -1.57    3.06
   0  15  -6    0.68    3.38
 -15  15   6    0.60    3.84
 -15   3  -6   -2.77    3.45
   3  12  -6   -0.42    2.56
   3  12  -6    4.84    2.91
 -12  15   6   -3.44    3.18
   6   9  -6    3.38    3.06
 -15   6  -6    1.14    3.26
   6   9  -6    1.79    2.68
 -15   6  -6    3.72    3.66
  -9  15   6    3.51    3.12
  -6  -9   6    3.18    3.09
 -15   9  -6   -0.80    2.89
   9   6  -6   11.01    3.56
 -15   9  -6    2.30    3.19
 -15   9  -6    5.10    3.78
  -6  15   6    7.01    3.54
  -9  -6   6    4.02    3.43
  -6  15   6   -0.29    2.96
  12   3  -6   -0.66    2.32
 -15  12  -6   -0.58    3.30
 -15  12  -6    2.50    3.54
 -12  -3   6    2.39    3.08
  -3  15   6    2.18    3.05
  -3  15   6    7.16    3.79
  15   0  -6    0.69    2.71
 -15  15  -6    0.12    3.70
 -15  15  -6   -0.85    3.69
   0  15   6    0.29    3.32
 -15   0   6    3.13    4.03
   2  14  -6   -3.87    2.72
   2  14  -6   -3.13    2.94
 -16   2  -6    2.01    3.81
 -14  16   6   -3.89    3.75
 -16   5  -6    6.89    4.73
   5  11  -6   14.00    4.13
   5  11  -6   11.27    4.10
 -11  16   6    4.16    3.31
 -16   8  -6   -2.10    3.16
 -16   8  -6   -1.20    3.52
   8   8  -6   -0.55    2.61
 -16   8  -6   -4.30    2.62
   8   8  -6    0.61    2.86
  -8  16   6   -4.69    2.71
  -8  16   6    3.50    3.41
  -8  -8   6    0.27    3.25
 -16  11  -6   -2.41    3.06
  11   5  -6   -0.58    2.48
 -16  11  -6   -0.49    2.88
 -16  11  -6    4.64    4.09
  -5  16   6   -1.97    2.95
 -11  -5   6    1.99    3.23
  -5  16   6   -2.47    2.60
  14   2  -6    0.07    2.50
 -16  14  -6   -3.49    3.48
 -16  14  -6    2.11    3.79
  -2  16   6   -1.43    3.05
 -14  -2   6   -0.67    3.71
  -2  16   6    5.68    4.33
   7  10  -6    2.41    3.56
 -17   7  -6    9.73    4.66
   7  10  -6    2.44    3.12
 -10  17   6    3.85    3.52
  -7 -10   6    0.50    3.32
 -17  10  -6   -0.50    3.57
  10   7  -6   -4.46    2.64
  10   7  -6    1.54    3.13
 -17  10  -6    5.72    3.75
 -17  10  -6    1.43    3.78
  -7  17   6    7.03    4.05
  -7  17   6    1.04    3.40
 -10  -7   6    1.30    4.08
  -1   0  -7    0.40    0.94
  -1   0  -7   -0.04    0.99
  -1   0  -7   -0.12    0.46
  -1   3  -7  201.45   21.52
  -2  -1  -7  230.19   24.84
  -2  -1  -7  211.37   25.98
  -1   3  -7  226.46   22.97
  -3   2   7  208.41   22.88
  -3   2   7  199.97   22.96
   2   1   7  192.21   21.52
   2   1   7  207.91   22.47
  -2   2  -7   -0.13    1.04
  -2   2  -7    1.12    1.02
   0  -2  -7   -0.49    0.82
  -2   2  -7    0.40    1.13
   0   2   7   -0.35    0.61
   0   2   7    0.26    1.12
  -2   0   7   -0.08    1.14
  -3  -2  -7   -0.38    1.23
  -3  -2  -7    0.47    1.45
  -2   5  -7    0.48    1.10
  -2   5  -7    0.01    1.27
  -3  -2  -7   -0.29    1.31
   3   2   7    0.35    1.06
  -5   3   7   -0.15    1.31
  -5   3   7    1.18    1.43
  -3   1  -7  206.40   22.19
  -3   1  -7  211.56   24.12
  -3   1  -7  212.18   21.95
  -3   1  -7  201.85   25.15
  -2   3   7  171.67   22.05
  -1  -2   7  195.84   22.03
   3  -1   7  211.70   20.62
  -3   4  -7   83.79    7.44
  -3   4  -7   57.11    8.73
  -1  -3  -7   73.82    8.55
  -3   4  -7   58.21    8.10
   1   3   7   56.25    7.66
   1   3   7   78.86    7.79
  -4   1   7   66.36    8.30
  -4  -3  -7   47.95    6.83
  -3   7  -7   57.28    5.92
  -4  -3  -7   45.29    7.36
  -3   7  -7   48.21    6.95
  -4  -3  -7   53.41    6.84
  -3   7  -7   37.81    6.55
   4   3   7   49.31    5.94
  -7   4   7   50.49    6.84
  -7   4   7   46.81    6.85
   0   4  -7   -1.78    1.20
   0   4  -7   -1.06    1.03
  -4   0  -7    0.13    1.32
  -4   0  -7    0.47    0.83
  -4   0  -7    1.89    1.51
  -4   0  -7   -1.94    1.15
  -4   4   7   -0.23    1.26
   0  -4   7   -0.89    0.87
  -4   4   7   -1.34    1.03
   4   0   7   -1.15    0.70
   0  -4   7   -0.23    0.56
  -4   3  -7   64.54    8.26
  -4   3  -7   59.25    7.50
  -4   3  -7   70.95    7.51
  -1   4   7   62.20    7.17
  -1   4   7   61.22    7.40
  -3  -1   7   63.41    7.62
  -4   6  -7   -3.08    1.53
  -4   6  -7   -4.22    1.66
  -2  -4  -7    2.98    1.25
  -4   6  -7    6.30    1.32
   2   4   7    3.72    1.50
  -6   2   7    3.35    1.99
   2   4   7    4.24    1.37
  -5  -4  -7   32.07    5.12
  -4   9  -7   23.11    4.37
  -4   9  -7   26.16    4.18
  -5  -4  -7   26.21    4.71
  -4   9  -7   22.08    4.66
  -5  -4  -7   24.52    4.79
  -9   5   7   27.18    5.03
   5   4   7   31.51    4.40
  -9   5   7   29.48    4.94
  -5  -1  -7   12.64    3.02
  -5  -1  -7   14.63    3.16
  -1   6  -7   11.95    2.58
  -1   6  -7    9.92    2.93
   5   1   7   13.45    2.28
  -6   5   7   12.59    2.98
  -6   5   7   14.63    2.65
   1  -6   7   10.49    1.89
  -5   2  -7    0.05    1.02
  -5   2  -7   -0.68    1.21
  -5   2  -7   -0.40    1.46
   2   3  -7   -0.14    1.15
  -2  -3   7    0.20    1.20
   5  -2   7    0.41    0.43
  -3   5   7    0.16    1.37
  -3   5   7   -1.72    1.17
  -5   5  -7   -1.68    1.33
  -5   5  -7    0.25    0.64
  -5   5  -7   -0.51    1.14
  -5   5  -7    1.49    1.10
  -5   0   7    1.28    1.80
   0   5   7    1.87    1.09
   0   5   7   -1.29    1.10
  -5   8  -7    5.40    2.16
  -5   8  -7    3.81    1.51
  -3  -5  -7    3.79    1.86
  -5   8  -7    4.96    1.95
  -3  -5  -7    6.10    2.33
   3   5   7    5.81    2.01
  -8   3   7    6.53    2.60
   3   5   7    7.15    1.60
  -5  11  -7    2.33    1.85
  -5  11  -7    4.12    2.15
  -6  -5  -7    1.90    2.46
  -5  11  -7    3.50    2.91
   6   5   7    2.83    1.98
   6   5   7    2.30    1.73
 -11   6   7    1.63    2.20
 -11   6   7    1.87    2.37
  -2   8  -7   16.37    3.36
  -2   8  -7   12.10    2.94
  -6  -2  -7   17.77    3.76
  -6  -2  -7   19.74    3.83
  -8   6   7   15.64    3.29
   6   2   7   13.51    2.74
  -8   6   7   17.41    3.95
  -6   1  -7    9.03    2.75
   1   5  -7    9.14    2.29
  -6   1  -7    8.66    2.71
  -6   1  -7   11.45    2.27
   1   5  -7   12.06    2.72
  -5   6   7   12.45    2.29
  -5   6   7    8.83    2.49
   6  -1   7   13.43    1.89
  -1  -5   7    9.72    2.15
  -6   4  -7    3.78    1.75
  -6   4  -7    3.26    2.10
  -6   4  -7    4.32    1.76
  -2   6   7    4.28    1.69
  -2   6   7    2.04    1.67
  -4  -2   7    1.81    1.66
  -6   7  -7   -1.06    1.34
  -6   7  -7    1.87    1.75
  -6   7  -7    1.84    1.09
  -7   1   7   -0.67    1.78
   1   6   7    3.99    1.35
   1   6   7   -0.84    1.20
  -6  10  -7   -0.36    1.50
  -6  10  -7    0.95    2.05
  -4  -6  -7    1.58    2.08
  -6  10  -7    0.57    1.42
  -4  -6  -7   -0.38    1.44
 -10   4   7    0.78    2.14
   4   6   7   -1.14    1.54
   4   6   7    1.69    1.47
  -6  13  -7    4.95    2.48
  -7  -6  -7    4.16    3.07
  -6  13  -7    1.98    2.91
 -13   7   7    2.07    2.77
   7   6   7    1.47    2.08
 -13   7   7    4.39    3.47
   7   6   7    5.03    2.50
  -3  10  -7   13.36    3.82
  -7  -3  -7   23.12    4.46
  -3  10  -7   23.03    3.99
  -3  10  -7   20.99    3.84
  -7  -3  -7   19.90    4.27
 -10   7   7   18.97    3.87
 -10   7   7   21.63    4.63
   7   3   7   10.22    3.03
  -7   0  -7   -0.91    1.40
   0   7  -7   -0.12    1.29
   0   7  -7    0.82    1.71
  -7   0  -7   -0.02    1.74
   7   0   7   -0.81    0.94
   0  -7   7   -0.10    1.08
  -7   7   7    0.43    1.25
  -7   7   7   -0.70    1.56
  -7   3  -7   58.39    7.93
  -7   3  -7   41.45    6.57
   3   4  -7   47.33    5.87
  -7   3  -7   49.90    6.30
  -4   7   7   44.51    6.28
   7  -3   7   44.67    5.13
  -4   7   7   53.86    5.83
  -3  -4   7   51.64    6.22
  -4   7   7   48.18    6.72
  -7   6  -7   -1.93    1.02
  -7   6  -7    0.53    1.74
  -7   6  -7    0.93    1.74
  -1   7   7   -0.29    1.48
  -6  -1   7    0.37    1.51
  -1   7   7   -0.06    1.30
  -7   9  -7    5.13    2.39
  -7   9  -7    9.06    3.11
  -2  -7  -7   12.93    2.88
  -7   9  -7   10.13    2.11
  -9   2   7    4.52    2.60
   2   7   7   10.25    2.26
   2   7   7    6.76    2.36
  -5  -7  -7    7.71    3.19
  -7  12  -7    7.09    2.54
  -7  12  -7    9.00    3.25
  -7  12  -7    6.52    2.57
   5   7   7    8.88    3.07
   5   7   7   10.17    2.52
 -12   5   7    7.78    3.41
  -7  15  -7   -1.95    2.86
  -7  15  -7    0.52    2.71
  -8  -7  -7    0.55    3.08
 -15   8   7   -3.27    2.83
 -15   8   7    1.09    2.82
   8   7   7    0.39    2.58
  -4  12  -7    9.54    3.05
  -8  -4  -7    7.92    3.11
  -4  12  -7    5.14    2.22
  -4  12  -7    4.14    2.84
 -12   8   7    7.46    3.85
 -12   8   7    5.93    2.67
   8   4   7    4.18    2.29
  -8  -1  -7    1.27    2.57
  -1   9  -7    3.25    2.46
  -8  -1  -7    3.19    2.40
  -1   9  -7    5.11    2.45
  -9   8   7    4.91    3.03
   1  -9   7    6.95    1.43
   8   1   7    8.53    2.07
  -9   8   7    7.02    2.37
  -8   2  -7   10.95    3.34
  -8   2  -7   15.30    3.12
   2   6  -7   13.79    3.03
  -8   2  -7   17.04    3.94
   2   6  -7   16.71    3.46
  -6   8   7   16.48    2.72
  -6   8   7   13.50    3.26
  -2  -6   7   11.92    2.79
   8  -2   7   18.95    2.44
  -8   5  -7    2.03    1.90
  -8   5  -7    2.23    2.34
  -8   5  -7    5.99    2.15
   5   3  -7    5.12    1.89
  -5  -3   7    4.63    2.12
  -3   8   7    9.34    2.39
  -3   8   7    5.68    2.02
  -8   8  -7   -1.12    1.69
  -8   8  -7    0.38    1.33
  -8   8  -7   -3.36    1.63
  -8   0   7    1.10    1.76
   0   8   7   -2.76    1.13
   0   8   7    1.51    1.50
  -8  11  -7   -0.23    1.89
  -8  11  -7   -0.68    2.36
  -8  11  -7    1.10    1.54
  -3  -8  -7   -1.91    1.40
 -11   3   7    1.19    2.57
   3   8   7   -0.15    1.95
   3   8   7   -1.77    1.89
  -8  14  -7    5.42    3.52
  -8  14  -7    4.89    2.55
   6   8   7    6.71    3.19
 -14   6   7    4.68    3.23
  -8  17  -7   -4.39    2.86
  -8  17  -7    1.01    3.78
   9   8   7    1.29    2.84
 -17   9   7    0.67    3.62
  -9  -5  -7    6.05    3.76
  -5  14  -7   -0.92    2.48
  -5  14  -7    5.83    3.55
   9   5   7    1.13    2.21
 -14   9   7    5.10    3.06
 -14   9   7   10.87    3.62
  -9  -2  -7   25.97    5.80
  -9  -2  -7   24.26    5.30
  -2  11  -7   18.84    4.77
  -2  11  -7   33.47    5.06
  -2  11  -7   23.99    4.75
   9   2   7   33.34    4.72
 -11   9   7   28.91    4.99
 -11   9   7   29.01    5.91
  -9   1  -7    3.46    2.63
   1   8  -7    6.73    2.38
   1   8  -7    7.05    2.59
  -9   1  -7    5.35    2.73
   9  -1   7    2.13    1.35
  -1  -8   7    4.85    1.93
  -8   9   7    3.67    2.59
  -8   9   7    6.08    1.98
  -9   4  -7   22.08    4.33
   4   5  -7   23.83    4.22
  -9   4  -7   30.17    4.91
  -9   4  -7   21.17    4.86
  -4  -5   7   25.33    4.46
  -5   9   7   29.22    4.47
  -5   9   7   29.15    3.47
  -5   9   7   26.15    4.64
   9  -4   7   23.18    2.93
   7   2  -7    6.05    2.23
  -9   7  -7    9.17    2.41
  -9   7  -7    6.02    2.67
  -9   7  -7   12.06    3.36
  -7  -2   7   11.93    3.11
  -2   9   7    8.12    2.49
  -2   9   7    9.39    2.74
  -1  -9  -7    3.19    2.57
  -9  10  -7    4.99    2.55
  -9  10  -7    7.01    2.83
   1   9   7    3.25    2.05
   1   9   7    2.47    1.84
 -10   1   7   -0.34    2.27
  -9  13  -7    4.66    2.82
  -9  13  -7    6.41    2.58
  -9  13  -7    6.54    3.41
   4   9   7    8.32    2.65
   4   9   7    6.49    2.92
 -13   4   7    2.90    2.94
  -9  16  -7    4.90    3.55
 -16   7   7   -3.70    2.65
   7   9   7    0.62    2.64
  -6  16  -7    0.79    3.22
 -10  -6  -7   -2.13    3.07
  -6  16  -7    1.40    3.15
  10   6   7   -1.88    2.31
 -16  10   7   -4.18    2.63
 -16  10   7   -1.90    2.83
 -10  -3  -7    1.48    2.83
  -3  13  -7   -1.91    2.34
  -3  13  -7    1.14    2.68
 -13  10   7    1.57    2.56
 -13  10   7    1.84    2.99
  10   3   7    0.85    1.93
 -10   0  -7    3.82    3.05
 -10   0  -7    0.26    2.31
   0  10  -7   -1.31    1.85
   0  10  -7    1.66    2.46
   0 -10   7   -1.36    1.28
 -10  10   7    0.79    1.55
  10   0   7   -0.23    1.33
 -10  10   7    2.42    2.60
 -10   3  -7   16.36    3.47
   3   7  -7   10.78    2.96
 -10   3  -7   13.86    3.88
   3   7  -7   17.48    3.66
 -10   3  -7   11.59    3.64
  -7  10   7   13.76    3.64
  -7  10   7   10.18    2.29
  10  -3   7   17.44    2.41
  -3  -7   7   12.61    3.18
 -10   6  -7   -1.09    2.12
   6   4  -7    0.21    1.60
 -10   6  -7    3.58    2.46
 -10   6  -7   -2.75    1.77
  -4  10   7   -1.82    0.92
  -6  -4   7    1.00    2.06
  -4  10   7   -1.25    1.65
  -4  10   7    0.72    1.88
 -10   9  -7    4.85    2.80
 -10   9  -7   -1.41    1.92
 -10   9  -7   -0.05    1.59
   9   1  -7   -0.11    1.52
  -9  -1   7   -0.43    2.33
  -1  10   7    1.26    2.06
  -1  10   7    0.23    1.78
  12  -2  -7    4.15    2.11
 -10  12  -7    3.56    2.74
 -10  12  -7    3.05    2.91
   2  10   7    6.63    2.38
 -12   2   7    1.74    2.80
   2  10   7    2.25    2.59
 -10  15  -7    9.25    4.39
 -15   5   7   -0.73    3.11
   5  10   7    7.13    3.59
 -11  -4  -7    9.89    4.78
  -4  15  -7   11.02    4.62
  -4  15  -7   18.14    4.61
 -15  11   7   12.90    5.10
 -15  11   7   21.30    4.94
  11   4   7   17.44    4.20
 -11  -1  -7   10.04    3.77
  -1  12  -7   15.95    4.00
  -1  12  -7    9.79    3.53
 -12  11   7    9.25    3.71
  11   1   7   14.72    3.12
 -12  11   7    5.71    2.81
 -11   2  -7   19.92    5.23
   2   9  -7   30.14    5.08
   2   9  -7   17.96    4.31
 -11   2  -7   18.41    5.29
  -9  11   7   34.65    4.26
  11  -2   7   26.67    3.93
  -2  -9   7   27.84    4.53
  -9  11   7   22.75    5.21
 -11   5  -7    6.56    3.34
   5   6  -7    5.45    2.49
 -11   5  -7    9.47    3.13
 -11   5  -7    4.17    2.51
  11  -5   7    4.80    1.13
  -6  11   7    4.00    2.33
  -6  11   7    4.91    2.65
  -5  -6   7    4.37    2.47
 -11   8  -7   -2.27    1.94
   8   3  -7    1.09    1.78
 -11   8  -7   -0.38    2.31
 -11   8  -7    0.74    1.91
  -3  11   7    1.43    2.24
  -8  -3   7   -0.46    2.15
  -3  11   7    2.10    2.07
  11   0  -7    2.47    2.13
 -11  11  -7    1.75    2.61
 -11  11  -7   -0.45    2.33
 -11   0   7    1.24    2.43
   0  11   7   -1.25    2.05
   0  11   7   -4.55    1.57
 -11  14  -7   -2.82    2.55
 -11  14  -7    0.06    2.46
  14  -3  -7    0.13    1.82
 -14   3   7    1.21    2.97
   3  11   7    1.04    2.09
   3  11   7   -1.52    2.14
 -11  17  -7    8.32    4.75
 -17   6   7    6.92    4.26
   6  11   7    7.24    3.89
  -5  17  -7    0.86    3.41
 -12  -5  -7    4.14    4.13
  -5  17  -7    0.58    3.45
 -17  12   7    1.64    4.35
  12   5   7    2.16    2.84
 -17  12   7    2.23    3.38
  -2  14  -7   -0.44    2.28
  -2  14  -7    6.02    3.50
 -12  -2  -7    0.08    2.93
  12   2   7    3.07    2.22
 -14  12   7   -1.28    2.48
 -14  12   7   -0.44    2.52
   1  11  -7   13.48    3.60
 -12   1  -7   10.46    4.42
   1  11  -7    7.69    3.22
 -12   1  -7    6.62    4.19
 -11  12   7   10.24    3.91
  12  -1   7   13.17    2.88
   4   8  -7    6.22    2.80
 -12   4  -7    5.32    3.16
 -12   4  -7    5.19    3.28
 -12   4  -7    2.87    2.38
   4   8  -7   -0.29    2.19
  -8  12   7    2.11    2.69
  -4  -8   7    3.38    2.33
 -12   7  -7    7.31    3.06
   7   5  -7    5.48    2.76
 -12   7  -7    5.89    3.42
 -12   7  -7    2.60    2.93
  -5  12   7    4.46    2.87
  -5  12   7    6.65    2.96
  -7  -5   7    9.65    3.23
 -12  10  -7    6.18    3.15
 -12  10  -7    1.78    2.10
 -12  10  -7    4.82    3.22
  10   2  -7    2.12    2.18
 -10  -2   7    4.99    2.99
  -2  12   7    1.14    2.55
  -2  12   7    1.62    2.40
 -12  13  -7    8.64    3.90
 -12  13  -7    1.82    2.91
  13  -1  -7    1.60    2.03
   1  12   7    2.73    2.84
 -13   1   7    0.70    2.75
   1  12   7    7.83    2.73
 -12  16  -7    0.16    3.45
   4  12   7   -2.74    2.57
 -16   4   7   -4.62    3.14
 -13  -3  -7   -2.27    3.28
  -3  16  -7    4.39    3.73
  -3  16  -7   -1.90    2.89
 -16  13   7    6.32    3.97
  13   3   7    0.12    2.43
   0  13  -7   -1.84    2.06
 -13   0  -7   -2.11    2.59
   0  13  -7   -0.29    2.35
 -13  13   7   -1.50    2.49
  13   0   7    1.54    2.05
   3  10  -7    2.14    2.60
   3  10  -7    1.58    2.23
 -13   3  -7    2.68    3.11
 -13   3  -7   -0.02    3.05
  -3 -10   7    1.50    2.48
 -10  13   7    4.57    3.23
   6   7  -7    1.34    2.43
 -13   6  -7    2.17    2.95
 -13   6  -7    4.07    3.32
 -13   6  -7    0.93    2.59
   6   7  -7    6.59    2.96
  -7  13   7    4.38    2.93
  -7  13   7    4.23    2.67
  -6  -7   7    2.44    2.38
 -13   9  -7   -0.08    3.00
 -13   9  -7    4.42    3.20
 -13   9  -7    7.84    2.98
   9   4  -7    5.59    2.83
  -9  -4   7    5.56    3.23
  -4  13   7    3.70    2.87
  -4  13   7   10.86    3.74
 -13  12  -7    1.05    2.80
  12   1  -7    0.27    2.07
 -13  12  -7    4.86    3.47
  -1  13   7    3.01    3.19
  -1  13   7    2.67    2.63
 -12  -1   7   -1.13    2.95
  15  -2  -7    3.91    2.58
 -13  15  -7    2.65    3.61
 -15   2   7    0.43    3.29
   2  13   7   -3.65    2.28
 -14  -1  -7    4.88    3.93
  -1  15  -7    2.71    3.50
  -1  15  -7    0.19    3.10
 -15  14   7    0.38    4.01
   2  12  -7    2.02    2.88
   2  12  -7    1.50    2.73
 -14   2  -7   -3.40    2.79
 -12  14   7    6.17    3.67
   5   9  -7    1.61    2.57
 -14   5  -7    2.20    3.45
   5   9  -7    2.39    2.59
 -14   5  -7    1.87    3.33
  -9  14   7    5.49    3.44
  -5  -9   7    1.19    2.86
   8   6  -7    4.35    2.97
 -14   8  -7    6.79    3.29
 -14   8  -7    3.00    3.50
 -14   8  -7    8.41    3.45
  -6  14   7    4.51    3.11
  -8  -6   7    4.71    3.07
  -6  14   7    7.20    3.28
 -14  11  -7   -0.45    3.16
 -14  11  -7   -0.21    2.35
 -14  11  -7    2.77    3.23
  11   3  -7   -2.82    1.79
  -3  14   7    2.83    2.81
  -3  14   7    0.60    2.47
 -11  -3   7   -2.39    2.61
 -14  14  -7   -0.02    3.17
  14   0  -7    1.52    2.36
 -14  14  -7    0.89    3.21
   0  14   7   -1.74    2.44
 -14   0   7    2.84    3.34
   0  14   7    0.24    3.22
   1  14  -7    9.98    4.44
 -15   1  -7    1.24    3.78
   1  14  -7    3.06    3.01
 -14  15   7    8.30    5.25
   4  11  -7    7.19    3.36
 -15   4  -7   12.04    4.95
 -15   4  -7    6.69    4.33
   4  11  -7   16.19    4.39
 -11  15   7   18.02    5.12
   7   8  -7   -3.61    1.96
 -15   7  -7   -2.77    2.79
   7   8  -7   -1.89    2.28
 -15   7  -7   -1.61    2.56
 -15   7  -7   -3.52    2.32
  -8  15   7    4.50    3.25
  -8  15   7    3.84    3.38
  -7  -8   7    6.15    3.36
 -15  10  -7    7.81    3.37
 -15  10  -7    3.18    3.91
  10   5  -7    8.68    3.51
 -15  10  -7    7.23    4.25
  -5  15   7   11.10    4.11
  -5  15   7    5.44    3.71
 -10  -5   7    5.36    3.56
 -15  13  -7    2.84    3.94
 -15  13  -7    3.28    3.88
  13   2  -7    2.70    2.76
 -13  -2   7    2.11    3.23
  -2  15   7   -3.26    2.34
  -2  15   7    4.14    3.22
 -16   3  -7    3.32    3.98
   3  13  -7    0.24    3.24
   3  13  -7    2.49    2.88
 -13  16   7   -0.86    3.46
 -16   6  -7   -4.33    2.98
   6  10  -7    0.52    2.81
   6  10  -7    0.31    2.56
 -16   6  -7    0.59    3.14
  -6 -10   7    1.28    3.18
 -10  16   7   -0.13    3.50
 -16   9  -7   -0.48    3.19
   9   7  -7   -4.30    2.38
 -16   9  -7   -4.06    2.53
 -16   9  -7    0.99    3.59
   9   7  -7    0.58    2.81
  -9  -7   7   -2.06    2.86
  -7  16   7    1.30    3.30
  -7  16   7    0.69    3.20
  12   4  -7   -0.13    2.62
 -16  12  -7   -0.15    3.64
 -16  12  -7   -0.50    3.56
 -12  -4   7   -4.07    3.03
  -4  16   7   -1.26    2.98
  -4  16   7    2.82    3.00
   5  12  -7    0.80    3.08
 -17   5  -7   -0.42    3.94
   5  12  -7    7.74    4.27
 -12  17   7   -4.45    3.50
 -17   8  -7   -1.72    3.49
 -17   8  -7    0.58    3.31
   8   9  -7   -2.26    2.64
   8   9  -7    0.89    2.97
 -17   8  -7    0.08    3.88
  -8  -9   7    3.88    3.91
  -9  17   7    0.03    3.20
 -17  11  -7    3.51    3.83
 -17  11  -7   12.34    5.03
 -17  11  -7    3.60    4.55
  11   6  -7    0.50    3.12
  -6  17   7   -0.13    3.13
  -6  17   7    5.06    3.97
 -11  -6   7    3.61    4.14
  -1   1  -8   88.06   12.37
  -1   1  -8  108.32   10.88
   0   2  -8   37.36    4.93
  -2   0  -8   39.67    5.38
  -2   0  -8   34.31    4.21
  -2   0  -8   38.27    5.10
   2   0   8   37.12    4.18
   2   0   8   38.08    4.21
  -2   2   8   41.34    4.69
  -1  -2  -8  105.27   10.54
  -2   3  -8   85.91   11.88
  -1  -2  -8   93.96   11.72
  -2   3  -8  103.40   11.03
  -2   3  -8   82.45   10.11
   1   2   8  108.90   10.44
  -3   1   8  102.67   11.10
  -3  -1  -8    4.84    2.03
  -3  -1  -8    3.73    1.62
  -1   4  -8    6.51    1.46
  -3  -1  -8    4.13    1.71
  -1   4  -8    1.80    1.54
  -4   3   8    4.82    1.66
   3   1   8    4.68    1.36
  -4   3   8    5.23    1.70
  -3   2  -8   89.83   11.62
  -3   2  -8   84.85    9.60
  -3   2  -8  102.98   10.57
  -2  -1   8   97.36   10.69
  -1   3   8  107.74   10.52
  -1   3   8   87.75   10.12
  -2  -3  -8   -0.63    1.02
  -3   5  -8   -0.52    0.90
  -3   5  -8    2.04    1.53
  -2  -3  -8   -0.22    1.39
  -3   5  -8    0.63    1.28
  -5   2   8    1.11    1.42
   2   3   8   -0.85    1.16
   2   3   8    1.31    0.69
  -4  -2  -8    0.29    1.34
  -2   6  -8    0.53    1.17
  -2   6  -8   -1.89    2.72
  -4  -2  -8   -2.30    1.40
  -4  -2  -8   -1.24    1.51
  -6   4   8   -1.25    1.54
  -6   4   8    0.45    1.49
   4   2   8   -0.97    0.99
  -4   1  -8    6.03    2.07
  -4   1  -8    3.23    1.89
  -4   1  -8    3.65    1.61
  -4   1  -8    5.09    1.28
   4  -1   8    5.16    0.95
  -3   4   8    2.15    1.55
  -1  -3   8    3.50    1.33
  -4   4  -8    6.47    1.73
   0  -4  -8    3.62    1.05
  -4   4  -8    5.61    0.91
  -4   4  -8    4.07    1.68
  -4   0   8    6.02    1.89
   0   4   8    3.34    1.22
   0   4   8    3.88    1.61
  -4   7  -8    0.39    1.09
  -4   7  -8    4.99    2.00
  -3  -4  -8    1.61    1.32
  -4   7  -8   -0.33    1.54
  -3  -4  -8    0.41    1.57
  -3  -4  -8    2.01    1.79
  -7   3   8    0.03    1.36
   3   4   8    2.56    1.60
  -7   3   8   -0.62    1.74
   3   4   8    1.25    1.02
  -5  -3  -8   34.42    5.65
  -3   8  -8   43.31    5.68
  -5  -3  -8   31.63    5.50
  -3   8  -8   42.04    5.14
  -3   8  -8   30.59    5.51
  -5  -3  -8   37.33    6.04
   5   3   8   32.44    4.82
  -8   5   8   28.05    5.32
  -8   5   8   37.72    5.88
  -5   0  -8   22.75    4.18
   0   5  -8   29.90    4.32
  -5   0  -8   25.36    4.63
   0   5  -8   33.07    4.20
  -5   5   8   28.80    4.06
   5   0   8   28.10    3.56
  -5   5   8   24.62    4.28
   0  -5   8   27.19    3.69
   2  -5  -8    0.11    0.44
  -5   3  -8   -0.60    1.44
  -5   3  -8   -0.07    1.19
  -5   3  -8   -1.52    1.19
  -3  -2   8    0.78    1.34
  -2   5   8   -1.88    1.01
  -2   5   8    0.71    1.32
  -5   6  -8   61.34    5.61
  -5   6  -8   43.08    6.69
  -5   6  -8   51.67    6.96
   1   5   8   45.85    6.00
  -6   1   8   58.53    7.44
   1   5   8   38.43    6.11
  -4  -5  -8    9.57    2.82
  -5   9  -8    7.19    2.57
  -4  -5  -8   14.87    3.33
  -5   9  -8    4.31    2.37
  -5   9  -8   11.05    2.43
   4   5   8   15.70    2.43
  -9   4   8    7.09    2.74
  -9   4   8    7.75    2.88
   4   5   8   12.75    2.67
  -4  10  -8    2.55    2.09
  -4  10  -8    2.90    2.43
  -4  10  -8    6.71    2.24
  -6  -4  -8    8.09    3.01
   6   4   8    8.57    2.36
 -10   6   8    9.12    3.19
 -10   6   8    7.41    2.77
  -1   7  -8    0.57    1.76
  -6  -1  -8   -1.92    1.68
  -1   7  -8    1.44    1.60
  -6  -1  -8    0.50    1.57
  -7   6   8   -0.83    1.66
   1  -7   8   -1.21    0.75
  -7   6   8   -0.22    1.35
   6   1   8    1.92    1.24
   2   4  -8    0.36    1.15
  -6   2  -8    3.31    1.50
  -6   2  -8   -0.79    1.61
  -6   2  -8    0.49    1.62
  -4   6   8    1.29    1.51
  -4   6   8   -1.90    1.29
   6  -2   8    1.35    0.62
  -2  -4   8   -0.60    1.37
  -6   5  -8   57.07    6.97
  -6   5  -8   55.64    7.51
  -6   5  -8   51.74    6.55
  -5  -1   8   54.82    7.41
  -1   6   8   49.18    6.49
  -1   6   8   54.22    6.85
  -2  -6  -8    1.95    1.82
  -6   8  -8    3.28    1.89
  -6   8  -8    0.74    1.16
  -6   8  -8    2.20    1.74
   2   6   8    1.00    1.72
  -8   2   8   -0.53    1.78
   2   6   8    3.22    1.35
  -6  11  -8   -0.36    1.85
  -6  11  -8   -0.47    1.42
  -6  11  -8   -2.29    1.68
  -5  -6  -8   -0.49    1.46
  -5  -6  -8    0.46    2.34
   5   6   8   -0.44    1.74
 -11   5   8   -1.03    1.64
 -11   5   8    1.19    2.35
   5   6   8    0.84    1.39
  -5  12  -8   -0.04    1.93
  -5  12  -8    7.79    3.51
  -5  12  -8    8.53    2.87
  -7  -5  -8   11.74    3.91
 -12   7   8    9.09    3.25
   7   5   8    6.63    2.25
   7   5   8   11.52    2.90
 -12   7   8    9.27    3.41
  -7  -2  -8    0.63    2.07
  -2   9  -8    2.68    1.78
  -2   9  -8    4.12    2.16
  -7  -2  -8    3.30    2.43
  -9   7   8    1.51    2.06
  -9   7   8   -0.41    1.71
   7   2   8    1.73    1.51
  -7   1  -8    1.18    1.86
  -7   1  -8   -1.07    1.05
  -7   1  -8   -0.27    1.90
   1   6  -8   -0.58    1.38
   1   6  -8    1.39    1.58
  -6   7   8    2.51    1.41
   7  -1   8   -0.31    0.80
  -6   7   8    0.51    1.77
  -1  -6   8    1.48    1.31
  -7   4  -8    0.64    1.49
  -7   4  -8    2.43    1.64
   4   3  -8    0.04    1.20
  -7   4  -8    0.45    1.83
  -3   7   8    0.98    1.49
  -4  -3   8   -0.29    1.55
  -3   7   8    3.35    1.70
  -7   7  -8   29.76    5.65
  -7   7  -8   40.82    4.99
  -7   7  -8   33.24    6.05
   0   7   8   40.80    5.59
   0   7   8   36.48    5.20
  -7   0   8   41.16    6.14
  -7  10  -8   25.41    3.62
  -7  10  -8   16.22    4.21
  -7  10  -8   21.75    4.34
  -3  -7  -8   19.23    4.25
 -10   3   8   17.53    4.48
   3   7   8   21.02    3.54
   3   7   8   20.91    4.00
  -7  13  -8   16.84    3.51
  -7  13  -8   15.79    3.49
  -6  -7  -8   11.69    4.13
  -7  13  -8    8.90    3.89
   6   7   8    7.47    3.06
   6   7   8   18.03    3.25
 -13   6   8    9.20    3.79
  -6  14  -8    7.88    3.09
  -6  14  -8    6.74    3.78
  -8  -6  -8    0.97    3.16
 -14   8   8    4.80    3.44
   8   6   8    3.06    2.59
 -14   8   8    3.71    3.24
  -8  -3  -8    6.33    2.97
  -8  -3  -8    4.78    2.62
  -3  11  -8    4.36    2.32
  -3  11  -8    1.35    2.08
  -3  11  -8   -0.35    2.32
   8   3   8    4.18    2.04
 -11   8   8    9.64    3.05
 -11   8   8    3.78    2.62
  -8   0  -8   22.33    4.39
  -8   0  -8   11.06    3.65
   0   8  -8   19.95    4.19
   0   8  -8   17.61    3.44
   8   0   8   21.02    3.13
   0  -8   8   17.10    2.97
  -8   8   8   21.35    3.57
  -8   8   8   14.82    3.93
  -8   3  -8   33.68    6.23
   3   5  -8   30.59    4.76
  -8   3  -8   28.45    5.20
  -8   3  -8   31.16    5.04
   8  -3   8   34.76    3.76
  -5   8   8   37.50    5.58
  -5   8   8   32.30    5.06
  -3  -5   8   40.81    5.27
  -5   8   8   30.03    4.35
  -8   6  -8    2.38    1.85
  -8   6  -8    3.10    1.66
   6   2  -8    1.75    1.54
  -8   6  -8    2.38    2.21
  -6  -2   8    0.42    1.66
  -2   8   8    5.26    1.88
  -2   8   8    2.99    1.88
  -1  -8  -8    8.01    3.03
  -8   9  -8   10.31    3.17
  -8   9  -8    9.31    3.26
   1   8   8   12.86    2.60
  -9   1   8    9.71    3.09
   1   8   8    8.34    2.77
  -8  12  -8    2.83    2.99
  -8  12  -8    1.97    1.86
  -8  12  -8    1.92    2.28
  -4  -8  -8    3.56    2.14
   4   8   8    3.42    1.93
   4   8   8    5.14    2.64
 -12   4   8    1.77    2.84
  -8  15  -8    4.92    3.18
  -8  15  -8   12.03    4.58
 -15   7   8    9.09    3.57
   7   8   8    4.96    3.28
  -9  -7  -8    2.98    3.53
  -7  16  -8    6.37    3.65
  -7  16  -8   -0.13    3.20
   9   7   8    5.99    3.20
 -16   9   8    1.16    3.94
 -16   9   8   -0.92    3.37
  -4  13  -8    2.56    2.89
  -9  -4  -8   -3.89    2.26
  -4  13  -8   -0.04    2.30
 -13   9   8   -4.05    2.05
   9   4   8   -0.72    1.82
 -13   9   8   -0.39    2.53
  -1  10  -8    0.76    2.51
  -9  -1  -8    3.16    2.88
  -1  10  -8    2.36    2.19
  -9  -1  -8    6.31    3.03
   9   1   8   -0.32    1.45
 -10   9   8    2.54    2.29
 -10   9   8   -2.02    1.68
  -9   2  -8   -1.05    1.97
  -9   2  -8    6.36    2.70
   2   7  -8    2.11    2.05
   2   7  -8    1.06    1.73
  -9   2  -8    2.67    1.82
  -7   9   8    1.18    1.35
  -2  -7   8    0.47    1.49
   9  -2   8    2.36    1.10
  -7   9   8    1.21    1.88
  -9   5  -8    8.40    3.13
  -9   5  -8    9.51    2.78
  -9   5  -8   13.00    2.94
   5   4  -8    7.81    2.55
  -4   9   8   11.08    2.97
  -5  -4   8   11.61    2.95
  -4   9   8   11.78    2.89
  -9   8  -8   12.05    3.29
   8   1  -8   13.07    2.85
  -9   8  -8   11.90    2.70
  -9   8  -8   11.14    3.39
  -1   9   8    9.05    2.72
  -8  -1   8    8.21    2.91
  -1   9   8    9.30    2.62
  -9  11  -8   27.18    5.81
  -9  11  -8   36.43    6.10
  -2  -9  -8   31.80    5.37
 -11   2   8   19.95    5.18
   2   9   8   32.27    5.56
   2   9   8   29.40    4.85
  -9  14  -8    8.53    3.00
  -9  14  -8    3.06    3.08
   5   9   8    6.43    2.99
 -14   5   8    4.57    3.34
  -9  17  -8   11.87    5.07
   8   9   8    5.52    3.78
 -17   8   8    6.71    4.39
  -5  15  -8    2.32    2.66
 -10  -5  -8    4.62    3.87
  -5  15  -8    2.91    3.27
 -15  10   8    4.03    2.96
 -15  10   8   -2.89    2.54
  10   5   8   -0.28    2.31
 -10  -2  -8    2.49    2.90
  -2  12  -8    4.58    2.83
  -2  12  -8    0.09    2.15
 -12  10   8    1.65    2.25
 -12  10   8    4.91    3.76
  10   2   8    1.94    2.00
   1   9  -8    2.39    2.43
 -10   1  -8    1.15    2.38
 -10   1  -8    1.79    2.78
   1   9  -8    1.78    2.19
  -9  10   8    0.74    2.03
  -1  -9   8    0.03    1.51
  -9  10   8   -2.78    1.20
  10  -1   8   -0.05    1.27
 -10   4  -8    6.80    2.80
 -10   4  -8    4.58    2.75
 -10   4  -8    8.23    2.57
   4   6  -8    0.45    1.89
   4   6  -8    3.07    2.25
  10  -4   8    6.51    1.20
  -6  10   8    5.30    1.46
  -4  -6   8    5.15    2.30
  -6  10   8    3.46    2.35
  -6  10   8    5.00    2.50
 -10   7  -8   13.08    3.24
   7   3  -8   17.96    3.37
 -10   7  -8   14.23    4.14
 -10   7  -8   17.99    3.99
  -3  10   8   19.75    3.77
  -3  10   8   18.16    3.79
  -7  -3   8   11.19    3.37
 -10  10  -8    2.29    2.64
  10   0  -8    8.66    2.66
 -10  10  -8    9.46    3.47
 -10   0   8    3.08    3.00
   0  10   8    7.64    3.10
   0  10   8   10.51    2.91
 -10  13  -8    5.62    3.27
 -10  13  -8    4.54    2.87
   3  10   8    0.47    2.40
 -13   3   8    4.27    3.21
   3  10   8    7.31    2.38
 -10  16  -8    4.27    4.12
   6  10   8    5.35    3.41
 -16   6   8   -5.07    2.84
  -6  17  -8   -1.23    3.05
  -6  17  -8    3.17    3.62
 -11  -6  -8   -4.33    3.51
 -17  11   8   -2.40    3.01
  11   6   8    3.20    3.08
 -17  11   8    6.55    4.52
  -3  14  -8    1.84    2.94
 -11  -3  -8   -1.68    3.05
  -3  14  -8    0.52    2.62
 -14  11   8    0.62    2.38
  11   3   8   -2.14    1.80
 -14  11   8    1.32    2.88
   0  11  -8    2.56    2.66
 -11   0  -8    2.50    3.38
 -11   0  -8    1.26    3.00
   0  11  -8    0.01    2.36
 -11  11   8   -2.83    2.58
  11   0   8    1.80    1.78
 -11  11   8   -0.17    1.78
 -11   3  -8    3.74    2.79
   3   8  -8    2.50    2.34
 -11   3  -8    3.30    3.05
   3   8  -8   11.38    3.34
 -11   3  -8    2.93    2.19
  -8  11   8    6.40    1.83
  -3  -8   8    3.21    2.26
  11  -3   8    4.98    1.55
  -8  11   8   -0.56    2.33
 -11   6  -8   -0.51    2.20
   6   5  -8    2.17    1.89
 -11   6  -8    0.00    2.03
 -11   6  -8   -0.79    1.97
  -6  -5   8    0.08    2.13
  -5  11   8   -1.00    1.89
  -5  11   8   -2.30    1.77
 -11   9  -8   25.50    5.05
 -11   9  -8   34.61    6.27
 -11   9  -8   33.31    6.51
   9   2  -8   31.69    5.07
  -9  -2   8   28.95    5.88
  -2  11   8   39.96    5.74
  -2  11   8   29.60    5.66
  12  -1  -8    0.06    1.83
 -11  12  -8    2.96    2.94
 -11  12  -8    0.07    2.54
   1  11   8   -1.23    1.91
   1  11   8    1.22    1.87
 -12   1   8    1.11    2.66
  15  -4  -8    2.64    2.43
 -11  15  -8   12.33    4.40
   4  11   8    1.77    2.89
 -15   4   8    7.95    4.15
  -4  16  -8    7.30    4.07
 -12  -4  -8   -4.70    3.42
  -4  16  -8    7.27    3.61
 -16  12   8   -2.15    3.35
  12   4   8   -0.95    2.55
 -16  12   8   -0.88    3.17
  -1  13  -8   -0.47    2.55
  -1  13  -8    6.22    3.11
 -12  -1  -8    0.47    2.81
  12   1   8    3.52    2.23
 -13  12   8    2.74    1.96
 -13  12   8    0.46    3.01
 -12   2  -8    0.04    2.71
 -12   2  -8   -0.30    3.00
   2  10  -8    4.66    3.00
   2  10  -8    2.27    2.23
 -10  12   8    4.43    3.07
  -2 -10   8    4.67    2.50
  12  -2   8   -0.51    1.39
   5   7  -8    1.89    2.35
 -12   5  -8    7.35    3.22
   5   7  -8    5.08    2.57
 -12   5  -8    5.48    2.73
 -12   5  -8    6.33    3.40
  -5  -7   8    5.41    2.77
  -7  12   8   -1.04    1.92
  -7  12   8    7.07    3.07
   8   4  -8   -2.39    1.86
 -12   8  -8    4.83    3.28
 -12   8  -8    5.02    2.51
 -12   8  -8    6.88    3.34
  -8  -4   8    4.50    2.73
  -4  12   8    4.39    2.70
  -4  12   8    2.50    2.60
 -12  11  -8   -2.89    1.75
  11   1  -8    0.52    1.88
 -12  11  -8   -0.63    2.22
 -12  11  -8   -1.95    2.64
 -11  -1   8   -0.05    2.36
  -1  12   8    2.96    2.62
  -1  12   8   -1.61    1.97
 -12  14  -8   -0.63    2.77
 -12  14  -8    2.65    3.04
  14  -2  -8    0.23    2.15
 -14   2   8    1.83    3.10
   2  12   8    1.21    2.81
   2  12   8    5.66    2.45
 -12  17  -8    1.34    4.07
 -17   5   8    3.57    4.36
   5  12   8   -0.42    3.08
  -2  15  -8    1.17    3.19
  -2  15  -8    8.98    4.02
 -13  -2  -8    1.50    3.84
  13   2   8    4.61    2.95
 -15  13   8    4.52    3.84
   1  12  -8    1.45    2.64
 -13   1  -8    3.37    3.36
 -13   1  -8    3.82    3.21
   1  12  -8   -0.86    2.53
 -12  13   8   -0.24    2.86
  13  -1   8    0.35    2.06
 -13   4  -8    0.48    2.77
   4   9  -8    0.32    2.12
 -13   4  -8   -1.59    2.34
   4   9  -8    3.07    2.63
  -4  -9   8    1.36    2.36
  -9  13   8   -1.76    1.82
 -13   7  -8    8.82    3.93
 -13   7  -8    8.74    4.30
   7   6  -8   14.23    3.91
 -13   7  -8   11.49    3.92
  -6  13   8   16.23    4.08
  -7  -6   8   17.18    4.20
  -6  13   8   10.23    3.88
  10   3  -8    3.88    2.51
 -13  10  -8    3.38    2.95
 -13  10  -8    2.45    2.58
 -13  10  -8    0.17    2.66
  -3  13   8    1.72    2.97
 -10  -3   8    5.98    3.30
  -3  13   8    4.03    2.95
  13   0  -8   29.21    5.50
 -13  13  -8   39.47    7.21
 -13  13  -8   40.11    7.65
   0  13   8   34.97    6.06
 -13   0   8   25.64    6.46
   0  13   8   24.48    5.67
 -13  16  -8    2.81    4.18
   3  13   8    9.08    4.15
 -16   3   8    6.63    4.75
   0  14  -8    4.41    3.37
   0  14  -8    0.21    2.80
 -14   0  -8   -1.76    2.99
 -14  14   8   -2.82    3.44
 -14   3  -8    1.40    3.35
 -14   3  -8   -1.03    2.88
   3  11  -8    5.62    3.20
   3  11  -8   -2.35    2.16
 -11  14   8    5.97    3.87
 -14   6  -8    4.73    3.49
   6   8  -8    6.91    3.05
 -14   6  -8    0.23    2.81
   6   8  -8    2.68    2.67
 -14   6  -8    5.19    3.89
  -8  14   8   11.03    3.99
  -6  -8   8    7.35    3.48
   9   5  -8    5.97    3.06
 -14   9  -8    7.12    4.16
 -14   9  -8    4.88    3.01
 -14   9  -8   12.17    4.46
  -9  -5   8    4.13    3.31
  -5  14   8    1.95    3.04
  -5  14   8    4.46    3.09
 -14  12  -8    3.05    3.34
  12   2  -8   -0.12    2.27
 -14  12  -8    5.64    3.49
  -2  14   8    1.32    2.51
  -2  14   8    0.53    2.94
 -12  -2   8   -4.40    2.51
 -14  15  -8   -3.65    2.86
  15  -1  -8   -0.28    2.39
 -14  15  -8    3.39    3.77
   1  14   8    1.24    3.30
 -15   1   8   -0.40    3.57
   2  13  -8    3.08    3.19
   2  13  -8    6.16    3.31
 -15   2  -8    4.31    3.78
 -13  15   8   -3.89    2.99
 -15   5  -8    1.00    3.14
   5  10  -8   -1.16    2.51
   5  10  -8   -0.97    2.62
 -15   5  -8    1.16    3.25
 -10  15   8    1.70    3.14
  -5 -10   8   -3.19    2.52
 -15   8  -8    0.47    3.65
   8   7  -8    1.12    2.81
 -15   8  -8    8.49    3.71
   8   7  -8    1.56    2.92
 -15   8  -8    7.09    4.13
  -7  15   8    3.72    3.28
  -7  15   8    8.51    3.91
  -8  -7   8    6.24    3.56
 -15  11  -8    6.69    4.34
 -15  11  -8    6.92    4.19
  11   4  -8    4.23    3.16
 -15  11  -8    9.79    3.71
  -4  15   8    4.68    3.30
  -4  15   8    8.03    4.21
 -11  -4   8   13.50    4.54
 -15  14  -8    3.76    3.77
 -15  14  -8    2.78    3.84
  14   1  -8    0.07    2.62
  -1  15   8    1.10    2.78
 -14  -1   8    2.76    3.84
  -1  15   8    2.17    3.07
 -16   4  -8    4.33    4.06
   4  12  -8    3.63    3.24
   4  12  -8    0.32    2.63
 -12  16   8    3.04    3.94
   7   9  -8   -0.88    2.74
 -16   7  -8    3.90    4.52
 -16   7  -8   -0.74    3.20
   7   9  -8   -0.09    2.61
 -16   7  -8    0.24    3.22
  -9  16   8   -0.02    2.60
  -7  -9   8    1.11    3.47
 -16  10  -8    1.08    3.72
 -16  10  -8   -3.04    3.28
 -16  10  -8    1.35    3.19
  10   6  -8    0.64    2.54
 -10  -6   8    6.64    3.90
  -6  16   8   -2.49    2.77
  -6  16   8    1.27    3.49
  13   3  -8    7.87    3.41
 -16  13  -8    6.41    4.59
 -16  13  -8   10.38    4.91
  -3  16   8    2.88    3.63
 -13  -3   8   11.33    4.92
  -3  16   8    4.81    3.50
 -17   6  -8    0.27    3.65
   6  11  -8    0.94    3.40
 -17   6  -8    3.14    4.17
   6  11  -8    5.55    3.82
 -11  17   8    2.98    3.46
   9   8  -8    6.57    3.70
 -17   9  -8   14.69    6.00
 -17   9  -8    3.68    4.13
 -17   9  -8   -0.08    3.56
   9   8  -8   -2.90    2.78
  -8  17   8    6.25    4.06
  -9  -8   8    4.21    4.03
  -8  17   8    1.38    3.87
 -17  12  -8   -0.95    3.90
  12   5  -8    3.30    3.40
 -17  12  -8   10.37    5.16
  -5  17   8   -0.19    3.23
  -5  17   8    3.04    3.75
 -12  -5   8    6.37    4.34
  -1  -1  -9   20.22    3.06
  -1   2  -9   22.24    3.21
  -1  -1  -9   18.14    2.20
  -1   2  -9   17.95    2.84
   1   1   9   20.77    2.75
  -2   1  -9   22.54    3.48
  -2   1  -9   18.53    2.71
  -2   1  -9   21.80    3.64
  -1   2   9   21.72    2.86
  -2   4  -9    1.87    0.97
  -2   4  -9    0.78    1.35
  -2  -2  -9   -0.04    1.21
  -2  -2  -9    2.57    1.66
  -4   2   9    2.28    1.54
   2   2   9    1.11    1.04
  -4   2   9    1.28    1.32
   0   3  -9    0.38    0.80
   0   3  -9   -0.40    1.14
  -3   0  -9    0.35    0.61
  -3   0  -9    0.07    1.39
  -3   0  -9   -1.08    1.40
  -3   3   9    0.49    1.32
   0  -3   9   -0.04    1.08
   3   0   9    0.38    0.79
   0  -3  -9    0.50    0.82
  -3   3  -9    1.04    1.40
  -3   3  -9    0.22    1.16
   0   3   9    0.42    1.26
  -3   0   9    1.04    1.32
   0   3   9   -0.15    0.76
  -3  -3  -9   23.62    4.60
  -3   6  -9   22.64    3.32
  -3  -3  -9   21.10    3.85
  -3   6  -9   15.74    4.14
  -3  -3  -9   26.96    4.05
   3   3   9   23.29    3.62
   3   3   9   29.05    3.23
  -6   3   9   23.43    3.86
  -6   3   9   20.05    3.93
  -4  -1  -9   88.22   12.69
  -4  -1  -9  100.06   11.96
  -1   5  -9  105.85   11.05
  -4  -1  -9   98.61   13.37
  -1   5  -9   90.48   11.76
  -5   4   9   92.02   11.89
   1  -5   9  124.88   11.38
  -5   4   9  106.15   11.74
   4   1   9   98.69   10.93
  -4   2  -9    0.95    0.47
  -4   2  -9    2.09    1.46
  -4   2  -9    3.23    1.29
  -4   2  -9    2.61    1.76
  -2   4   9    2.80    1.24
  -2  -2   9   -0.20    1.26
  -2   4   9    1.69    1.55
  -4   5  -9    7.22    2.13
  -4   5  -9    3.52    1.87
  -1  -4  -9   13.38    1.86
  -4   5  -9    6.93    1.28
   1   4   9    4.19    1.67
   1   4   9    6.90    1.42
  -5   1   9    6.08    2.15
  -4   8  -9    5.10    1.99
  -4   8  -9    7.34    1.92
  -4  -4  -9    8.79    2.57
  -4  -4  -9    6.83    2.30
  -4   8  -9    6.32    2.26
  -4  -4  -9    5.67    2.09
   4   4   9    2.75    1.69
  -8   4   9    7.30    2.61
   4   4   9    5.55    1.48
  -8   4   9    3.05    2.21
  -5  -2  -9   18.02    4.00
  -2   7  -9   25.57    4.14
  -5  -2  -9   23.32    4.15
  -5  -2  -9   24.66    4.43
  -2   7  -9   21.00    3.41
  -7   5   9   18.58    3.59
  -7   5   9   25.15    4.31
   5   2   9   22.27    3.43
   2  -7   9   19.46    2.72
   1   4  -9   85.44   10.61
  -5   1  -9   91.97   12.41
  -5   1  -9   94.20   11.46
   1   4  -9  108.16   11.39
  -5   1  -9   94.79   11.00
   5  -1   9   97.31   10.27
  -1  -4   9  118.36   11.19
  -4   5   9   91.51   11.09
  -4   5   9   98.61   11.44
  -5   4  -9    7.82    2.35
  -5   4  -9   10.38    2.31
  -1   5   9   11.76    2.09
  -4  -1   9   10.05    2.43
  -1   5   9    6.14    1.91
  -5   7  -9   32.49    3.97
  -5   7  -9   27.83    4.98
  -5   7  -9   32.41    5.00
  -2  -5  -9   27.18    4.37
  -2  -5  -9   33.25    5.34
   2   5   9   34.32    4.66
   2   5   9   29.23    3.89
  -7   2   9   30.06    4.93
  -5  10  -9    5.08    2.04
  -5  10  -9    3.63    2.37
  -5  10  -9    2.17    1.85
  -5  -5  -9    5.93    2.35
  -5  -5  -9    4.58    2.51
 -10   5   9    2.56    2.44
   5   5   9    1.74    1.38
 -10   5   9    1.45    2.35
   5   5   9    3.34    2.22
  -6  -3  -9   57.33    7.77
  -3   9  -9   53.54    7.39
  -3   9  -9   47.18    6.58
  -6  -3  -9   41.93    7.53
  -3   9  -9   45.11    7.30
  -9   6   9   64.17    7.69
  -9   6   9   36.74    7.10
   6   3   9   54.39    6.74
   0   6  -9   -2.02    1.37
  -6   0  -9   -1.01    1.38
  -6   0  -9   -1.67    1.71
   0   6  -9    0.96    1.24
   0  -6   9   -0.86    0.93
  -6   6   9    0.92    1.84
   6   0   9    0.27    0.88
  -6   6   9    3.32    1.55
  -6   3  -9   25.19    3.80
  -6   3  -9   21.72    3.79
  -6   3  -9   24.46    4.54
  -3   6   9   21.38    3.74
  -3  -3   9   27.22    4.04
  -3   6   9   23.04    3.79
  -6   6  -9   -0.31    1.41
  -6   6  -9    0.07    0.66
  -6   6  -9   -1.18    1.41
   0   6   9    0.58    1.11
   0   6   9   -0.67    1.17
  -6   0   9    0.83    1.67
  -6   9  -9    9.14    2.72
  -6   9  -9   12.51    2.29
  -3  -6  -9   13.32    3.23
  -6   9  -9    8.67    2.82
   3   6   9    5.86    2.43
  -9   3   9   12.89    3.46
   3   6   9   11.76    2.25
  -6  12  -9    0.22    2.00
  -6  -6  -9    5.46    3.19
  -6  12  -9    5.26    2.20
  -6  12  -9    5.62    3.11
   6   6   9    3.50    2.21
 -12   6   9    2.77    2.62
   6   6   9    6.25    2.05
 -12   6   9    0.57    2.15
  -7  -4  -9   30.40    5.85
  -4  11  -9   37.20    5.82
  -4  11  -9   36.08    6.40
  -4  11  -9   27.24    5.12
   7   4   9   28.41    4.98
 -11   7   9   34.61    5.75
 -11   7   9   32.00    6.33
  -1   8  -9    2.87    1.76
  -1   8  -9   -1.82    1.82
  -7  -1  -9    3.37    2.09
  -7  -1  -9   -0.08    1.83
   7   1   9    1.67    1.30
   1  -8   9   -0.64    0.93
  -8   7   9   -2.73    1.24
  -8   7   9    1.96    2.08
   2   5  -9   18.62    3.55
  -7   2  -9   21.78    4.07
  -7   2  -9   17.20    4.22
  -7   2  -9   18.51    3.52
   2   5  -9   20.56    3.80
  -5   7   9   23.88    4.13
   7  -2   9   22.77    2.86
  -5   7   9   28.84    3.61
  -2  -5   9   30.38    3.98
  -7   5  -9   25.24    4.39
  -7   5  -9   23.03    4.75
  -7   5  -9   23.51    4.14
  -2   7   9   36.58    4.71
  -5  -2   9   32.84    4.97
  -2   7   9   26.54    4.19
  -7   8  -9    2.98    1.22
  -7   8  -9    1.69    2.05
  -7   8  -9    2.80    2.01
  -8   1   9    3.34    2.15
   1   7   9    1.89    1.44
   1   7   9    4.66    1.94
  -4  -7  -9   50.46    7.18
  -7  11  -9   36.19    6.59
  -7  11  -9   55.91    5.71
  -7  11  -9   27.49    6.31
   4   7   9   43.71    5.92
 -11   4   9   39.87    6.88
   4   7   9   29.26    5.81
  -7  14  -9    2.08    2.37
  -7  14  -9    1.04    2.84
 -14   7   9    0.54    2.73
   7   7   9    0.43    2.43
  -8  -5  -9   -0.43    2.75
  -5  13  -9   -1.20    2.11
  -5  13  -9   -2.29    2.62
   8   5   9    2.40    2.21
 -13   8   9    0.94    2.78
 -13   8   9   -0.11    2.51
  -8  -2  -9   14.62    4.11
  -2  10  -9   12.23    3.61
  -2  10  -9   10.44    2.98
  -8  -2  -9   11.20    3.39
   8   2   9   11.43    2.76
 -10   8   9   14.67    3.57
 -10   8   9   11.85    3.87
   1   7  -9    3.09    2.13
  -8   1  -9    1.38    2.13
  -8   1  -9   -2.35    1.46
   1   7  -9    2.37    1.77
  -7   8   9    1.47    1.49
  -1  -7   9    0.26    1.27
  -7   8   9    1.95    1.82
   8  -1   9    0.01    1.02
  -8   4  -9    5.13    1.95
  -8   4  -9    4.61    2.11
  -8   4  -9    2.86    2.26
   4   4  -9    4.25    1.95
  -4   8   9    4.89    2.07
  -4  -4   9    8.02    2.31
  -4   8   9    6.61    2.39
  -8   7  -9    1.49    1.66
  -8   7  -9    3.88    2.30
  -8   7  -9    2.59    2.05
  -7  -1   9    1.82    2.13
  -1   8   9    2.11    1.58
  -1   8   9    5.67    2.29
  -8  10  -9    1.58    1.23
  -2  -8  -9    2.16    2.00
  -8  10  -9    1.30    2.05
  -8  10  -9    0.53    1.86
   2   8   9    0.18    1.27
   2   8   9   -1.46    1.82
 -10   2   9    0.88    2.34
  -8  13  -9    3.76    3.04
  -8  13  -9    2.15    2.23
  -8  13  -9    0.61    1.93
   5   8   9   -2.24    2.03
 -13   5   9    2.06    3.03
   5   8   9    3.26    1.87
  -8  16  -9    2.60    3.17
  -8  16  -9   -0.32    2.87
   8   8   9   -0.17    2.60
 -16   8   9    3.75    3.61
  -9  -6  -9    8.09    4.21
  -6  15  -9    0.62    3.01
  -6  15  -9    1.53    3.44
 -15   9   9    2.56    3.26
   9   6   9    2.95    2.82
 -15   9   9    3.22    3.18
  -9  -3  -9   14.40    4.43
  -3  12  -9   20.93    4.05
  -3  12  -9   24.24    4.46
  -3  12  -9   16.56    4.66
 -12   9   9   14.30    4.38
 -12   9   9   17.23    4.10
   9   3   9   19.31    3.78
   0   9  -9   -0.69    2.23
  -9   0  -9   -2.22    2.28
   0   9  -9    0.49    1.71
  -9   0  -9    1.63    2.18
   0  -9   9    1.87    1.44
   9   0   9    0.18    1.18
  -9   9   9   -0.33    1.65
  -9   9   9   -0.38    2.33
   3   6  -9   43.14    6.50
   3   6  -9   46.93    7.07
  -9   3  -9   47.85    6.80
  -9   3  -9   40.36    7.77
  -9   3  -9   41.29    7.11
  -6   9   9   51.71    7.45
  -3  -6   9   55.63    7.00
   9  -3   9   53.39    5.44
  -6   9   9   48.06    6.05
  -9   6  -9    7.89    2.79
   6   3  -9   10.59    2.64
  -9   6  -9    7.32    2.51
  -9   6  -9    8.26    3.35
  -3   9   9   13.07    3.08
  -3   9   9    9.92    2.74
  -6  -3   9   10.46    3.07
  -9   9  -9    1.93    2.19
  -9   9  -9    0.37    1.85
  -9   0   9    0.57    2.12
   0   9   9   -1.65    1.35
   0   9   9    0.52    1.86
  -9  12  -9    0.68    1.66
  -9  12  -9    0.84    2.32
  -3  -9  -9    3.74    2.17
  -9  12  -9    1.96    2.86
 -12   3   9   -1.82    2.47
   3   9   9    2.49    1.67
   3   9   9   -0.40    1.94
  -9  15  -9    7.00    4.21
 -15   6   9   10.05    4.02
   6   9   9    4.30    3.25
  -7  17  -9    3.45    3.63
  -7  17  -9    5.66    4.42
 -17  10   9    4.75    4.15
  10   7   9   -2.69    2.56
 -17  10   9    9.12    5.02
  -4  14  -9   14.58    4.48
 -10  -4  -9   17.02    4.93
  -4  14  -9   19.24    4.31
  10   4   9   13.81    3.78
 -14  10   9   10.29    4.71
 -14  10   9    9.56    3.96
 -10  -1  -9   30.24    6.35
  -1  11  -9   30.99    5.75
  -1  11  -9   27.68    5.27
 -10  -1  -9   26.26    5.77
 -11  10   9   26.97    5.03
  10   1   9   27.11    4.48
 -11  10   9   29.61    6.00
   2   8  -9   19.11    3.73
   2   8  -9    9.60    3.29
 -10   2  -9   11.50    3.72
 -10   2  -9   10.00    3.77
  -8  10   9    9.94    3.53
  -8  10   9   16.69    2.93
  10  -2   9   13.10    2.37
  -2  -8   9    8.99    2.68
 -10   5  -9    4.00    2.36
   5   5  -9    3.20    1.90
 -10   5  -9    0.83    2.78
 -10   5  -9    4.64    2.42
  -5  -5   9    3.75    2.22
  -5  10   9    3.70    2.29
  -5  10   9    4.63    1.35
  -5  10   9    2.10    2.25
 -10   8  -9   -1.55    1.42
 -10   8  -9   -1.19    2.16
   8   2  -9   -0.14    1.72
 -10   8  -9    0.79    2.47
  -2  10   9    0.83    1.68
  -8  -2   9    2.36    2.30
  -2  10   9   -2.20    1.59
 -10  11  -9   16.49    4.45
 -10  11  -9   22.26    4.85
  -1 -10  -9   17.93    4.64
   1  10   9   12.45    3.35
 -11   1   9   14.95    4.04
   1  10   9   13.84    3.82
 -10  14  -9    3.93    3.12
 -10  14  -9   -0.41    2.60
 -14   4   9    9.09    3.83
   4  10   9    8.02    3.44
 -10  17  -9    2.50    3.89
   7  10   9   -2.00    2.74
 -17   7   9   -0.45    4.03
  -5  16  -9   -1.00    3.33
  -5  16  -9   -0.74    2.83
 -11  -5  -9   -2.39    3.39
  11   5   9    3.50    2.77
 -16  11   9    3.60    3.76
 -16  11   9    0.53    3.27
  -2  13  -9   -0.36    2.21
 -11  -2  -9   -2.09    2.74
  -2  13  -9    5.37    3.32
 -13  11   9    1.56    3.13
 -13  11   9   -2.42    1.87
  11   2   9    1.77    1.86
 -11   1  -9   37.20    6.83
   1  10  -9   33.34    5.87
 -11   1  -9   30.87    7.09
   1  10  -9   34.04    6.28
 -10  11   9   33.32    5.27
  -1 -10   9   46.40    5.66
  11  -1   9   35.86    5.03
 -10  11   9   24.77    6.25
   4   7  -9   25.14    5.23
 -11   4  -9   38.63    5.68
 -11   4  -9   27.90    5.59
   4   7  -9   30.97    5.32
 -11   4  -9   29.71    6.34
  -7  11   9   28.75    4.18
  -4  -7   9   41.51    5.59
  -7  11   9   23.88    5.49
  11  -4   9   29.64    3.64
 -11   7  -9   43.67    7.63
 -11   7  -9   38.58    6.66
 -11   7  -9   35.78    6.27
   7   4  -9   39.26    6.26
  -7  -4   9   48.31    7.19
  -4  11   9   36.36    6.42
  -4  11   9   49.71    6.80
 -11  10  -9   14.51    4.36
  10   1  -9   14.63    3.52
 -11  10  -9   17.51    4.70
  -1  11   9   15.75    3.64
  -1  11   9   14.62    3.79
 -10  -1   9   18.26    4.48
 -11  13  -9    1.54    2.75
  13  -2  -9   -0.19    1.96
 -11  13  -9    3.98    3.39
   2  11   9    6.06    2.43
 -13   2   9   -0.78    2.30
   2  11   9    1.49    2.47
 -11  16  -9    4.62    3.91
 -16   5   9   -1.95    3.35
   5  11   9   -0.78    2.70
  -3  15  -9    9.88    4.04
  -3  15  -9   13.51    4.78
 -12  -3  -9   19.74    5.61
  12   3   9    9.53    3.65
 -15  12   9    7.23    4.44
 -15  12   9   13.42    4.12
   0  12  -9    0.35    2.29
   0  12  -9    2.96    2.81
 -12   0  -9   -1.11    2.20
 -12   0  -9    3.14    3.26
  12   0   9    0.97    1.83
 -12  12   9    1.33    2.03
 -12  12   9    0.70    2.86
   3   9  -9   21.72    4.47
 -12   3  -9   16.48    4.76
   3   9  -9   15.49    4.22
 -12   3  -9   22.85    5.37
  -9  12   9   18.19    4.85
  -3  -9   9   17.14    3.79
 -12   6  -9    1.34    2.93
   6   6  -9    1.49    2.29
 -12   6  -9    0.16    2.50
 -12   6  -9    4.06    2.59
  -6  12   9    7.39    3.07
  -6  12   9    0.94    2.47
  -6  -6   9    5.47    2.60
 -12   9  -9   -1.58    2.27
 -12   9  -9    0.41    2.36
 -12   9  -9    1.02    2.19
   9   3  -9   -0.42    1.94
  -3  12   9    3.61    2.52
  -9  -3   9    4.33    3.02
  -3  12   9    0.24    2.47
  12   0  -9    1.24    2.01
 -12  12  -9   -0.98    2.45
 -12  12  -9   -0.30    2.30
   0  12   9    2.88    2.68
   0  12   9    0.14    2.08
 -12   0   9    0.11    2.68
  15  -3  -9    1.41    2.38
 -12  15  -9    2.58    3.61
   3  12   9    9.98    3.98
 -15   3   9    2.23    3.55
 -13  -1  -9   -3.03    3.30
  -1  14  -9    1.98    3.36
  -1  14  -9    0.90    2.70
  13   1   9    2.58    2.23
 -14  13   9    1.07    3.14
 -13   2  -9   -0.88    2.94
   2  11  -9    3.35    2.50
 -13   2  -9    1.74    3.33
   2  11  -9    0.76    2.40
 -11  13   9    2.51    3.17
 -13   5  -9   -2.22    2.46
   5   8  -9   -2.09    1.97
 -13   5  -9   -1.07    2.33
 -13   5  -9   -4.22    2.44
   5   8  -9   -0.98    2.22
  -8  13   9    0.20    2.22
  -5  -8   9   -1.17    2.27
   8   5  -9    1.59    2.10
 -13   8  -9    0.58    2.93
 -13   8  -9   -2.24    2.01
 -13   8  -9    2.69    2.84
  -5  13   9   -0.47    2.07
  -5  13   9   -1.65    1.97
  -8  -5   9    3.44    2.73
  11   2  -9    1.76    2.21
 -13  11  -9    2.62    3.14
 -13  11  -9    0.41    3.11
 -13  11  -9    0.24    2.24
  -2  13   9    3.16    2.49
  -2  13   9   -0.27    2.59
 -11  -2   9    3.24    2.97
 -13  14  -9   -0.57    3.00
 -13  14  -9    1.48    3.05
  14  -1  -9    2.24    2.61
 -14   1   9    0.95    2.87
   1  13   9   -0.77    2.85
  -2  16  -9   11.73    4.76
  -2  16  -9    5.02    4.16
 -14  -2  -9    2.00    3.60
 -16  14   9    1.21    3.43
 -14   1  -9   -2.80    2.82
   1  13  -9    3.42    2.98
   1  13  -9   -0.17    2.54
 -13  14   9   -4.80    2.54
 -14   4  -9    5.53    3.75
   4  10  -9    7.44    3.73
 -14   4  -9   14.05    4.56
   4  10  -9   19.18    4.44
 -10  14   9    8.45    3.97
  -4 -10   9   15.42    3.95
 -14   7  -9    2.78    2.84
   7   7  -9    0.46    2.10
 -14   7  -9    3.06    3.07
   7   7  -9   -3.31    2.12
 -14   7  -9    3.63    3.36
  -7  14   9   -4.34    2.13
  -7  -7   9   -1.10    2.48
  -7  14   9   -3.30    2.38
 -14  10  -9    6.17    3.75
 -14  10  -9    2.92    3.14
  10   4  -9    3.74    2.90
 -14  10  -9    5.50    2.91
  -4  14   9    1.82    2.55
 -10  -4   9   -1.54    3.04
  -4  14   9    1.75    3.13
 -14  13  -9    3.13    3.55
  13   1  -9    1.07    2.40
 -14  13  -9    7.58    3.74
 -13  -1   9   -0.25    3.16
  -1  14   9   -1.09    2.85
  -1  14   9    1.06    2.46
 -14  16  -9   -9.09    3.07
   2  14   9   -1.83    3.10
 -16   2   9    0.10    3.57
   0  15  -9    1.25    3.32
 -15   0  -9    1.79    3.74
   0  15  -9    0.43    3.43
 -15  15   9   -0.66    3.82
   3  12  -9    6.83    3.48
   3  12  -9   12.42    3.98
 -15   3  -9    6.11    4.32
 -15   3  -9   10.74    4.64
 -12  15   9   10.73    4.76
 -15   6  -9    7.02    3.44
 -15   6  -9    5.45    3.52
 -15   6  -9    2.42    3.89
   6   9  -9    8.69    3.89
   6   9  -9    0.68    2.78
  -9  15   9    7.11    3.82
  -6  -9   9    5.89    3.23
 -15   9  -9    3.01    3.64
   9   6  -9    6.26    3.39
 -15   9  -9    5.74    3.43
 -15   9  -9    6.72    4.09
  -6  15   9   -0.78    3.00
  -6  15   9    6.83    3.48
  -9  -6   9    2.72    3.22
  12   3  -9    8.55    3.48
 -15  12  -9    5.87    4.47
 -15  12  -9   12.97    4.81
  -3  15   9   13.33    3.99
 -12  -3   9    3.17    3.76
  -3  15   9    8.22    4.10
 -15  15  -9    2.01    4.10
 -15  15  -9    2.68    4.33
  15   0  -9    4.22    2.94
 -15   0   9    2.65    3.93
   0  15   9   -3.02    3.12
   2  14  -9    7.22    3.90
 -16   2  -9    5.01    4.67
   2  14  -9    3.05    3.59
 -14  16   9    3.80    4.79
 -16   5  -9    0.84    3.59
   5  11  -9   -6.20    2.24
 -16   5  -9    8.92    4.20
   5  11  -9   -0.01    2.70
 -11  16   9   -1.62    3.24
 -16   8  -9   -2.92    3.13
 -16   8  -9   -1.08    2.91
   8   8  -9   -4.75    2.29
 -16   8  -9    0.00    2.92
   8   8  -9   -4.41    2.17
  -8  -8   9   -2.60    2.63
  -8  16   9   -0.67    2.75
 -16  11  -9    1.52    3.50
  11   5  -9   -1.27    2.61
 -16  11  -9    4.72    3.82
 -16  11  -9    1.55    3.92
  -5  16   9    2.29    3.54
  -5  16   9   -1.99    2.49
 -11  -5   9    2.61    3.34
  14   2  -9    2.34    2.95
 -16  14  -9    4.22    4.43
 -16  14  -9   -2.34    3.88
 -14  -2   9    2.01    3.93
  -2  16   9    0.55    3.56
   7  10  -9    1.48    3.27
 -17   7  -9    2.75    4.39
   7  10  -9    4.11    3.76
 -17   7  -9    8.47    4.63
 -10  17   9    1.51    3.67
  10   7  -9   -2.38    3.07
  10   7  -9    5.01    3.52
 -17  10  -9   -4.01    3.12
 -17  10  -9    8.04    4.10
 -17  10  -9    1.11    3.93
 -10  -7   9    2.97    3.94
  -7  17   9    6.85    3.77
  -7  17   9    0.79    3.50
  -1   0 -10   42.08    6.04
  -1   0 -10   49.40    6.41
  -2  -1 -10   90.78   10.47
  -2  -1 -10   92.36   11.07
  -1   3 -10   76.41   10.67
  -1   3 -10   83.75    9.71
   2   1  10   83.57    9.05
  -3   2  10   80.50    9.73
  -3   2  10   85.06    9.75
  -2   2 -10   18.87    3.20
  -2   2 -10   18.60    2.50
  -2   2 -10   15.92    2.97
  -2   0  10   13.13    2.62
   0   2  10   12.18    2.03
   0   2  10   22.89    2.85
  -3  -2 -10    1.73    1.40
  -2   5 -10    1.52    1.11
  -2   5 -10    2.11    1.62
  -3  -2 -10    2.23    1.63
  -5   3  10    1.39    1.32
  -5   3  10    0.58    1.56
   3   2  10    1.62    1.14
   3   2  10    0.01    0.50
  -3   1 -10   89.20    9.84
  -3   1 -10   91.87   11.06
  -3   1 -10   88.29   11.62
  -2   3  10   97.69   10.11
  -1  -2  10   75.74   10.02
  -3   4 -10    6.55    1.90
  -1  -3 -10   10.60    1.89
  -3   4 -10    8.12    1.43
  -3   4 -10    5.68    2.05
  -4   1  10   10.08    2.19
   1   3  10    7.13    1.78
   1   3  10    8.08    1.31
  -3   7 -10   40.70    4.65
  -4  -3 -10   36.02    5.64
  -3   7 -10   31.69    5.17
  -4  -3 -10   32.95    5.29
  -3   7 -10   24.27    4.79
  -4  -3 -10   31.85    5.14
   3  -7  10   33.27    3.81
  -7   4  10   32.41    5.10
   4   3  10   29.46    3.87
   4   3  10   32.41    4.56
  -7   4  10   28.10    4.93
   0   4 -10   19.13    2.65
  -4   0 -10   15.62    3.02
  -4   0 -10   12.60    2.16
   0   4 -10   14.53    2.97
  -4   0 -10   10.07    2.88
  -4   0 -10   17.77    3.49
   0  -4  10   18.04    2.66
   4   0  10   18.20    2.36
  -4   4  10   17.06    2.80
  -4   4  10   18.12    3.19
   1  -4 -10    7.72    1.56
  -4   3 -10    6.15    1.79
  -4   3 -10    8.75    2.36
  -1   4  10   10.32    2.06
  -3  -1  10    5.65    2.00
  -1   4  10    6.91    1.61
  -2  -4 -10    3.51    1.35
  -2  -4 -10    2.28    2.03
  -4   6 -10    1.83    1.06
  -4   6 -10    0.85    1.58
  -4   6 -10    1.22    1.52
   2   4  10    1.03    0.88
  -6   2  10    3.51    1.91
   2   4  10    3.28    1.52
  -4   9 -10    2.23    1.55
  -5  -4 -10   -1.66    1.54
  -4   9 -10   -0.59    1.64
  -5  -4 -10    1.52    2.13
  -4   9 -10   -2.06    1.72
  -5  -4 -10    0.08    1.65
   5   4  10    0.10    1.46
  -9   5  10    1.03    2.10
  -9   5  10    2.08    1.99
   5   4  10   -0.68    1.07
  -5  -1 -10   84.05   13.00
  -5  -1 -10   94.84   11.70
  -1   6 -10   94.99   11.66
  -1   6 -10  124.46   11.01
  -5  -1 -10   86.65   12.51
   1  -6  10   89.30   10.96
  -6   5  10  111.51   11.92
   5   1  10  106.05   10.72
  -6   5  10  103.93   11.55
  -5   2 -10    2.32    1.72
  -5   2 -10   -0.01    1.48
  -5   2 -10    0.06    1.00
  -2  -3  10    0.68    1.31
   5  -2  10    1.79    0.66
  -3   5  10    0.66    1.21
  -5   5 -10  218.54   22.02
  -5   5 -10  226.03   24.08
  -5   5 -10  209.47   26.02
   0   5  10  196.61   23.56
  -5   0  10  235.16   24.14
  -3  -5 -10   10.38    2.34
  -5   8 -10   13.56    2.98
  -3  -5 -10    8.29    2.63
  -5   8 -10    4.95    1.84
  -5   8 -10    9.88    2.62
   3   5  10    9.11    1.78
   3   5  10    6.42    2.25
  -8   3  10   11.93    3.24
  -6  -5 -10   26.69    5.29
  -5  11 -10   13.07    4.18
  -5  11 -10   30.10    4.52
  -5  11 -10   25.01    5.41
 -11   6  10   26.76    5.20
 -11   6  10   27.46    5.10
   6   5  10   26.48    3.88
   6   5  10   22.54    4.29
  -6  -2 -10   -0.19    1.70
  -2   8 -10    3.64    1.95
  -2   8 -10    0.40    1.55
  -6  -2 -10    1.89    2.05
   6   2  10    1.60    1.36
  -8   6  10    1.52    1.63
  -8   6  10    0.14    1.70
   2  -8  10    2.58    0.90
  -6   1 -10   84.65   10.69
   1   5 -10   94.20   10.72
  -6   1 -10   88.84   10.24
   1   5 -10  107.74   10.13
  -6   1 -10   86.27   11.65
  -5   6  10   92.56   10.39
  -5   6  10   91.13   10.73
  -1  -5  10   76.97   10.23
   6  -1  10   89.75    9.55
  -6   4 -10    1.99    1.50
  -6   4 -10    2.41    1.57
  -6   4 -10    1.67    1.96
  -2   6  10    0.88    1.72
  -2   6  10    0.53    1.21
  -4  -2  10   -0.66    1.26
  -6   7 -10   -1.31    1.63
  -6   7 -10   -0.09    0.83
  -6   7 -10   -1.99    1.47
   1   6  10    0.83    1.56
   1   6  10    2.70    1.17
  -7   1  10   -0.59    2.07
  -6  10 -10    8.92    3.07
  -6  10 -10    3.94    1.78
  -6  10 -10    3.39    2.31
  -4  -6 -10    5.43    2.45
 -10   4  10    1.98    2.34
   4   6  10    4.56    2.38
   4   6  10    5.06    1.66
  -7  -6 -10    0.80    2.85
  -6  13 -10    4.82    2.52
  -6  13 -10    4.38    2.62
  -6  13 -10    5.41    3.21
   7   6  10    4.78    2.52
 -13   7  10    6.17    3.15
 -13   7  10    6.44    3.69
  -3  10 -10    4.27    2.18
  -3  10 -10    5.65    2.61
  -7  -3 -10    7.20    2.82
  -7  -3 -10    9.23    3.14
  -3  10 -10    7.91    2.88
   7   3  10    4.09    2.06
 -10   7  10    5.47    2.69
 -10   7  10    2.41    2.58
  -7   0 -10   -0.38    1.96
   0   7 -10    3.04    1.83
   0   7 -10    3.20    1.79
  -7   0 -10    3.18    1.93
   0  -7  10    1.30    1.23
   7   0  10    0.94    1.06
  -7   7  10    1.84    1.56
  -7   7  10    3.81    2.23
   3   4 -10   37.68    4.98
  -7   3 -10   33.54    4.79
  -7   3 -10   36.32    5.16
  -7   3 -10   31.56    5.52
  -3  -4  10   36.67    5.08
   7  -3  10   28.42    3.47
  -4   7  10   45.62    5.48
  -4   7  10   36.45    5.14
  -7   6 -10    1.79    1.65
  -7   6 -10    1.03    1.93
  -1   7  10   -0.78    1.57
  -6  -1  10    1.63    1.83
  -1   7  10    0.47    1.24
  -2  -7 -10   13.80    3.64
  -7   9 -10   12.58    3.57
  -7   9 -10   15.61    2.57
  -7   9 -10   18.63    3.80
  -9   2  10   11.33    3.42
   2   7  10   15.59    3.49
   2   7  10   15.77    2.74
  -7  12 -10    3.29    2.36
  -7  12 -10    8.23    3.06
  -5  -7 -10    0.39    2.13
  -7  12 -10    6.82    2.47
 -12   5  10    3.72    2.77
   5   7  10    7.35    2.02
   5   7  10    4.19    2.58
  -7  15 -10   -2.58    2.56
  -7  15 -10   -2.84    2.55
 -15   8  10    1.70    3.13
   8   7  10    2.90    2.84
  -4  12 -10   -1.67    1.82
  -4  12 -10    3.80    2.72
  -4  12 -10    6.61    2.31
  -8  -4 -10    4.80    3.12
 -12   8  10   -2.75    1.95
   8   4  10    2.43    1.98
 -12   8  10    5.40    3.39
  -8  -1 -10   33.89    6.39
  -1   9 -10   30.16    5.56
  -8  -1 -10   30.46    5.52
  -1   9 -10   34.33    5.33
   8   1  10   32.12    4.70
  -9   8  10   35.61    5.50
   1  -9  10   32.77    4.35
  -9   8  10   34.97    6.34
  -8   2 -10    3.09    2.21
   2   6 -10   -0.56    1.60
  -8   2 -10    0.61    2.16
  -8   2 -10    0.66    1.41
   2   6 -10    2.63    1.76
   8  -2  10    2.86    1.00
  -6   8  10    2.45    1.99
  -6   8  10    1.11    1.30
  -2  -6  10   -0.67    1.20
  -8   5 -10   11.24    2.87
  -8   5 -10    5.73    2.29
   5   3 -10   13.40    2.82
  -8   5 -10    8.11    3.13
  -5  -3  10    8.98    2.75
  -3   8  10   14.88    2.84
  -3   8  10   10.57    2.95
  -8   8 -10   14.50    3.56
  -8   8 -10   13.79    3.54
   0   8  10    9.05    2.66
   0   8  10   13.19    2.68
  -8   0  10    9.69    3.10
  -3  -8 -10   10.27    3.07
  -8  11 -10   11.14    3.45
  -8  11 -10    8.46    2.33
  -8  11 -10    8.40    3.52
   3   8  10    9.57    3.30
   3   8  10   15.55    2.77
 -11   3  10    9.40    3.76
  -8  14 -10    2.80    3.07
  -8  14 -10    0.07    1.98
 -14   6  10    1.73    3.05
   6   8  10    2.20    2.39
  -8  17 -10    2.16    4.09
 -17   9  10    2.87    3.82
   9   8  10    3.77    3.06
  -5  14 -10   15.48    4.18
  -9  -5 -10   16.26    4.87
  -5  14 -10    7.17    4.24
   9   5  10   15.20    3.96
 -14   9  10   15.95    4.75
 -14   9  10   17.08    4.58
  -2  11 -10   -1.58    2.63
  -2  11 -10   -0.23    2.26
  -2  11 -10    1.98    2.34
  -9  -2 -10    3.85    2.74
  -9  -2 -10    0.03    2.68
   9   2  10    7.96    2.40
 -11   9  10    7.92    3.14
 -11   9  10    4.32    2.45
  -9   1 -10   42.00    7.03
   1   8 -10   24.62    5.35
   1   8 -10   38.30    5.74
  -9   1 -10   39.41    6.31
   9  -1  10   35.31    4.71
  -8   9  10   42.23    5.46
  -8   9  10   29.58    5.93
  -1  -8  10   37.75    5.18
  -9   4 -10    1.16    1.71
  -9   4 -10    1.06    2.50
   4   5 -10    0.16    1.77
  -9   4 -10   -1.53    1.57
  -4  -5  10    1.23    1.74
  -5   9  10   -0.24    1.06
  -5   9  10   -0.92    1.54
  -5   9  10    4.13    2.16
  -9   7 -10   10.09    3.30
  -9   7 -10   16.57    3.88
   7   2 -10   14.42    3.01
  -9   7 -10   12.09    2.96
  -7  -2  10   12.11    3.51
  -2   9  10    8.45    2.86
  -2   9  10   16.48    3.29
  -1  -9 -10   17.99    4.34
  -9  10 -10    4.39    2.81
  -9  10 -10    3.38    2.63
   1   9  10    6.43    2.21
 -10   1  10    4.85    2.68
   1   9  10    0.29    2.04
  -9  13 -10    1.78    2.56
  -9  13 -10    2.45    2.96
 -13   4  10   -3.13    2.52
   4   9  10    1.69    2.45
   4   9  10    1.56    1.88
  -9  16 -10   24.87    6.33
   7   9  10    7.85    3.87
 -16   7  10    5.69    3.79
 -10  -6 -10    3.08    3.74
  -6  16 -10    8.72    4.36
  -6  16 -10   10.25    3.77
 -16  10  10    1.20    3.05
  10   6  10    1.85    2.93
 -16  10  10    9.23    4.72
 -10  -3 -10   -4.30    2.45
  -3  13 -10    2.87    2.68
  -3  13 -10    5.66    3.34
 -13  10  10   -1.40    2.80
  10   3  10    1.14    2.16
 -13  10  10    4.07    2.90
 -10   0 -10    2.35    2.64
   0  10 -10    1.07    2.36
 -10   0 -10   -0.17    2.21
   0  10 -10   -0.86    1.70
   0 -10  10   -0.26    1.40
 -10  10  10    0.62    2.67
 -10  10  10   -0.95    1.85
  10   0  10    0.15    1.51
   3   7 -10   -1.63    2.03
 -10   3 -10   10.71    2.73
   3   7 -10    3.71    2.08
 -10   3 -10    7.11    2.86
 -10   3 -10    4.05    2.78
  10  -3  10    8.37    1.50
  -7  10  10    4.54    2.73
  -3  -7  10   11.12    2.87
  -7  10  10    5.62    1.80
   6   4 -10    5.04    2.16
 -10   6 -10    4.15    2.48
 -10   6 -10    2.95    3.12
 -10   6 -10    3.36    2.31
  -4  10  10    3.45    2.20
  -4  10  10    3.50    2.34
  -6  -4  10    3.84    2.33
 -10   9 -10    4.36    2.61
   9   1 -10    2.78    2.13
 -10   9 -10    3.04    2.74
  -1  10  10    3.54    2.07
  -1  10  10    0.64    1.76
  -9  -1  10    5.56    2.91
 -10  12 -10    2.34    2.69
 -10  12 -10    2.44    2.76
  -2 -10 -10    4.32    2.64
   2  10  10    2.38    2.12
 -12   2  10    5.73    3.23
   2  10  10    3.86    2.61
 -10  15 -10    0.75    2.94
 -15   5  10    0.26    2.65
   5  10  10   -1.20    2.31
 -11  -4 -10    2.32    3.32
  -4  15 -10    5.77    3.78
  -4  15 -10   -0.11    2.83
 -15  11  10    4.33    3.63
 -15  11  10   -0.66    2.67
  11   4  10    2.19    2.70
  -1  12 -10    2.32    2.73
  -1  12 -10    4.92    2.77
 -11  -1 -10   -1.92    2.59
 -11  -1 -10   -2.81    2.53
 -12  11  10   -0.03    2.64
 -12  11  10    3.63    2.21
  11   1  10    0.25    1.86
 -11   2 -10    4.63    3.04
 -11   2 -10    5.08    3.08
   2   9 -10    2.39    2.12
   2   9 -10    2.74    2.62
  -2  -9  10    7.43    2.44
  -9  11  10    9.50    3.40
  11  -2  10    2.67    1.67
  -9  11  10    6.35    2.06
 -11   5 -10   24.93    4.86
 -11   5 -10   24.50    5.01
 -11   5 -10   17.90    5.22
   5   6 -10   19.83    4.16
  -6  11  10   30.51    3.78
  -6  11  10   20.07    4.60
  -6  11  10   19.63    4.41
  -5  -6  10   27.73    4.99
   8   3 -10    7.89    2.85
 -11   8 -10   11.97    3.06
 -11   8 -10    5.23    3.35
 -11   8 -10    6.13    3.24
  -8  -3  10    5.08    2.96
  -3  11  10   11.29    3.22
  -3  11  10    6.88    2.95
 -11  11 -10    6.29    3.62
  11   0 -10    5.22    2.62
 -11  11 -10    6.79    3.57
   0  11  10    4.28    2.79
   0  11  10    9.83    2.88
 -11   0  10    8.94    3.83
 -11  14 -10    1.22    2.80
  14  -3 -10   -1.86    1.79
 -11  14 -10   -0.81    2.66
   3  11  10   -0.25    2.13
 -14   3  10    0.89    2.91
 -11  17 -10    1.86    4.23
   6  11  10   -1.99    2.88
 -17   6  10   -0.55    3.55
  -5  17 -10    1.48    3.82
 -12  -5 -10   -5.30    3.69
  -5  17 -10   -0.55    3.47
  12   5  10   -3.56    2.42
 -17  12  10   -3.29    2.81
 -17  12  10    7.87    5.24
  -2  14 -10   -0.08    2.78
 -12  -2 -10    0.51    3.19
  -2  14 -10   -2.58    2.69
  12   2  10   -3.40    1.83
 -14  12  10   -1.21    2.43
 -14  12  10    5.14    3.82
 -12   1 -10    1.43    3.16
 -12   1 -10   -3.67    2.14
   1  11 -10   -0.91    2.24
   1  11 -10    1.95    2.49
 -11  12  10   -1.53    1.67
 -11  12  10    0.24    3.07
  12  -1  10    1.05    1.70
   4   8 -10   -1.54    1.88
 -12   4 -10   -1.10    2.17
   4   8 -10    0.32    2.40
 -12   4 -10    2.61    2.64
 -12   4 -10    0.28    2.19
  -4  -8  10    2.82    2.29
  -8  12  10    1.88    2.41
 -12   7 -10    4.53    3.09
   7   5 -10    3.17    2.44
 -12   7 -10    4.16    3.36
 -12   7 -10    2.64    2.51
  -5  12  10    6.29    3.08
  -7  -5  10    1.22    2.53
  -5  12  10    2.88    2.45
 -12  10 -10    1.89    2.70
 -12  10 -10    3.69    2.47
 -12  10 -10    2.71    2.94
  10   2 -10    5.91    2.61
  -2  12  10    1.20    2.82
  -2  12  10    3.97    2.58
 -10  -2  10    2.53    2.78
 -12  13 -10    7.73    4.03
  13  -1 -10    2.52    2.44
 -12  13 -10    9.99    4.02
   1  12  10    4.23    3.19
 -13   1  10   16.03    4.70
   1  12  10   20.22    3.91
 -12  16 -10   -1.44    3.56
 -16   4  10    0.44    3.61
   4  12  10    1.13    2.88
 -13  -3 -10   18.20    5.75
  -3  16 -10    8.84    4.38
  -3  16 -10    3.53    3.80
 -16  13  10    2.47    4.64
  13   3  10    9.99    3.61
   0  13 -10    1.09    2.76
   0  13 -10    5.16    3.14
 -13   0 -10    0.55    3.24
 -13  13  10    3.55    3.95
   3  10 -10   -0.65    2.35
   3  10 -10   -1.67    2.38
 -13   3 -10   -2.82    2.58
 -13   3 -10    2.98    3.25
  -3 -10  10   -0.92    2.23
 -10  13  10    2.76    2.94
   6   7 -10    6.79    3.09
 -13   6 -10    3.85    3.18
 -13   6 -10    6.84    3.39
 -13   6 -10    9.35    3.44
   6   7 -10    4.23    2.56
  -7  13  10    2.52    2.79
  -7  13  10    8.50    3.27
  -6  -7  10   11.70    3.64
   9   4 -10    5.01    2.50
 -13   9 -10    1.86    3.04
 -13   9 -10    2.70    2.70
 -13   9 -10    2.15    2.87
  -4  13  10    1.34    2.47
  -9  -4  10    5.14    3.04
  -4  13  10    5.38    3.10
  12   1 -10    5.19    3.01
 -13  12 -10    5.02    3.92
 -13  12 -10   18.90    4.82
 -12  -1  10   11.47    4.37
  -1  13  10   10.98    4.00
  -1  13  10   12.42    3.66
 -13  15 -10    2.58    3.55
 -13  15 -10   -0.76    3.44
  15  -2 -10    1.32    2.46
   2  13  10   -0.72    2.79
 -15   2  10    4.39    3.80
 -14  -1 -10   -1.43    4.00
  -1  15 -10    1.96    3.15
  -1  15 -10   -2.88    2.94
 -15  14  10   -2.11    3.54
 -14   2 -10   -0.20    2.57
   2  12 -10   -2.13    2.40
   2  12 -10    1.98    2.76
 -14   2 -10   -0.22    3.39
 -12  14  10   -0.39    3.40
 -14   5 -10   14.84    4.96
 -14   5 -10   19.60    5.11
 -14   5 -10    9.30    3.73
   5   9 -10    8.98    3.69
   5   9 -10   12.81    3.66
  -9  14  10   13.05    4.27
  -5  -9  10   16.24    4.05
 -14   8 -10   -3.06    2.47
   8   6 -10    8.41    2.93
 -14   8 -10   -0.98    2.74
 -14   8 -10    6.78    3.44
  -6  14  10    5.51    3.48
  -6  14  10   -0.46    2.58
  -8  -6  10    3.47    3.14
 -14  11 -10   -0.43    2.25
 -14  11 -10    4.48    3.50
  11   3 -10    1.36    2.29
 -14  11 -10    2.81    3.52
  -3  14  10    6.37    3.55
 -11  -3  10    0.76    2.72
  -3  14  10    0.92    2.27
  14   0 -10    3.10    2.72
 -14  14 -10    7.19    4.22
 -14  14 -10    2.14    3.38
   0  14  10    4.94    3.57
 -14   0  10    6.03    4.01
 -15   1 -10   -3.95    3.29
   1  14 -10    5.84    3.27
   1  14 -10    4.93    3.68
 -14  15  10   -2.44    3.35
   4  11 -10   -0.07    2.70
 -15   4 -10    0.90    3.44
 -15   4 -10   -1.37    3.27
   4  11 -10   -1.57    2.39
 -11  15  10    0.30    3.40
   7   8 -10    1.83    2.96
 -15   7 -10   -0.29    3.71
   7   8 -10   -3.20    2.32
 -15   7 -10   -0.64    2.94
 -15   7 -10   -0.38    2.87
  -8  15  10    1.18    3.02
  -7  -8  10    1.77    3.01
 -15  10 -10    1.68    3.81
 -15  10 -10    2.72    2.93
 -15  10 -10   -2.86    3.00
  10   5 -10   -2.17    2.25
  -5  15  10   -2.36    2.35
 -10  -5  10   -2.58    2.89
  -5  15  10   -1.32    3.00
 -15  13 -10    1.11    3.50
  13   2 -10    1.18    2.64
 -15  13 -10   -6.34    2.83
  -2  15  10   -2.54    2.42
  -2  15  10   -1.07    2.89
 -13  -2  10    1.74    3.72
   3  13 -10   12.54    4.56
 -16   3 -10    4.74    4.87
   3  13 -10   16.83    4.82
 -13  16  10   11.54    5.12
 -16   6 -10    6.75    4.26
 -16   6 -10   -0.02    3.95
   6  10 -10   -3.57    2.48
   6  10 -10   -1.56    2.78
 -10  16  10   -1.04    3.11
  -6 -10  10    0.68    3.48
 -16   9 -10   11.96    4.67
   9   7 -10   18.90    4.81
 -16   9 -10   15.63    5.01
 -16   9 -10    6.46    4.32
   9   7 -10    7.18    3.88
  -7  16  10   15.46    4.68
  -9  -7  10   14.46    4.68
  -7  16  10   24.02    5.58
 -16  12 -10   -0.70    3.66
 -16  12 -10    1.19    3.77
  12   4 -10   -0.23    2.49
  -4  16  10   -3.50    2.94
 -12  -4  10    1.06    3.61
  -4  16  10    1.31    2.93
   5  12 -10    2.21    3.20
 -17   5 -10    1.51    4.32
   5  12 -10   -2.91    3.01
 -17   5 -10   -0.35    4.19
 -12  17  10   -2.21    3.01
 -17   8 -10    2.27    4.10
 -17   8 -10    2.76    3.78
   8   9 -10    3.70    3.64
   8   9 -10   -2.04    3.04
 -17   8 -10   10.29    4.30
  -9  17  10    2.87    3.89
  -8  -9  10    4.36    3.85
  11   6 -10    1.17    3.12
 -17  11 -10    0.83    3.36
 -17  11 -10    3.77    4.41
 -17  11 -10    3.80    4.38
  -6  17  10    5.50    3.90
  -6  17  10    4.96    4.27
 -11  -6  10    0.92    3.54
  -1   1 -11    0.47    1.40
  -1   1 -11   -0.55    0.94
  -2   0 -11    2.14    1.53
  -2   0 -11   -1.54    1.49
  -2   0 -11    0.23    0.61
   0   2 -11   -0.10    1.21
  -2   2  11   -0.02    1.03
  -2   3 -11   63.36    7.98
  -1  -2 -11   52.22    6.54
  -2   3 -11   64.40    8.08
  -2   3 -11   60.14    7.16
  -1  -2 -11   66.79    7.66
   1   2  11   67.52    6.86
  -3   1  11   62.90    7.27
  -3  -1 -11   95.88   12.49
  -3  -1 -11  107.15   13.28
  -1   4 -11   91.37   11.52
  -4   3  11  102.27   11.58
  -4   3  11  112.27   11.70
   3   1  11   97.76   10.72
  -3   2 -11   64.85    8.47
  -3   2 -11   71.77    7.58
  -3   2 -11   64.27    8.80
  -2  -1  11   63.68    7.78
  -1   3  11   61.38    7.45
  -3   5 -11    0.24    1.40
  -2  -3 -11    0.13    1.25
  -3   5 -11    1.53    1.82
  -2  -3 -11    0.62    1.88
  -3   5 -11    2.69    1.13
   2   3  11    2.79    1.37
  -5   2  11    3.22    1.64
   2   3  11    3.17    0.69
  -2   6 -11   73.29    6.72
  -4  -2 -11   62.75    7.73
  -2   6 -11   49.29    7.42
  -4  -2 -11   59.60    8.08
   4   2  11   44.91    6.42
  -6   4  11   44.71    7.33
  -6   4  11   55.04    7.14
   2  -6  11   57.15    6.52
  -4   1 -11   99.62   13.14
  -4   1 -11  106.06   11.12
  -4   1 -11   96.19   12.51
  -1  -3  11   88.20   11.29
  -3   4  11  114.45   11.58
   4  -1  11   96.29   10.45
  -4   4 -11    0.59    1.58
  -4   4 -11   -0.53    0.55
   0  -4 -11    1.19    0.87
  -4   4 -11    2.07    1.38
   0   4  11    1.47    1.48
  -4   0  11    0.87    1.50
   0   4  11    1.01    0.88
  -3  -4 -11  104.36   13.19
  -4   7 -11   93.59   12.58
  -4   7 -11   98.96   11.79
  -3  -4 -11   88.24   12.25
   3   4  11  109.92   10.99
  -7   3  11   84.91   11.65
   3   4  11  106.05   11.12
  -3   8 -11   13.79    3.36
  -5  -3 -11   13.96    3.53
  -3   8 -11   15.31    2.95
  -3   8 -11   17.07    3.47
  -5  -3 -11   16.41    3.36
  -5  -3 -11   14.21    3.66
  -8   5  11   13.77    3.26
   3  -8  11   11.99    1.86
  -8   5  11   15.93    3.49
   5   3  11   14.54    2.84
  -5   0 -11   -0.70    1.42
  -5   0 -11    2.75    1.81
   0   5 -11    5.53    2.44
   0   5 -11    0.63    1.33
  -5   0 -11    0.39    0.86
  -5   0 -11    1.35    1.74
  -5   5  11    0.30    1.44
   0  -5  11   -2.01    1.06
  -5   5  11   -0.77    1.38
   5   0  11   -1.31    0.78
  -5   3 -11    2.58    1.78
  -5   3 -11    2.20    1.49
  -2   5  11    2.14    1.30
  -2   5  11    1.73    1.52
  -3  -2  11    1.82    1.61
  -1  -5 -11   66.48    9.46
  -5   6 -11   91.28    9.71
  -5   6 -11   74.29    8.27
  -5   6 -11   76.48   10.20
   1   5  11   81.38    8.86
  -6   1  11   92.88    9.67
   1   5  11   80.86    8.92
  -5   9 -11    0.03    1.79
  -4  -5 -11    2.54    1.92
  -4  -5 -11    1.78    1.65
  -5   9 -11    3.60    1.63
  -5   9 -11    1.42    1.77
   4   5  11    0.87    1.06
  -9   4  11    1.64    2.41
   4   5  11    1.34    1.71
  -6  -4 -11   27.89    5.23
  -6  -4 -11   27.13    5.46
  -4  10 -11   38.30    4.90
  -4  10 -11   21.73    4.87
  -4  10 -11   32.89    5.23
  -6  -4 -11   26.29    5.28
 -10   6  11   25.26    5.22
   6   4  11   24.02    3.82
 -10   6  11   20.20    4.66
   6   4  11   29.78    4.61
  -1   7 -11   22.03    3.99
  -6  -1 -11   19.78    4.06
  -1   7 -11   15.76    3.39
  -6  -1 -11   20.10    4.49
  -6  -1 -11   17.54    4.29
   6   1  11   21.01    3.31
   1  -7  11   23.83    3.17
  -7   6  11   25.79    4.00
  -7   6  11   26.50    4.46
  -6   2 -11   46.22    5.78
  -6   2 -11   57.34    7.56
   2   4 -11   51.10    5.83
  -6   2 -11   39.43    6.25
   6  -2  11   47.95    5.04
  -2  -4  11   39.21    6.03
  -4   6  11   45.05    6.46
  -6   5 -11   79.71   10.26
  -6   5 -11   80.87    9.43
  -1   6  11   69.37    8.97
  -1   6  11   82.38    9.05
  -5  -1  11   78.12    9.54
  -2  -6 -11   13.53    3.36
  -6   8 -11    6.61    1.68
  -6   8 -11    7.75    2.65
  -2  -6 -11    6.53    1.85
  -6   8 -11    8.18    2.60
   2   6  11   10.52    2.55
  -8   2  11    8.14    3.14
   2   6  11   10.24    1.93
  -6  11 -11   30.69    6.13
  -6  11 -11   31.13    4.95
  -6  11 -11   43.29    6.15
  -5  -6 -11   48.04    6.81
 -11   5  11   20.64    5.28
   5   6  11   27.50    4.56
   5   6  11   34.90    5.56
  -5  12 -11   23.69    5.78
  -5  12 -11   32.01    5.00
  -7  -5 -11   24.39    5.61
  -5  12 -11   27.75    5.07
   7   5  11   27.96    5.02
 -12   7  11   28.51    5.66
 -12   7  11   27.52    6.01
  -2   9 -11    5.94    2.32
  -7  -2 -11    4.44    2.26
  -7  -2 -11    3.42    2.42
  -2   9 -11    6.71    2.77
  -9   7  11    2.95    2.56
   7   2  11    0.22    1.55
  -9   7  11    1.91    2.09
   2  -9  11    8.65    1.37
   1   6 -11   21.91    4.03
  -7   1 -11   23.76    4.82
   1   6 -11   24.17    3.89
  -7   1 -11   15.89    3.75
  -7   1 -11   23.25    3.52
   7  -1  11   20.38    3.06
  -6   7  11   16.97    3.96
  -1  -6  11   35.87    4.08
  -6   7  11   19.91    3.47
  -7   4 -11  102.97   11.50
  -7   4 -11   97.72   11.33
  -7   4 -11  103.13   12.63
  -3   7  11   90.86   11.27
  -3   7  11  100.25   11.05
  -4  -3  11   84.52   11.36
  -7   7 -11   -1.87    1.61
  -7   7 -11   -0.31    1.56
   0   7  11    2.46    1.83
   0   7  11   -2.28    1.08
  -7   0  11    0.56    1.69
  -7  10 -11   69.12   11.44
  -7  10 -11   78.97   11.69
  -7  10 -11   89.01    9.92
  -3  -7 -11  104.00   12.39
 -10   3  11   85.57   11.33
   3   7  11   99.39   10.41
   3   7  11   86.79   10.62
  -7  13 -11    0.87    2.91
  -7  13 -11    4.78    2.46
  -7  13 -11   -1.36    1.82
 -13   6  11    2.88    2.98
   6   7  11    1.67    2.17
  -6  14 -11   -2.79    2.15
  -6  14 -11    1.46    2.78
   8   6  11   -1.47    2.10
 -14   8  11    3.96    3.54
 -14   8  11   -1.97    2.51
  -3  11 -11   -0.64    2.19
  -3  11 -11    2.58    2.62
  -8  -3 -11    1.66    2.26
  -3  11 -11    2.17    2.02
  -8  -3 -11    4.12    2.87
 -11   8  11    2.75    2.87
   8   3  11    2.38    1.80
 -11   8  11    1.65    2.32
  -8   0 -11   -0.07    2.00
   0   8 -11    1.41    1.83
   0   8 -11    2.07    2.05
  -8   0 -11   -1.38    1.82
   0  -8  11   -0.93    1.17
  -8   8  11   -0.96    1.56
   8   0  11   -0.61    1.05
  -8   8  11    1.59    2.24
  -8   3 -11   15.30    3.43
  -8   3 -11   11.76    2.89
  -8   3 -11   16.10    4.08
   3   5 -11   13.15    3.00
  -5   8  11   17.62    2.90
  -5   8  11   15.25    3.36
  -3  -5  11   24.53    3.78
   8  -3  11   16.09    2.06
  -8   6 -11   12.91    2.99
  -8   6 -11   12.07    2.71
  -8   6 -11    3.28    2.42
  -2   8  11    9.92    2.40
  -6  -2  11    8.08    2.82
  -2   8  11    7.11    2.47
  -8   9 -11    0.16    2.15
  -8   9 -11    2.21    1.22
  -8   9 -11    2.84    2.56
  -9   1  11    1.87    2.30
   1   8  11    1.17    1.75
   1   8  11    2.13    1.58
  -8  12 -11    2.34    2.00
  -4  -8 -11    7.92    2.75
  -8  12 -11    5.01    2.78
  -8  12 -11    5.41    2.74
   4   8  11    7.28    1.92
   4   8  11    2.10    2.35
 -12   4  11    2.25    2.91
  -8  15 -11   -3.99    2.73
  -8  15 -11   -0.21    2.60
   7   8  11   -0.87    2.38
 -15   7  11    0.79    3.15
  -7  16 -11   14.97    4.50
  -7  16 -11   19.44    5.87
   9   7  11   22.11    5.07
 -16   9  11   15.93    5.08
  -4  13 -11    5.63    2.96
  -4  13 -11    5.69    3.18
  -9  -4 -11    6.74    3.77
 -13   9  11    7.85    3.63
   9   4  11    9.56    3.07
 -13   9  11    4.11    3.10
  -9  -1 -11   35.89    6.90
  -9  -1 -11   33.51    6.41
  -1  10 -11   42.74    6.07
  -1  10 -11   41.18    7.20
 -10   9  11   40.49    6.14
 -10   9  11   26.97    6.26
   9   1  11   39.41    5.44
  -9   2 -11    5.74    2.50
  -9   2 -11    5.58    2.14
   2   7 -11    2.77    1.73
  -9   2 -11    5.68    2.81
   2   7 -11    4.98    2.27
  -7   9  11    5.85    2.81
   9  -2  11    4.07    1.43
  -7   9  11   12.40    2.35
  -2  -7  11    5.75    1.97
  -9   5 -11    2.45    1.96
  -9   5 -11    3.33    1.98
  -9   5 -11   -0.64    2.13
   5   4 -11   -0.62    1.33
  -4   9  11    3.39    1.99
  -4   9  11    5.48    2.30
  -5  -4  11   -0.23    1.67
  -9   8 -11    1.57    2.38
  -9   8 -11   -1.42    1.57
  -1   9  11    2.22    1.98
  -8  -1  11    2.43    2.51
  -1   9  11    2.20    1.69
  -9  11 -11    9.62    3.46
  -2  -9 -11    9.76    3.75
  -9  11 -11   18.13    4.51
   2   9  11   11.13    3.26
   2   9  11   17.60    3.26
 -11   2  11    8.00    3.25
  -9  14 -11    0.67    2.61
  -9  14 -11    6.26    3.86
   5   9  11    6.04    3.17
 -14   5  11    7.44    3.41
  -9  17 -11    2.70    4.58
   8   9  11    1.23    3.19
 -17   8  11    1.54    3.39
  -5  15 -11   -3.34    2.46
 -10  -5 -11    0.95    3.38
  -5  15 -11   -5.13    2.78
 -15  10  11    1.16    3.62
  10   5  11    0.25    2.49
 -15  10  11   -3.69    2.33
  -2  12 -11   29.83    6.31
 -10  -2 -11   28.14    6.12
  -2  12 -11   37.56    5.92
  -2  12 -11   35.68    6.41
 -10  -2 -11   35.46    7.10
 -12  10  11   29.35    5.69
  10   2  11   29.66    5.16
 -12  10  11   34.95    7.05
 -10   1 -11   40.74    7.01
 -10   1 -11   41.53    7.78
   1   9 -11   52.96    7.69
   1   9 -11   34.64    6.20
  10  -1  11   40.57    5.43
  -9  10  11   45.83    7.54
  -9  10  11   42.20    6.15
  -1  -9  11   38.36    5.83
 -10   4 -11   22.08    4.67
 -10   4 -11   23.08    4.39
 -10   4 -11   28.36    5.91
   4   6 -11   24.62    4.55
  -6  10  11   25.05    4.74
  10  -4  11   23.95    2.80
  -4  -6  11   24.48    4.43
  -6  10  11   24.87    3.76
 -10   7 -11   98.73   12.02
 -10   7 -11  100.41   13.53
 -10   7 -11   98.58   12.26
   7   3 -11  104.51   11.50
  -7  -3  11   92.57   12.19
  -3  10  11   84.52   11.83
  -3  10  11  113.04   11.86
 -10  10 -11   -3.60    2.00
 -10  10 -11    1.82    2.26
 -10   0  11   -0.45    2.57
   0  10  11   -0.69    1.68
   0  10  11   -1.58    1.64
 -10  13 -11   18.32    5.17
 -10  13 -11   25.50    5.16
 -13   3  11   12.40    4.32
   3  10  11   12.24    4.10
 -10  16 -11    2.12    3.30
   6  10  11    0.22    2.74
 -16   6  11    0.31    3.26
  -6  17 -11    1.88    3.83
  -6  17 -11    1.76    3.64
 -17  11  11   11.41    5.42
 -17  11  11   -0.84    3.15
  11   6  11    3.23    3.19
  -3  14 -11   15.22    4.50
 -11  -3 -11    7.62    4.18
  -3  14 -11   10.96    4.35
  11   3  11   16.02    3.95
 -14  11  11    9.43    3.97
 -14  11  11    9.67    4.47
 -11   0 -11   -2.40    2.35
   0  11 -11    0.97    2.49
   0  11 -11    2.23    2.12
 -11   0 -11    0.09    2.66
 -11  11  11    1.40    2.92
 -11  11  11   -2.38    1.77
  11   0  11   -2.25    1.37
 -11   3 -11    5.99    3.22
 -11   3 -11    2.40    2.08
   3   8 -11    1.41    2.13
 -11   3 -11    3.73    2.78
   3   8 -11   -0.47    2.07
  -3  -8  11    0.89    1.77
  11  -3  11   -0.23    1.15
  -8  11  11    2.29    2.47
  -8  11  11    3.51    1.59
   6   5 -11   33.70    5.66
 -11   6 -11   32.68    5.91
 -11   6 -11   26.98    5.58
 -11   6 -11   31.14    6.67
  -5  11  11   42.55    4.83
  -5  11  11   32.48    5.58
  -5  11  11   27.67    5.58
  -6  -5  11   37.26    6.09
 -11   9 -11   17.07    4.88
   9   2 -11   16.12    3.70
 -11   9 -11   13.98    4.39
  -9  -2  11   18.55    4.54
  -2  11  11   23.81    4.61
  -2  11  11   17.59    3.99
  12  -1 -11   26.20    4.80
 -11  12 -11   28.35    6.01
 -11  12 -11   19.04    5.44
   1  11  11   29.43    4.84
   1  11  11   25.92    5.53
 -12   1  11   19.84    5.44
  15  -4 -11   14.39    3.59
 -11  15 -11   14.54    5.03
 -15   4  11   17.92    5.07
   4  11  11    9.33    4.00
 -12  -4 -11    2.84    4.06
  -4  16 -11    4.16    3.87
  -4  16 -11    5.63    3.91
 -16  12  11    5.73    4.81
 -16  12  11    7.34    3.79
  12   4  11    5.48    3.50
  -1  13 -11   -1.11    2.43
  -1  13 -11    2.25    2.58
 -12  -1 -11   -3.36    2.29
 -12  -1 -11   -3.26    2.72
 -13  12  11   -0.02    3.27
  12   1  11   -0.32    1.84
 -13  12  11    2.31    2.38
 -12   2 -11   28.70    7.05
   2  10 -11   32.46    6.33
 -12   2 -11   39.86    7.04
   2  10 -11   31.19    6.05
  -2 -10  11   39.86    5.77
 -10  12  11   31.01    6.42
   5   7 -11   15.67    4.16
   5   7 -11   25.53    5.03
 -12   5 -11   23.21    4.85
 -12   5 -11   24.79    5.86
 -12   5 -11   25.97    5.12
  -7  12  11   17.67    4.59
  -5  -7  11   27.34    4.86
 -12   8 -11    1.58    2.62
 -12   8 -11    2.69    2.52
 -12   8 -11    7.40    3.72
   8   4 -11    3.85    2.57
  -8  -4  11    6.00    3.09
  -4  12  11    7.97    2.78
  -4  12  11    0.82    2.35
 -12  11 -11   20.52    5.48
 -12  11 -11   27.28    6.05
  11   1 -11   22.61    4.65
  -1  12  11   20.79    4.60
  -1  12  11   26.88    5.28
 -11  -1  11   22.76    5.65
 -12  14 -11    1.13    3.47
 -12  14 -11    1.43    3.37
  14  -2 -11    3.38    2.50
 -14   2  11   -2.53    2.61
   2  12  11    5.35    3.25
 -13  -2 -11   -1.28    3.35
  -2  15 -11    0.79    3.34
  -2  15 -11   -0.68    2.91
 -15  13  11   -1.67    2.87
  13   2  11    0.98    2.49
 -13   1 -11   -1.14    3.18
   1  12 -11    0.80    3.18
   1  12 -11   -1.90    2.45
 -13   1 -11    3.64    3.14
 -12  13  11    2.84    3.01
   4   9 -11    2.61    2.74
   4   9 -11    2.51    2.70
 -13   4 -11    4.03    3.26
 -13   4 -11    9.13    4.16
  -9  13  11    8.65    3.84
  -4  -9  11   -0.55    2.09
   7   6 -11   -1.99    1.71
 -13   7 -11   -3.86    2.12
 -13   7 -11    3.23    2.70
 -13   7 -11    2.21    3.16
  -6  13  11    0.22    2.13
  -7  -6  11   -1.69    2.10
  -6  13  11   -0.16    2.37
  10   3 -11   23.07    4.68
 -13  10 -11   20.43    5.67
 -13  10 -11   16.73    5.30
 -13  10 -11   21.19    4.49
  -3  13  11   12.70    4.12
 -10  -3  11   20.01    4.92
  -3  13  11   16.75    4.82
 -13  13 -11   -4.82    2.59
  13   0 -11   -0.05    2.08
 -13  13 -11   -1.46    2.89
 -13   0  11    0.83    2.60
   0  13  11   -0.09    2.25
   0  13  11    1.24    2.95
  16  -3 -11    7.35    3.13
 -13  16 -11    3.63    3.84
 -16   3  11    4.62    3.91
   3  13  11   -0.25    3.13
   0  14 -11    0.53    2.90
 -14   0 -11   -1.93    3.25
   0  14 -11   -0.33    3.08
 -14  14  11    2.52    4.13
 -14   3 -11   12.14    4.72
   3  11 -11   11.02    4.07
   3  11 -11   19.44    4.55
 -14   3 -11   12.74    5.23
 -11  14  11    6.49    4.05
 -14   6 -11    1.24    2.66
   6   8 -11    2.08    2.56
 -14   6 -11    1.04    3.16
 -14   6 -11    4.29    3.30
   6   8 -11   -1.76    2.29
  -6  -8  11   -0.01    2.60
  -8  14  11   -5.33    2.04
 -14   9 -11    5.07    3.48
   9   5 -11    1.98    2.55
 -14   9 -11    7.13    3.25
 -14   9 -11    3.15    3.59
  -5  14  11    3.96    3.15
  -5  14  11    6.04    3.29
  -9  -5  11    6.19    3.46
 -14  12 -11   -2.20    3.25
 -14  12 -11    0.76    3.15
  12   2 -11    3.21    2.63
  -2  14  11    0.74    2.96
  -2  14  11    1.49    2.53
 -12  -2  11    1.87    2.98
  15  -1 -11   -1.67    2.55
 -14  15 -11    2.68    3.28
 -14  15 -11   -0.68    3.28
   1  14  11    1.50    3.61
 -15   1  11    0.34    4.16
   2  13 -11    1.75    3.14
   2  13 -11    3.11    3.02
 -15   2 -11   -0.12    3.66
 -15   2 -11    3.05    3.92
 -13  15  11    6.63    4.25
   5  10 -11   -3.90    2.33
 -15   5 -11   -0.62    3.27
 -15   5 -11   -3.54    2.72
   5  10 -11   -0.63    2.68
  -5 -10  11   -2.24    2.53
 -10  15  11   -1.11    2.68
 -15   8 -11    2.69    3.30
 -15   8 -11    2.16    2.92
 -15   8 -11    3.90    3.29
   8   7 -11   -0.67    2.46
   8   7 -11    0.37    2.82
  -8  -7  11   -0.15    2.85
  -7  15  11   -1.05    2.45
  -7  15  11    1.07    3.25
 -15  11 -11    5.27    4.13
  11   4 -11    9.69    3.73
 -15  11 -11    9.18    4.73
  -4  15  11    5.98    3.33
  -4  15  11   12.47    4.55
 -11  -4  11   15.09    4.86
 -15  14 -11   -0.18    3.36
  14   1 -11   -1.57    2.35
 -15  14 -11    4.91    4.19
 -14  -1  11   -2.73    3.19
  -1  15  11    0.40    3.47
   4  12 -11    9.63    3.82
 -16   4 -11    4.02    4.05
 -16   4 -11    3.72    4.10
   4  12 -11    1.54    3.31
 -12  16  11   -1.56    3.87
 -16   7 -11   12.63    5.07
   7   9 -11    9.05    4.07
   7   9 -11   14.60    4.57
 -16   7 -11    8.28    4.86
 -16   7 -11   17.42    4.84
  -7  -9  11    9.39    4.21
  -9  16  11   16.21    5.09
 -16  10 -11    3.91    3.60
 -16  10 -11    2.09    3.77
  10   6 -11   -0.50    3.07
 -16  10 -11    1.53    3.76
  -6  16  11   -0.77    3.02
  -6  16  11   -2.18    2.86
 -10  -6  11    2.38    3.56
  13   3 -11    3.63    3.32
 -16  13 -11    8.39    4.77
 -16  13 -11    6.19    4.58
 -13  -3  11    1.45    4.03
  -3  16  11    5.01    4.29
  -3  16  11    9.65    3.78
   6  11 -11    8.60    4.22
   6  11 -11   -0.93    3.54
 -17   6 -11    3.49    4.62
 -17   6 -11    1.71    3.90
 -11  17  11    4.05    4.10
   9   8 -11    1.84    3.29
 -17   9 -11    1.15    3.75
   9   8 -11   -1.15    3.29
 -17   9 -11    1.61    3.81
 -17   9 -11    2.78    3.96
  -8  17  11   -0.26    3.49
  -9  -8  11   -4.76    2.76
  -1   2 -12    4.32    1.68
  -1   2 -12    3.67    1.40
  -1  -1 -12    4.85    1.73
  -2   1 -12    1.88    1.69
  -2   1 -12    3.68    1.17
  -2   1 -12    5.28    1.95
  -2   4 -12  111.23   12.75
  -2  -2 -12  125.43   13.75
  -2  -2 -12  101.36   14.46
  -4   2  12  115.27   12.88
   2   2  12  105.02   11.99
  -3   0 -12  168.33   16.39
   0   3 -12  128.58   18.68
  -3   0 -12  138.74   19.20
  -3   0 -12  133.12   18.25
   3   0  12  171.39   15.82
  -3   3  12  161.58   16.93
  -3   3 -12    1.03    1.58
  -3   3 -12    0.13    1.22
  -3   3 -12    2.47    1.84
   0  -3 -12   -0.05    1.12
   0   3  12    2.24    1.56
   0   3  12    1.85    0.87
  -3   0  12    2.09    1.56
  -3  -3 -12    9.12    2.42
  -3   6 -12   12.68    2.80
  -3   6 -12   11.69    3.09
  -3  -3 -12    7.03    2.77
  -3   6 -12    7.86    1.96
  -6   3  12    9.51    2.77
   3   3  12    8.46    2.20
   3   3  12   10.77    1.36
  -4  -1 -12    3.49    2.01
  -1   5 -12   11.02    2.88
  -4  -1 -12   -0.94    2.11
  -1   5 -12    6.54    1.70
   4   1  12    5.81    1.47
  -5   4  12    6.92    2.31
  -5   4  12    5.28    2.03
  -4   2 -12  110.52   13.94
  -4   2 -12  110.49   11.95
  -4   2 -12  108.79   13.33
  -2   4  12   99.08   12.00
  -2  -2  12  102.17   12.14
  -1  -4 -12   76.79    8.28
  -4   5 -12   50.65    8.47
  -4   5 -12   59.00    7.01
  -4   5 -12   54.13    8.72
   1   4  12   56.25    7.47
  -5   1  12   59.01    8.22
   1   4  12   81.17    7.43
  -4   8 -12   41.59    6.14
  -4  -4 -12   41.99    6.63
  -4   8 -12   39.58    5.97
  -4   8 -12   42.56    5.17
  -4  -4 -12   29.32    5.53
   4   4  12   32.59    4.34
  -8   4  12   44.38    6.18
  -8   4  12   38.62    6.02
   4   4  12   40.40    5.51
  -2   7 -12   16.39    2.91
  -2   7 -12    7.96    2.78
  -5  -2 -12   16.59    3.58
  -5  -2 -12   15.69    3.38
  -5  -2 -12   18.70    3.87
  -7   5  12   14.54    3.16
   5   2  12    8.39    2.40
  -7   5  12   11.38    3.04
   2  -7  12   17.68    2.30
  -5   1 -12    1.80    2.07
  -5   1 -12    6.06    2.56
  -5   1 -12    4.97    1.29
   1   4 -12    2.16    0.95
  -4   5  12   10.52    2.32
   5  -1  12    2.57    1.06
  -1  -4  12    0.99    1.58
  -5   4 -12   60.96    7.99
   1  -5 -12   44.46    6.95
  -5   4 -12   62.31    7.11
  -1   5  12   67.47    7.02
  -4  -1  12   75.05    7.48
  -1   5  12   56.17    6.72
  -5   7 -12   20.80    4.29
  -5   7 -12   21.89    4.41
  -2  -5 -12   31.51    5.28
  -2  -5 -12   30.24    4.05
  -5   7 -12   18.71    3.30
  -7   2  12   23.20    4.52
   2   5  12   23.26    4.05
   2   5  12   31.56    3.39
  -5  -5 -12   14.26    3.91
  -5  10 -12   22.56    3.36
  -5  -5 -12    9.90    3.20
  -5  10 -12   14.38    4.00
  -5  10 -12   13.45    3.54
 -10   5  12   14.61    4.11
 -10   5  12   10.36    3.60
   5   5  12   18.80    2.67
   5   5  12   15.38    3.27
  -6  -3 -12   10.24    3.00
  -6  -3 -12    5.69    2.77
  -3   9 -12    7.73    2.88
  -6  -3 -12    6.39    3.07
  -3   9 -12    9.58    2.62
  -3   9 -12    7.73    2.91
  -9   6  12    8.80    2.92
   6   3  12   13.06    2.81
  -9   6  12   10.73    3.12
  -6   0 -12  102.88   14.71
   0   6 -12  105.47   12.23
  -6   0 -12  103.15   14.23
  -6   0 -12  131.61   13.45
   0   6 -12  126.79   13.27
  -6   6  12  112.52   12.88
   6   0  12  108.32   11.89
  -6   6  12  107.82   13.19
  -6   3 -12    7.44    2.18
  -6   3 -12    6.26    2.50
  -6   3 -12    9.51    2.16
  -3  -3  12    8.40    2.25
  -3   6  12    9.98    2.26
  -3   6  12    4.29    1.98
  -6   6 -12   95.71   12.53
   0  -6 -12  114.61   11.56
  -6   6 -12   92.99   10.01
  -6   6 -12   89.52   11.44
   0   6  12   93.69   10.97
  -6   0  12   85.63   11.59
   0   6  12   87.75   10.99
  -6   9 -12   77.87    9.54
  -6   9 -12   90.81   10.99
  -3  -6 -12  102.38   11.04
  -6   9 -12   74.74   11.22
  -3  -6 -12   90.30   11.92
   3   6  12   78.87    9.84
   3   6  12   93.64   10.24
  -9   3  12   95.35   11.12
  -6  12 -12    0.38    1.81
  -6  12 -12    2.96    2.26
  -6  -6 -12   -0.76    1.85
  -6  12 -12    1.20    2.56
 -12   6  12   -1.00    2.11
   6   6  12   -2.30    1.64
  -7  -4 -12   24.85    5.42
  -4  11 -12   24.16    5.42
  -7  -4 -12   23.74    5.40
  -4  11 -12   32.75    4.93
  -4  11 -12   33.13    5.28
 -11   7  12   29.95    5.55
 -11   7  12   19.25    5.07
   7   4  12   27.94    4.87
   7   4  12   27.57    3.95
  -7  -1 -12   60.26    8.39
  -7  -1 -12   54.95    8.85
  -1   8 -12   49.49    8.14
  -1   8 -12   63.89    7.85
   1  -8  12   55.59    6.94
   7   1  12   56.44    6.94
  -8   7  12   74.90    7.87
  -8   7  12   58.42    8.43
  -7   2 -12   10.97    3.46
  -7   2 -12   14.70    2.71
  -7   2 -12   15.16    3.42
   2   5 -12   15.02    2.86
  -2  -5  12   11.50    2.67
  -5   7  12   13.55    3.03
   7  -2  12   13.84    1.99
  -5   7  12   13.40    2.69
  -7   5 -12   31.54    4.67
  -7   5 -12   18.66    4.60
  -5  -2  12   31.74    4.88
  -2   7  12   24.42    4.01
  -2   7  12   26.56    4.51
  -7   8 -12    8.42    3.00
  -7   8 -12    8.57    3.04
  -7   8 -12   11.53    1.91
   1   7  12   12.86    2.44
   1   7  12   13.36    3.03
  -8   1  12   13.41    3.65
  -7  11 -12    1.47    1.42
  -4  -7 -12    3.06    2.28
  -7  11 -12    2.08    2.27
  -7  11 -12    0.37    2.15
 -11   4  12    0.24    2.45
   4   7  12    0.39    1.19
   4   7  12    0.97    2.12
  -7  14 -12   12.27    3.32
  -7  14 -12    2.03    3.20
   7   7  12    7.69    3.21
 -14   7  12    4.58    3.21
  -8  -5 -12   39.94    7.28
  -5  13 -12   39.47    6.20
  -5  13 -12   38.85    6.87
   8   5  12   32.36    5.64
 -13   8  12   26.14    6.08
 -13   8  12   33.99    6.87
  -2  10 -12    2.40    2.52
  -2  10 -12    1.46    1.87
  -8  -2 -12   -2.89    1.80
  -8  -2 -12    1.07    2.24
 -10   8  12   -3.55    1.75
 -10   8  12    1.06    2.34
   8   2  12    0.92    1.63
   1   7 -12   72.46    7.97
  -8   1 -12   57.50    8.84
  -8   1 -12   72.66   10.13
   1   7 -12   62.70    8.93
   8  -1  12   69.59    7.22
  -1  -7  12   46.92    7.67
  -7   8  12   61.72    8.87
  -7   8  12   73.31    8.10
  -8   4 -12   36.97    5.80
  -8   4 -12   34.32    5.47
   4   4 -12   35.56    5.41
  -8   4 -12   46.39    6.97
  -4  -4  12   34.19    5.61
  -4   8  12   37.38    5.78
  -4   8  12   49.27    6.29
  -8   7 -12   11.15    3.25
  -8   7 -12   10.81    3.45
  -1   8  12   11.36    2.64
  -1   8  12   10.39    3.03
  -7  -1  12   16.23    3.64
  -8  10 -12   -3.84    1.79
  -2  -8 -12    4.03    2.82
  -8  10 -12    0.77    1.28
  -8  10 -12    1.50    2.33
 -10   2  12   -3.44    1.78
   2   8  12    2.27    1.92
   2   8  12    0.48    1.39
  -8  13 -12    4.46    2.64
  -5  -8 -12   -0.71    2.05
  -8  13 -12   -2.84    1.93
  -8  13 -12   -0.46    1.70
 -13   5  12   -1.72    2.39
   5   8  12    2.06    2.30
  -8  16 -12   10.11    4.45
   8   8  12   10.71    3.93
 -16   8  12   14.26    4.86
  -6  15 -12   20.06    5.55
  -6  15 -12   17.33    4.38
 -15   9  12   15.15    5.40
   9   6  12   22.71    4.76
 -15   9  12   11.78    4.51
  -3  12 -12   -0.80    2.19
  -9  -3 -12   -0.07    2.61
  -9  -3 -12   -0.02    2.90
  -3  12 -12   -0.80    2.42
  -3  12 -12    4.05    2.94
   9   3  12   -0.95    1.61
 -12   9  12   -1.83    2.47
 -12   9  12    1.62    2.26
   0   9 -12  115.26   14.24
  -9   0 -12  103.93   15.31
   0   9 -12  123.08   13.41
  -9   0 -12  119.79   14.51
  -9   9  12  129.67   14.75
   0  -9  12  107.11   13.20
   9   0  12  117.09   12.79
  -9   9  12  123.48   13.79
   3   6 -12   10.22    2.88
   3   6 -12   10.69    2.99
  -9   3 -12    7.17    2.96
  -9   3 -12   11.50    2.72
  -9   3 -12    7.30    3.26
  -6   9  12    9.35    2.30
  -3  -6  12   13.42    2.94
   9  -3  12   10.18    1.63
  -6   9  12   11.66    3.05
  -9   6 -12   81.43   10.24
  -9   6 -12   88.64   10.55
  -9   6 -12   84.60   11.53
   6   3 -12   90.83    9.92
  -3   9  12   78.32    9.96
  -3   9  12   71.62   10.01
  -6  -3  12   90.61   10.66
  -9   9 -12   16.21    4.04
  -9   9 -12    8.50    3.33
   0   9  12   11.58    2.84
  -9   0  12   15.16    3.86
   0   9  12   13.14    3.47
  -3  -9 -12    4.83    2.86
  -9  12 -12    3.21    2.74
  -9  12 -12   -2.73    2.06
   3   9  12    3.73    2.57
 -12   3  12    3.39    2.70
   3   9  12    5.83    2.02
  -9  15 -12    6.26    4.09
   6   9  12    4.67    2.97
 -15   6  12    5.27    3.62
  -7  17 -12    0.73    3.75
  -7  17 -12    3.92    3.57
 -17  10  12   -3.04    3.16
  10   7  12    0.41    2.79
 -10  -4 -12    7.45    4.02
  -4  14 -12    0.74    3.23
  -4  14 -12    7.22    3.33
 -14  10  12   -0.42    2.90
 -14  10  12    2.53    2.97
  10   4  12    6.33    2.80
  -1  11 -12   -3.87    1.80
 -10  -1 -12    2.09    3.13
  -1  11 -12    5.24    2.46
 -10  -1 -12    1.90    2.85
 -11  10  12   -0.48    2.27
 -11  10  12    0.19    2.15
  10   1  12    0.02    1.58
   2   8 -12    1.78    2.09
 -10   2 -12    0.73    2.35
 -10   2 -12   -1.18    2.49
   2   8 -12   -1.36    1.54
  -8  10  12   -0.42    1.40
  -2  -8  12   -0.21    1.68
  -8  10  12   -0.65    2.28
  10  -2  12    1.70    1.28
   5   5 -12   11.55    3.25
 -10   5 -12   14.90    3.48
 -10   5 -12   12.08    3.39
 -10   5 -12   14.76    4.07
  -5  10  12   12.71    3.27
  -5  10  12   20.27    4.04
  -5  -5  12   17.18    3.72
  -5  10  12   11.49    2.63
   8   2 -12    2.32    2.06
 -10   8 -12    2.82    2.34
 -10   8 -12   -0.79    1.78
  -2  10  12    1.72    1.74
  -8  -2  12   -1.98    1.91
  -2  10  12   -0.02    2.09
 -10  11 -12    7.18    3.12
  -1 -10 -12    3.77    3.41
 -10  11 -12    6.11    3.42
   1  10  12    8.25    2.58
   1  10  12    4.77    3.01
 -11   1  12   12.68    3.83
 -10  14 -12    8.04    3.42
 -10  14 -12    3.67    3.15
   4  10  12    1.29    2.62
 -14   4  12    4.11    3.26
 -10  17 -12    0.01    3.50
 -17   7  12    1.93    3.60
   7  10  12   -3.74    2.37
  -5  16 -12    1.35    3.14
  -5  16 -12    2.76    3.87
  11   5  12   -5.79    2.27
 -16  11  12    6.44    3.75
 -16  11  12   -3.90    3.12
  -2  13 -12    9.75    3.80
  -2  13 -12    3.37    2.94
 -11  -2 -12    3.38    3.59
 -11  -2 -12    9.51    4.32
  11   2  12    7.46    2.74
 -13  11  12    8.64    3.13
 -13  11  12   10.92    4.41
 -11   1 -12   -0.46    2.88
 -11   1 -12    1.39    2.63
   1  10 -12    2.52    2.39
   1  10 -12   -0.59    2.50
  -1 -10  12    0.29    1.83
 -10  11  12   -4.23    1.35
  11  -1  12    2.16    1.63
 -10  11  12   -1.71    2.22
 -11   4 -12   24.72    4.68
 -11   4 -12   28.24    5.99
   4   7 -12   28.30    5.13
 -11   4 -12   31.34    5.57
   4   7 -12   27.55    4.94
  -7  11  12   25.35    5.29
  -4  -7  12   29.46    5.15
  -7  11  12   25.59    4.22
 -11   7 -12    3.07    2.46
   7   4 -12   -1.05    1.93
 -11   7 -12   -2.53    1.67
 -11   7 -12   -0.46    2.28
  -7  -4  12   -0.51    2.25
  -4  11  12   -0.62    1.79
  -4  11  12    0.96    1.99
 -11  10 -12   10.69    3.96
 -11  10 -12    5.48    3.14
  10   1 -12    7.37    2.80
  -1  11  12    8.11    2.90
 -10  -1  12    5.18    2.85
  -1  11  12    6.65    3.08
 -11  13 -12    7.55    3.57
 -11  13 -12    7.99    3.66
 -13   2  12   -0.36    3.19
   2  11  12    5.08    3.37
 -11  16 -12   -2.27    2.86
 -16   5  12    5.12    3.66
   5  11  12    3.51    3.10
 -12  -3 -12    9.16    4.79
  -3  15 -12   15.64    4.93
  -3  15 -12    8.30    4.39
 -15  12  12   14.60    4.23
  12   3  12    8.60    3.47
 -15  12  12    8.67    4.30
 -12   0 -12   -1.17    2.75
   0  12 -12   -0.01    2.51
   0  12 -12    0.15    2.60
 -12   0 -12    3.81    3.37
  12   0  12    5.10    2.29
 -12  12  12    2.08    2.23
 -12  12  12   -2.64    3.04
   3   9 -12    1.45    2.16
 -12   3 -12    2.41    2.86
 -12   3 -12    0.21    2.33
   3   9 -12   -0.77    2.38
  -9  12  12    3.51    2.74
  -3  -9  12    2.11    2.40
 -12   6 -12   -1.83    2.23
 -12   6 -12   -2.24    1.85
   6   6 -12    1.63    1.91
 -12   6 -12    0.81    2.88
  -6  -6  12   -0.87    2.23
  -6  12  12   -0.51    2.31
  -6  12  12   -1.52    1.96
 -12   9 -12    3.25    2.58
 -12   9 -12    2.16    3.21
   9   3 -12   11.31    3.29
 -12   9 -12    6.92    3.30
  -3  12  12    8.24    3.38
  -9  -3  12   -2.53    2.36
  -3  12  12    5.01    2.49
 -12  12 -12   -0.62    2.81
 -12  12 -12    6.21    3.47
  12   0 -12   10.34    3.17
   0  12  12    8.46    2.91
 -12   0  12    8.58    3.34
   0  12  12   12.84    3.85
  15  -3 -12   -1.36    2.14
 -12  15 -12    3.00    3.69
   3  12  12    1.07    2.63
 -15   3  12   -3.39    2.76
 -13  -1 -12   20.57    5.73
  -1  14 -12   25.97    5.78
  -1  14 -12   19.45    4.84
 -14  13  12    5.32    4.72
   2  11 -12    8.52    3.51
 -13   2 -12    3.20    3.47
   2  11 -12    7.98    3.51
 -13   2 -12   -0.90    2.64
 -11  13  12    9.96    3.86
 -13   5 -12   30.14    5.77
 -13   5 -12   33.03    6.21
 -13   5 -12   19.54    5.85
   5   8 -12   26.77    5.50
   5   8 -12   42.20    6.47
  -5  -8  12   30.41    5.64
  -8  13  12   32.96    6.36
 -13   8 -12    2.19    2.91
   8   5 -12   -0.22    2.03
 -13   8 -12   -1.54    2.87
 -13   8 -12    0.70    2.77
  -5  13  12   -1.91    2.41
  -5  13  12   -0.95    2.06
  -8  -5  12   -0.94    2.35
 -13  11 -12    5.45    3.68
 -13  11 -12    4.56    3.84
  11   2 -12   11.70    3.14
 -11  -2  12    4.77    3.34
  -2  13  12    5.16    2.74
  -2  13  12    1.87    2.63
 -13  14 -12    1.59    3.19
  14  -1 -12   -0.44    2.09
 -13  14 -12   -3.55    2.56
 -14   1  12   -2.46    2.30
   1  13  12   -3.14    2.48
 -14   1 -12   18.58    5.87
 -14   1 -12   21.59    6.40
   1  13 -12   17.00    4.92
   1  13 -12   27.74    5.68
 -13  14  12   13.88    5.64
   4  10 -12    7.23    3.73
 -14   4 -12    4.06    3.59
   4  10 -12   -0.09    2.67
 -14   4 -12    4.82    3.60
  -4 -10  12    7.34    3.26
 -10  14  12    7.27    3.61
 -14   7 -12    5.11    3.32
 -14   7 -12    6.45    3.54
 -14   7 -12    7.73    3.63
   7   7 -12   10.34    3.77
   7   7 -12    1.44    2.83
  -7  14  12    3.72    2.94
  -7  14  12    7.35    3.65
  -7  -7  12    0.74    2.54
 -14  10 -12   -1.28    2.47
  10   4 -12    3.48    2.74
 -14  10 -12    3.35    3.28
 -10  -4  12    0.37    2.71
  -4  14  12    3.82    2.93
  -4  14  12    3.90    3.25
 -14  13 -12    0.37    3.30
  13   1 -12    0.70    2.50
 -14  13 -12   -0.99    3.18
  -1  14  12   -0.57    2.42
  -1  14  12    2.22    3.11
 -13  -1  12    0.63    3.23
 -15   0 -12   18.29    6.71
   0  15 -12   21.78    5.79
   0  15 -12   21.34    5.62
 -15  15  12   16.79    6.19
 -15   3 -12    8.04    4.41
   3  12 -12    7.15    3.61
   3  12 -12   13.99    4.51
 -15   3 -12    7.41    4.79
 -12  15  12   12.75    4.93
   6   9 -12   15.03    4.46
 -15   6 -12   19.32    6.09
 -15   6 -12   17.48    5.22
 -15   6 -12   18.33    4.88
   6   9 -12   18.11    4.91
  -6  -9  12   14.88    4.69
  -9  15  12   19.98    5.28
 -15   9 -12    6.34    3.75
 -15   9 -12    1.25    3.15
 -15   9 -12    9.47    3.92
   9   6 -12   10.66    3.53
  -6  15  12    0.69    2.70
  -6  15  12    3.37    3.21
  -9  -6  12    5.50    3.54
  12   3 -12   -2.40    2.30
 -15  12 -12    5.14    3.89
 -15  12 -12   -2.65    2.91
  -3  15  12    0.93    3.15
 -12  -3  12    3.45    3.49
  -3  15  12   -1.33    2.44
 -15  15 -12    6.50    4.73
 -15  15 -12    6.02    4.85
  15   0 -12    0.05    2.74
 -15   0  12   -5.01    3.40
   0  15  12   -0.44    3.66
   5  11 -12    2.35    3.37
   5  11 -12   -2.98    2.37
 -16   5 -12    0.64    3.92
 -16   5 -12    1.18    3.82
 -11  16  12   -3.57    2.81
 -16   8 -12   10.85    4.67
   8   8 -12   14.64    4.51
 -16   8 -12   12.69    5.53
   8   8 -12    9.09    4.00
 -16   8 -12   11.16    4.64
  -8  16  12    5.45    3.90
  -8  -8  12    7.68    3.71
 -16  11 -12    2.29    3.77
 -16  11 -12    2.14    3.67
  11   5 -12    1.65    3.05
  -5  16  12   -1.52    3.17
 -11  -5  12    5.42    3.86
  -5  16  12    1.72    3.16
 -17   7 -12    1.51    3.79
 -17   7 -12    2.57    4.29
   7  10 -12   -0.03    3.45
   7  10 -12    1.90    3.41
 -10  17  12    0.49    3.67
 -17  10 -12   -1.33    3.47
  10   7 -12   -1.59    3.16
 -17  10 -12    8.32    4.32
  10   7 -12   -1.95    3.15
 -17  10 -12   -5.62    3.62
 -10  -7  12   -2.90    3.04
  -7  17  12   -3.22    2.66
  -7  17  12    2.95    3.45
  -1   0 -13   -1.02    1.40
  -2  -1 -13  363.45   43.57
  -2  -1 -13  352.62   41.55
  -1   3 -13  356.69   38.34
  -1   3 -13  362.47   43.24
   2   1  13  325.03   36.14
  -2   2 -13    1.29    1.68
  -2   2 -13    1.91    1.19
  -2   2 -13    0.27    1.44
  -3  -2 -13  236.10   27.19
  -3  -2 -13  203.01   25.63
  -2   5 -13  224.08   22.26
  -2   5 -13  218.44   24.18
  -5   3  13  200.31   23.80
  -5   3  13  227.71   23.96
   3   2  13  193.53   22.29
  -3   1 -13  337.82   44.00
  -3   1 -13  345.87   42.13
  -3   1 -13  359.11   38.43
  -2   3  13  376.69   38.68
  -3   4 -13   44.86    5.65
  -1  -3 -13   51.57    5.50
  -3   4 -13   41.45    6.35
  -4   1  13   38.40    5.54
   1   3  13   35.55    4.53
   1   3  13   37.55    5.17
  -3   7 -13  105.03   13.05
  -3   7 -13  111.68   12.02
  -4  -3 -13  113.95   13.94
  -4  -3 -13  113.88   14.75
  -3   7 -13  106.47   14.02
   4   3  13  109.71   11.99
  -7   4  13  109.81   13.18
  -7   4  13  111.58   13.09
   4   3  13  111.59   12.13
  -4   0 -13   -1.06    0.62
  -4   0 -13   -1.75    1.52
  -4   0 -13   -0.04    1.87
   0   4 -13   -0.97    1.35
   0   4 -13    0.03    0.92
  -4   4  13   -0.30    1.34
   4   0  13    0.06    0.98
   0  -4  13   -0.71    1.29
  -4   3 -13   46.39    5.78
  -4   3 -13   43.12    6.64
  -4   3 -13   51.32    7.07
  -3  -1  13   44.86    5.92
  -1   4  13   43.36    5.57
  -1   4  13   53.25    6.30
  -2  -4 -13  123.23   13.41
  -4   6 -13   94.64   13.78
  -4   6 -13   97.12   12.70
  -4   6 -13  101.78   11.50
  -2  -4 -13  115.06   14.51
   2   4  13  111.83   11.99
  -6   2  13  115.20   12.84
  -4   9 -13   18.72    3.83
  -5  -4 -13   27.17    5.26
  -4   9 -13   20.95    4.55
  -4   9 -13   31.39    5.15
  -5  -4 -13   29.75    4.83
  -9   5  13   25.81    4.68
   5   4  13   30.12    4.43
  -9   5  13   22.22    4.83
   5   4  13   25.35    3.24
  -1   6 -13   33.69    5.15
  -1   6 -13   28.24    4.30
  -5  -1 -13   31.07    5.64
  -5  -1 -13   29.57    5.11
   1  -6  13   40.10    4.19
  -6   5  13   26.48    4.55
   5   1  13   26.21    4.01
  -6   5  13   25.40    4.87
  -5   2 -13  187.67   24.36
  -5   2 -13  199.58   25.50
  -5   2 -13  209.88   22.09
  -2  -3  13  216.24   22.38
  -3   5  13  187.71   22.28
  -5   5 -13    1.20    1.51
  -5   5 -13    0.18    0.58
   0  -5 -13   -0.26    0.88
  -5   5 -13    0.62    1.71
  -5   0  13   -1.14    1.61
   0   5  13   -0.34    0.87
   0   5  13   -2.19    1.30
  -5   8 -13   43.52    5.81
  -5   8 -13   45.85    7.23
  -3  -5 -13   49.95    7.69
  -3  -5 -13   43.09    6.34
  -5   8 -13   44.95    6.97
   3   5  13   52.83    5.52
  -8   3  13   40.74    6.80
   3   5  13   44.16    6.38
  -6  -5 -13    5.49    2.92
  -6  -5 -13    3.05    2.37
  -5  11 -13    5.11    2.41
  -5  11 -13    6.00    2.21
  -5  11 -13    3.09    2.61
 -11   6  13    4.26    3.12
 -11   6  13    2.74    2.60
   6   5  13    6.62    2.52
   6   5  13    5.13    1.59
  -6  -2 -13    7.01    2.95
  -6  -2 -13    2.83    2.46
  -2   8 -13    4.67    1.99
  -6  -2 -13    3.77    2.19
  -2   8 -13    2.10    2.40
   2  -8  13    2.27    1.11
  -8   6  13    4.00    2.25
   6   2  13    5.09    1.71
  -8   6  13    1.08    2.05
   1   5 -13   26.35    4.76
  -6   1 -13   28.64    5.34
  -6   1 -13   31.98    4.07
   1   5 -13   27.35    4.51
  -6   1 -13   26.96    4.96
  -5   6  13   30.69    4.61
  -1  -5  13   45.42    4.97
   6  -1  13   31.77    3.78
  -5   6  13   33.55    5.17
  -6   4 -13   99.38   14.40
   2  -6 -13  112.88   13.52
  -6   4 -13  114.25   13.20
  -4  -2  13  122.69   13.37
  -2   6  13  118.43   13.02
  -2   6  13  116.80   12.71
  -1  -6 -13   43.92    4.84
  -6   7 -13   28.66    5.71
  -6   7 -13   32.70    5.65
  -6   7 -13   30.92    4.14
  -7   1  13   31.60    5.66
   1   6  13   40.97    4.64
   1   6  13   35.50    5.26
  -6  10 -13   90.37   13.44
  -4  -6 -13   95.47   14.64
  -6  10 -13   95.80   12.02
  -4  -6 -13  118.37   13.88
  -6  10 -13  130.75   14.36
   4   6  13  124.12   12.37
 -10   4  13   99.64   13.54
   4   6  13  109.91   12.58
  -6  13 -13   17.64    3.93
  -6  13 -13   15.26    3.75
  -6  13 -13    6.88    3.92
   7   6  13   10.06    3.45
 -13   7  13   18.71    4.53
  -7  -3 -13    1.77    2.17
  -3  10 -13    0.48    1.75
  -3  10 -13   -2.42    2.42
  -3  10 -13    2.17    2.50
  -7  -3 -13   -1.31    2.63
 -10   7  13    2.82    2.37
   7   3  13    2.02    1.69
 -10   7  13    1.12    2.35
  -7   0 -13   -2.32    1.83
   0   7 -13    0.18    1.90
  -7   0 -13    1.24    2.29
   0   7 -13   -0.77    1.39
  -7   7  13    2.64    1.76
   7   0  13   -1.24    1.01
   0  -7  13   -2.04    0.98
  -7   7  13    2.04    1.87
  -7   3 -13  110.30   14.02
  -7   3 -13  108.43   12.41
  -7   3 -13  113.93   12.89
  -3  -4  13  108.07   12.60
  -4   7  13   99.42   12.63
  -7   6 -13   38.07    5.43
  -7   6 -13   26.61    5.27
  -1   7  13   33.88    4.55
  -6  -1  13   38.40    5.57
  -1   7  13   21.64    4.48
  -7   9 -13  136.50   15.13
  -7   9 -13  124.50   15.90
  -2  -7 -13  130.72   16.63
  -7   9 -13  124.44   13.17
   2   7  13  126.88   13.97
  -9   2  13  134.05   15.20
   2   7  13  107.86   13.90
  -7  12 -13    4.62    2.17
  -5  -7 -13    2.51    2.62
  -7  12 -13    5.66    2.65
  -7  12 -13    0.23    2.59
 -12   5  13    2.62    2.86
   5   7  13    6.70    2.55
  -7  15 -13    4.34    3.63
  -7  15 -13    3.84    3.08
 -15   8  13    9.70    4.14
   8   7  13    5.23    3.07
  -4  12 -13    6.00    3.61
  -8  -4 -13   15.65    4.23
  -8  -4 -13   18.25    4.72
  -4  12 -13   19.55    3.92
  -4  12 -13    9.08    3.16
 -12   8  13   11.37    4.22
 -12   8  13    7.83    3.62
   8   4  13   11.63    3.21
  -1   9 -13   51.70    7.62
  -8  -1 -13   63.80    8.68
  -8  -1 -13   49.86    7.56
  -1   9 -13   45.63    6.53
   1  -9  13   39.59    5.63
   8   1  13   46.43    6.14
  -9   8  13   50.69    7.81
  -9   8  13   45.20    6.75
   2   6 -13    2.50    1.72
  -8   2 -13    1.28    2.09
   2   6 -13    7.57    2.50
  -8   2 -13    2.18    2.19
  -8   2 -13    3.06    1.63
  -2  -6  13    1.77    1.72
  -6   8  13    1.31    2.02
   8  -2  13    2.68    1.04
  -6   8  13    0.38    1.76
  -8   5 -13   37.61    6.37
  -8   5 -13   41.00    6.42
  -8   5 -13   57.27    8.07
  -3   8  13   51.68    6.21
  -3   8  13   34.99    6.17
  -5  -3  13   59.67    7.44
  -8   8 -13   -2.29    1.82
  -8   8 -13   -1.14    1.66
  -8   0  13    0.89    2.15
   0   8  13    0.08    1.67
   0   8  13    0.95    1.48
  -8  11 -13   18.28    4.44
  -8  11 -13   23.63    4.94
  -8  11 -13   18.14    3.14
  -3  -8 -13   22.41    4.90
   3   8  13   17.76    4.12
 -11   3  13   20.24    4.78
   3   8  13   16.67    3.24
  -8  14 -13    2.05    3.12
  -8  14 -13    6.23    2.54
   6   8  13    2.09    2.39
 -14   6  13   -1.93    2.72
  -8  17 -13    1.12    4.27
   9   8  13    1.28    2.79
 -17   9  13    5.43    4.01
  -5  14 -13   -1.85    2.59
  -5  14 -13    0.74    3.12
 -14   9  13    7.95    3.55
 -14   9  13    1.31    2.78
   9   5  13    0.27    2.25
  -9  -2 -13   40.27    7.39
  -2  11 -13   39.02    6.32
  -9  -2 -13   36.21    6.94
  -2  11 -13   43.57    7.34
 -11   9  13   40.58    6.58
   9   2  13   38.66    5.81
 -11   9  13   34.24    7.06
  -9   1 -13   66.12    9.33
  -9   1 -13   48.53    8.09
   1   8 -13   51.00    7.37
   1   8 -13   60.76    8.34
  -8   9  13   41.81    7.78
  -1  -8  13   54.94    6.70
  -8   9  13   55.69    6.94
   9  -1  13   45.18    6.05
  -9   4 -13   27.12    5.38
  -9   4 -13   25.77    4.76
   4   5 -13   16.32    3.77
  -9   4 -13   24.72    4.25
  -5   9  13   29.75    4.11
  -4  -5  13   27.87    4.63
  -5   9  13   20.64    4.26
  -9   7 -13  113.94   17.14
  -9   7 -13  131.96   15.89
  -2   9  13  151.80   15.32
  -2   9  13  143.01   15.53
  -7  -2  13  128.73   15.91
  -1  -9 -13    6.33    3.50
  -9  10 -13    7.85    3.38
  -9  10 -13    9.63    3.48
 -10   1  13   17.25    3.92
   1   9  13    7.13    2.31
   1   9  13   10.27    3.37
  -9  13 -13   11.36    4.32
  -4  -9 -13    8.58    3.20
  -9  13 -13   13.45    3.92
 -13   4  13    8.52    3.83
   4   9  13   11.12    3.43
  -9  16 -13    4.58    3.85
 -16   7  13    6.99    4.16
   7   9  13    8.14    3.74
  -6  16 -13   14.97    4.41
  -6  16 -13   13.55    5.33
 -16  10  13   13.43    5.28
  10   6  13   12.45    4.16
 -16  10  13   15.86    4.76
  -3  13 -13   -0.27    2.31
 -10  -3 -13    3.97    3.64
 -10  -3 -13    2.13    3.02
  -3  13 -13    0.08    2.86
  10   3  13    0.94    2.06
 -13  10  13   -0.03    3.00
 -13  10  13    0.50    2.52
 -10   0 -13   -0.51    2.46
 -10   0 -13    3.78    2.74
   0  10 -13    0.98    2.68
   0  10 -13   -2.53    1.79
 -10  10  13   -0.82    1.95
 -10  10  13   -3.80    2.28
  10   0  13   -1.34    1.32
   0 -10  13   -1.05    1.51
   3   7 -13   -4.27    1.66
   3   7 -13    1.70    1.84
 -10   3 -13    1.06    1.76
 -10   3 -13    2.10    2.76
 -10   3 -13   -1.46    2.20
  10  -3  13    0.08    0.87
  -7  10  13    2.07    1.61
  -3  -7  13    1.36    1.74
  -7  10  13    0.58    2.13
 -10   6 -13   76.63   11.63
   6   4 -13  105.01   11.25
 -10   6 -13   95.30   11.88
 -10   6 -13  104.64   13.40
  -4  10  13   87.31   11.63
  -6  -4  13  100.00   11.92
  -4  10  13  105.72   11.61
 -10   9 -13    8.05    3.76
 -10   9 -13   12.11    3.60
  -9  -1  13   11.81    3.90
  -1  10  13   10.37    2.89
  -1  10  13   11.49    3.52
 -10  12 -13   98.76   11.91
  -2 -10 -13   87.54   11.78
 -10  12 -13   90.84   12.43
   2  10  13   78.68    9.95
   2  10  13   66.65   10.58
 -12   2  13   65.88   11.22
 -10  15 -13    9.82    4.11
   5  10  13    5.60    3.40
 -15   5  13    8.10    4.06
 -11  -4 -13   -1.03    3.26
  -4  15 -13   -0.14    3.34
  -4  15 -13   -3.31    2.63
 -15  11  13    1.45    2.73
  11   4  13   -1.78    2.13
 -15  11  13    4.35    3.38
  -1  12 -13    2.57    2.52
 -11  -1 -13   -1.07    2.95
 -11  -1 -13    2.30    2.96
  -1  12 -13   -1.59    2.46
 -12  11  13    0.44    2.27
  11   1  13    0.44    1.80
 -12  11  13   -2.14    2.53
 -11   2 -13   35.58    6.69
 -11   2 -13   32.09    7.22
   2   9 -13   37.88    6.91
   2   9 -13   50.38    6.97
  -9  11  13   39.04    5.89
  -9  11  13   40.81    7.22
  -2  -9  13   38.53    6.04
  11  -2  13   45.99    5.14
 -11   5 -13    2.30    2.66
 -11   5 -13    7.43    3.34
   5   6 -13    6.85    2.58
 -11   5 -13   -0.33    2.15
  -6  11  13    3.90    2.45
  -5  -6  13    4.54    2.52
  -6  11  13    3.27    1.64
 -11   8 -13   13.67    4.05
   8   3 -13   10.42    3.36
 -11   8 -13   12.24    4.21
  -3  11  13   10.51    3.35
  -3  11  13   11.93    3.23
  -8  -3  13   16.30    4.01
  11   0 -13    3.70    2.43
 -11  11 -13    2.99    2.84
 -11  11 -13    1.77    2.62
 -11   0  13   -2.70    2.32
   0  11  13    1.68    2.29
   0  11  13   -2.16    1.63
 -11  14 -13   -1.23    3.04
 -11  14 -13    4.49    3.40
 -14   3  13    5.16    3.61
   3  11  13    2.84    2.61
 -11  17 -13    5.61    4.46
   6  11  13    5.45    3.63
 -17   6  13   -0.06    3.59
 -12  -2 -13   -2.51    3.19
  -2  14 -13   -0.99    2.80
  -2  14 -13    4.46    3.41
 -14  12  13    3.04    3.46
  12   2  13    8.55    2.79
 -14  12  13    2.67    2.94
 -12   1 -13    1.60    2.79
   1  11 -13   -0.90    2.30
 -12   1 -13    0.45    2.99
   1  11 -13    1.85    2.46
 -11  12  13   -1.32    1.89
 -11  12  13    1.21    2.69
 -12   4 -13   13.90    3.69
 -12   4 -13   16.54    4.43
   4   8 -13   11.88    3.73
 -12   4 -13    5.57    3.48
   4   8 -13   21.09    4.48
  -4  -8  13   17.33    3.85
  -8  12  13   14.13    4.21
   7   5 -13    8.81    2.80
 -12   7 -13    1.56    3.41
 -12   7 -13    4.46    2.81
 -12   7 -13    3.22    2.76
  -7  -5  13    5.95    2.82
  -5  12  13    1.26    2.26
  -5  12  13    5.05    3.19
 -12  10 -13   84.75   12.93
  10   2 -13   71.15   10.43
 -12  10 -13  102.52   12.69
  -2  12  13   80.79   11.37
 -10  -2  13   88.70   11.90
  -2  12  13   76.32   10.43
 -12  13 -13    9.98    4.23
  13  -1 -13    5.64    2.89
 -12  13 -13    8.33    4.32
 -13   1  13    9.87    3.83
   1  12  13    5.07    2.98
  16  -4 -13   28.57    5.21
 -12  16 -13   20.10    6.32
   4  12  13   20.67    5.64
 -16   4  13   16.90    5.66
  -3  16 -13   -1.72    2.90
  -3  16 -13    0.58    4.04
 -13  -3 -13   -7.61    3.16
 -16  13  13   -0.80    3.79
   0  13 -13   -3.32    2.34
 -13   0 -13    1.46    3.43
 -13   0 -13    5.57    3.91
   0  13 -13    1.71    3.11
 -13  13  13   -2.38    2.82
   3  10 -13    3.57    2.75
   3  10 -13   -1.24    2.09
 -13   3 -13   -1.53    2.32
 -13   3 -13    0.40    2.78
 -10  13  13   -1.19    2.63
  -3 -10  13    6.03    2.66
   6   7 -13   10.42    3.32
 -13   6 -13    9.27    3.87
 -13   6 -13   14.43    4.02
   6   7 -13    8.42    3.32
 -13   6 -13   11.20    4.53
  -6  -7  13    8.38    3.37
  -7  13  13   15.08    4.23
   9   4 -13   19.10    4.13
 -13   9 -13    8.63    4.40
 -13   9 -13   15.54    4.46
  -4  13  13    9.95    3.57
  -9  -4  13    7.69    3.68
  -4  13  13    8.77    3.51
 -13  12 -13   -1.00    3.05
 -13  12 -13    6.03    3.98
  12   1 -13    1.24    2.43
  -1  13  13    4.09    2.67
 -12  -1  13   10.13    4.02
  -1  13  13    5.32    3.20
 -13  15 -13    3.59    3.91
 -13  15 -13    3.08    3.71
  15  -2 -13    1.37    2.78
 -15   2  13    3.26    3.67
   2  13  13    1.15    3.31
  -1  15 -13   -0.26    3.20
 -14  -1 -13    1.39    4.19
  -1  15 -13    0.84    3.07
 -15  14  13    5.70    4.31
   2  12 -13   -0.80    2.61
 -14   2 -13    3.69    3.76
 -14   2 -13    2.08    4.06
   2  12 -13    1.69    2.58
 -12  14  13    0.74    2.96
 -14   5 -13    3.64    3.25
 -14   5 -13   -0.93    2.48
 -14   5 -13    8.42    3.72
   5   9 -13   -1.13    2.84
   5   9 -13   -2.83    2.22
  -5  -9  13    2.01    2.62
  -9  14  13    6.59    3.67
 -14   8 -13    1.76    3.30
   8   6 -13   -2.00    2.30
 -14   8 -13    3.43    3.20
 -14   8 -13    6.30    4.09
  -6  14  13    1.49    2.57
  -6  14  13    2.02    3.04
  -8  -6  13    2.42    2.92
 -14  11 -13    1.83    2.93
  11   3 -13    1.43    2.67
 -14  11 -13   -2.64    2.90
  -3  14  13   -1.47    2.66
 -11  -3  13    4.50    3.29
  -3  14  13    2.66    2.77
 -14  14 -13    0.83    3.74
  14   0 -13   -1.63    2.35
 -14  14 -13   -0.73    3.54
 -14   0  13    0.89    2.88
   0  14  13   -0.76    2.93
   1  14 -13    3.58    3.26
   1  14 -13    0.69    3.06
 -15   1 -13   -3.13    3.59
 -14  15  13   -3.61    3.33
   4  11 -13    2.81    3.42
   4  11 -13   -3.03    2.45
 -15   4 -13   -0.26    3.50
 -15   4 -13    1.33    3.57
 -11  15  13    0.94    3.43
 -15   7 -13    4.42    3.91
   7   8 -13    5.37    3.44
 -15   7 -13   -0.20    2.53
 -15   7 -13    8.14    4.23
   7   8 -13    4.22    2.66
  -7  -8  13   -3.46    2.43
  -8  15  13    3.17    3.01
 -15  10 -13    3.42    3.86
 -15  10 -13    7.70    4.33
  10   5 -13    3.18    2.55
  -5  15  13    7.32    3.62
 -10  -5  13    5.48    3.50
  -5  15  13    1.53    3.39
 -15  13 -13    5.47    4.13
 -15  13 -13   -3.29    3.44
  13   2 -13    1.40    2.89
  -2  15  13    5.27    4.05
 -13  -2  13    0.44    3.20
 -16   3 -13   -0.29    3.61
 -16   3 -13   -8.10    3.35
   3  13 -13    2.99    3.37
   3  13 -13    2.50    3.46
 -13  16  13    0.05    3.78
 -16   6 -13   10.46    4.92
   6  10 -13    7.96    4.16
 -16   6 -13   11.84    5.41
   6  10 -13   10.39    4.07
 -10  16  13    6.04    3.61
   9   7 -13   10.72    4.10
 -16   9 -13    4.27    3.90
 -16   9 -13    1.92    4.13
 -16   9 -13    4.09    4.00
   9   7 -13    3.50    3.42
  -9  -7  13    6.47    4.09
  -7  16  13    3.54    3.75
  -7  16  13    6.87    3.76
 -16  12 -13   20.14    6.33
  12   4 -13   26.98    5.48
 -16  12 -13   27.81    7.03
  -4  16  13   13.20    5.08
  -4  16  13   22.54    5.68
 -12  -4  13   13.48    5.27
 -17   8 -13   -1.31    4.01
   8   9 -13   -0.44    3.55
 -17   8 -13   -2.02    3.13
 -17   8 -13    2.25    3.91
   8   9 -13   -8.12    2.71
  -8  -9  13    4.03    3.83
  -9  17  13    3.74    3.80
 -17  11 -13   -2.99    3.69
  11   6 -13   -2.21    2.91
 -17  11 -13   -2.83    3.84
 -11  -6  13    8.54    4.35
  -6  17  13    8.18    4.45
  -6  17  13   -0.48    3.28
  -1   1 -14  234.07   29.17
   0   2 -14   43.71    6.67
  -2   0 -14   56.39    6.89
  -2   0 -14   49.97    5.62
  -2   0 -14   50.52    7.06
  -1  -2 -14    2.53    1.54
  -2   3 -14   -0.87    1.31
  -2   3 -14   -0.86    1.41
  -3   1  14   -2.43    1.55
   1   2  14    1.37    1.31
  -3  -1 -14   49.93    7.47
  -3  -1 -14   49.92    6.59
  -1   4 -14   39.36    6.36
  -1   4 -14   41.33    6.20
  -4   3  14   52.89    6.30
   3   1  14   54.05    5.65
  -4   3  14   47.61    6.05
  -3   2 -14    0.89    1.53
  -3   2 -14    0.36    1.80
  -3   2 -14    2.46    1.23
  -1   3  14    2.71    1.14
  -2  -1  14   -0.10    1.40
  -2  -3 -14    3.23    1.66
  -3   5 -14   -4.12    2.40
  -3   5 -14    4.01    1.21
  -5   2  14    2.86    2.01
   2   3  14    3.71    1.75
  -4  -2 -14   55.77    6.47
  -2   6 -14   40.18    5.45
  -4  -2 -14   53.60    7.65
  -2   6 -14   27.04    5.84
   4   2  14   39.44    5.45
  -6   4  14   49.56    6.47
  -6   4  14   46.49    6.28
   1   3 -14   43.58    6.60
  -4   1 -14   56.40    5.92
  -4   1 -14   55.92    7.57
  -4   1 -14   53.46    7.14
  -1  -3  14   54.38    6.45
  -3   4  14   42.50    6.19
  -4   4 -14  147.72   20.32
  -4   4 -14  164.51   18.64
   0  -4 -14  191.11   19.89
   0   4  14  169.02   17.82
  -4   0  14  159.53   18.83
   0   4  14  157.83   18.15
  -4   7 -14   81.77    7.92
  -4   7 -14   64.07    9.40
  -4   7 -14   56.72    9.02
  -3  -4 -14   59.96    9.70
  -3  -4 -14   61.73    9.05
  -7   3  14   66.85    8.86
   3   4  14   78.01    7.69
   3   4  14   62.87    8.13
  -3   8 -14   51.92    7.48
  -3   8 -14   54.76    7.95
  -3   8 -14   69.07    6.46
  -5  -3 -14   54.14    8.34
  -5  -3 -14   44.20    7.49
   3  -8  14   47.22    5.91
  -8   5  14   53.37    7.60
   5   3  14   50.01    6.54
   5   3  14   47.67    5.61
  -8   5  14   42.97    7.07
  -5   0 -14  129.96   17.84
  -5   0 -14  139.05   17.03
   0   5 -14  128.63   15.61
   0   5 -14  170.54   14.84
  -5   0 -14  115.27   14.88
   5   0  14  146.55   14.42
  -5   5  14  132.56   15.55
   0  -5  14  136.59   15.32
  -5   5  14  148.56   15.80
  -5   3 -14    0.71    1.77
  -5   3 -14    2.79    1.47
  -2   5  14    4.85    1.64
  -3  -2  14    3.61    1.89
  -1  -5 -14   30.22    4.69
  -5   6 -14   37.23    5.43
  -5   6 -14   31.26    5.73
  -6   1  14   43.40    5.83
   1   5  14   42.36    5.21
  -4  -5 -14   31.96    5.59
  -4  -5 -14   24.65    4.47
  -5   9 -14   26.22    4.96
  -5   9 -14   21.97    4.62
  -5   9 -14   22.68    3.82
   4   5  14   13.63    3.62
  -9   4  14   23.71    4.71
   4   5  14   29.65    3.19
  -4  10 -14  117.24   13.83
  -4  10 -14  138.36   12.21
  -4  10 -14  100.12   13.01
  -6  -4 -14  110.36   14.56
  -6  -4 -14   96.41   13.66
   6   4  14   98.28   11.63
 -10   6  14  105.46   13.02
   6   4  14   84.40   11.75
 -10   6  14  114.91   13.37
  -1   7 -14   21.00    3.71
  -6  -1 -14   22.08    4.54
  -6  -1 -14   25.81    4.96
  -1   7 -14   22.06    4.35
   6   1  14   18.43    3.17
  -7   6  14   20.81    4.13
  -7   6  14   25.73    4.01
   1  -7  14   20.04    3.24
  -6   2 -14   37.92    6.94
   2   4 -14   51.37    5.94
  -6   2 -14   43.25    5.62
  -2  -4  14   41.15    6.27
  -4   6  14   43.60    6.33
   1  -6 -14   47.31    5.20
  -6   5 -14   41.50    5.90
  -6   5 -14   31.80    6.35
  -1   6  14   30.95    5.21
  -5  -1  14   49.64    6.36
  -1   6  14   41.15    5.75
  -2  -6 -14   74.90    9.49
  -2  -6 -14   48.60    7.06
  -6   8 -14   59.88    8.43
  -6   8 -14   54.62    6.24
  -6   8 -14   50.77    7.77
   2   6  14   54.05    6.45
  -8   2  14   52.86    7.86
   2   6  14   60.36    7.59
  -5  -6 -14   16.72    3.35
  -6  11 -14    9.27    2.58
  -6  11 -14    6.47    2.91
  -6  11 -14   11.40    3.19
  -5  -6 -14   10.36    3.56
   5   6  14    4.20    2.29
 -11   5  14    8.88    3.20
  -7  -5 -14    3.83    2.87
  -5  12 -14   12.49    3.33
  -5  12 -14   13.91    3.87
  -5  12 -14    7.33    2.70
 -12   7  14    4.99    3.14
 -12   7  14    7.69    3.76
   7   5  14    7.97    2.75
  -2   9 -14   -0.06    2.27
  -7  -2 -14   -0.08    2.35
  -7  -2 -14    3.49    2.22
  -2   9 -14    0.57    1.72
   2  -9  14    3.82    1.27
  -9   7  14    1.13    2.43
  -9   7  14    7.00    2.42
   7   2  14    2.70    1.65
  -7   1 -14   21.61    4.36
  -7   1 -14   26.11    3.55
   1   6 -14   17.01    4.10
  -7   1 -14   23.80    4.81
   1   6 -14   25.45    4.03
  -6   7  14   21.35    3.74
  -1  -6  14   18.91    3.57
  -6   7  14   28.82    4.51
   7  -1  14   21.54    3.09
  -7   4 -14   69.47    8.41
  -7   4 -14   66.59    9.47
  -4  -3  14   68.51    8.63
  -3   7  14   76.08    8.56
  -3   7  14   63.84    8.32
  -7   7 -14   77.25   10.75
  -7   7 -14   79.39    9.94
   0   7  14   78.05    9.22
   0   7  14   76.33    9.40
  -7   0  14   83.45   10.16
  -7  10 -14   11.82    3.29
  -3  -7 -14   11.49    3.53
  -7  10 -14   11.54    3.29
  -7  10 -14    4.82    1.75
 -10   3  14    4.30    2.69
   3   7  14   11.03    2.07
   3   7  14    5.04    2.40
  -7  13 -14    9.62    3.38
  -7  13 -14    3.01    3.13
  -6  -7 -14   11.02    3.50
  -7  13 -14   10.29    2.66
   6   7  14    3.30    2.51
 -13   6  14    2.24    3.11
  -6  14 -14   33.66    7.55
  -6  14 -14   60.80    7.63
 -14   8  14   48.33    7.96
   8   6  14   34.98    6.70
  -8  -3 -14   15.83    4.52
  -3  11 -14   19.00    4.56
  -3  11 -14   19.02    4.84
  -3  11 -14   23.38    4.20
  -8  -3 -14   17.21    4.68
   8   3  14   21.84    3.89
 -11   8  14   14.79    4.51
 -11   8  14   19.06    4.51
   0   8 -14  236.38   30.16
  -8   0 -14  274.29   35.11
  -8   0 -14  301.29   32.56
   0   8 -14  251.06   32.10
   0  -8  14  335.40   31.65
  -8   8  14  316.93   32.66
   8   0  14  312.68   29.93
  -8   8  14  266.21   31.81
  -8   3 -14   59.35    8.69
   3   5 -14   44.22    6.75
  -8   3 -14   49.15    6.52
  -8   3 -14   47.55    7.33
  -5   8  14   57.82    7.54
  -3  -5  14   52.53    7.17
  -8   6 -14   67.62    9.35
  -8   6 -14   68.49    7.94
  -2   8  14   58.59    8.02
  -2   8  14   52.95    7.35
  -6  -2  14   50.22    8.09
  -8   9 -14   49.50    7.52
  -8   9 -14   30.71    6.36
   1   8  14   45.15    6.57
   1   8  14   42.53    5.44
  -9   1  14   39.22    7.02
  -8  12 -14    2.22    3.23
  -8  12 -14   11.27    2.75
  -8  12 -14   13.44    3.87
  -4  -8 -14   17.44    4.26
 -12   4  14   10.28    4.02
   4   8  14   11.87    3.37
  -8  15 -14   17.02    5.52
 -15   7  14   16.42    5.05
   7   8  14   21.06    4.81
  -7  16 -14    3.27    3.49
  -7  16 -14    1.87    3.01
 -16   9  14    0.21    3.13
   9   7  14    2.52    2.73
  -9  -4 -14   12.99    4.30
  -4  13 -14   14.61    3.72
  -4  13 -14   10.89    4.02
   9   4  14   11.01    3.30
 -13   9  14    6.07    3.42
 -13   9  14    9.36    4.15
  -1  10 -14   14.29    4.06
  -1  10 -14   11.80    3.23
  -9  -1 -14   10.46    3.74
  -9  -1 -14   12.01    3.93
 -10   9  14   11.79    3.31
   9   1  14    8.61    2.56
 -10   9  14   12.39    4.18
   2   7 -14    2.67    2.10
  -9   2 -14    6.18    2.77
  -9   2 -14    0.15    1.52
   2   7 -14    0.86    2.13
  -9   2 -14    2.45    2.61
  -7   9  14    4.15    2.61
   9  -2  14    1.30    1.01
  -7   9  14    0.90    1.64
  -2  -7  14    4.84    2.06
  -9   5 -14   26.20    5.41
  -9   5 -14   24.72    4.39
   5   4 -14   23.67    4.31
  -9   5 -14   30.64    4.83
  -4   9  14   19.10    4.08
  -5  -4  14   28.06    4.86
  -4   9  14   18.37    4.24
  -9   8 -14   38.59    6.93
  -9   8 -14   42.76    6.68
  -1   9  14   31.89    5.86
  -1   9  14   39.20    5.76
  -8  -1  14   44.84    6.75
  -9  11 -14   -0.29    2.17
  -2  -9 -14   -2.94    2.78
  -9  11 -14    0.01    2.44
 -11   2  14   -0.27    2.41
   2   9  14    0.62    1.54
   2   9  14   -1.90    1.85
  -9  14 -14   26.60    5.42
  -9  14 -14   17.54    5.46
   5   9  14   17.38    4.65
 -14   5  14   19.13    5.38
  -9  17 -14    3.41    4.03
 -17   8  14    0.36    3.48
   8   9  14    3.83    3.18
  -5  15 -14   13.73    4.17
  -5  15 -14   -0.65    3.32
  10   5  14    2.50    2.80
 -15  10  14    1.75    3.71
 -15  10  14    6.33    3.49
 -10  -2 -14   58.68    9.09
  -2  12 -14   34.49    7.69
  -2  12 -14   70.94    8.26
  -2  12 -14   39.34    7.95
 -10  -2 -14   50.42    9.07
 -12  10  14   50.69    7.76
  10   2  14   52.14    7.11
 -12  10  14   42.38    8.22
   1   9 -14   15.65    3.62
   1   9 -14    7.03    3.16
 -10   1 -14    8.95    3.55
 -10   1 -14    8.43    3.66
  -9  10  14   10.33    2.86
  10  -1  14   11.93    2.40
  -1  -9  14   11.66    2.89
  -9  10  14   17.36    4.45
   4   6 -14   92.39   11.92
 -10   4 -14  103.97   14.28
 -10   4 -14  111.68   12.53
 -10   4 -14   87.13   12.79
  -6  10  14   97.82   11.95
  -4  -6  14  118.81   12.64
  -6  10  14  112.35   12.88
 -10   7 -14   11.76    3.94
 -10   7 -14   11.76    3.45
   7   3 -14   14.30    3.26
  -3  10  14    6.74    2.68
  -3  10  14   11.13    3.33
  -7  -3  14    7.53    3.21
 -10  10 -14   25.37    5.46
 -10  10 -14   16.81    4.71
 -10   0  14   17.24    4.52
   0  10  14   24.90    4.14
   0  10  14   17.57    4.39
 -10  13 -14    6.10    3.80
 -10  13 -14    7.59    3.70
 -13   3  14    8.57    3.77
   3  10  14   12.38    3.96
 -10  16 -14    5.17    4.03
   6  10  14   -0.65    2.75
 -16   6  14    2.36    3.48
  -3  14 -14   21.97    5.51
  -3  14 -14   34.62    5.96
 -11  -3 -14   28.33    6.76
 -14  11  14   18.38    4.89
  11   3  14   19.76    4.43
 -14  11  14   15.80    5.76
 -11   0 -14   11.06    4.08
 -11   0 -14   10.49    4.42
   0  11 -14   18.77    4.63
   0  11 -14   12.98    3.66
 -11  11  14   15.38    3.74
  11   0  14   15.94    3.19
 -11  11  14    9.28    3.85
   3   8 -14   17.24    4.05
   3   8 -14   15.07    4.17
 -11   3 -14   19.89    4.77
 -11   3 -14   19.64    3.92
 -11   3 -14   14.23    4.69
  -8  11  14   16.58    4.25
  -8  11  14   27.16    3.92
  -3  -8  14   18.58    3.85
 -11   6 -14    6.93    3.16
 -11   6 -14   11.61    4.08
   6   5 -14    7.85    2.94
 -11   6 -14   11.61    3.63
  -6  -5  14   10.61    3.37
  -5  11  14    7.41    3.24
  -5  11  14    7.11    2.79
 -11   9 -14    3.31    2.72
 -11   9 -14    3.85    2.90
   9   2 -14    3.94    2.26
  -2  11  14   -1.24    1.57
  -9  -2  14   -0.06    2.37
  -2  11  14   -2.32    2.01
  -1 -11 -14   -2.83    3.01
 -11  12 -14   -1.88    2.51
 -11  12 -14    3.05    3.09
   1  11  14   -0.39    2.33
 -12   1  14    4.13    2.99
   1  11  14    4.95    2.22
 -11  15 -14    4.86    3.50
   4  11  14    8.76    3.51
 -15   4  14    5.30    3.96
  -4  16 -14   33.63    6.12
  -4  16 -14   13.37    5.41
 -16  12  14   14.19    4.80
  12   4  14   20.74    4.68
 -16  12  14   11.88    5.99
  -1  13 -14    3.67    3.28
 -12  -1 -14   -0.90    2.81
 -12  -1 -14   -4.04    2.93
  -1  13 -14    5.37    2.87
 -13  12  14    0.51    3.20
  12   1  14    0.85    2.10
 -13  12  14    1.72    2.45
   2  10 -14   35.91    7.01
   2  10 -14   42.91    7.84
 -12   2 -14   43.79    8.25
 -12   2 -14   48.93    8.89
 -10  12  14   45.20    6.87
  -2 -10  14   70.98    7.31
 -10  12  14   39.13    7.92
   5   7 -14   11.13    3.49
 -12   5 -14    6.24    3.96
 -12   5 -14    8.65    3.70
   5   7 -14    7.04    3.07
 -12   5 -14    8.74    3.25
  -5  -7  14    9.74    3.33
  -7  12  14   14.86    3.74
   8   4 -14   17.00    3.76
 -12   8 -14    8.29    4.11
 -12   8 -14    4.77    3.28
  -4  12  14    9.19    3.51
  -4  12  14    8.43    3.19
  -8  -4  14    9.63    3.43
 -12  11 -14   -1.47    2.54
  11   1 -14    2.19    2.52
 -12  11 -14    3.52    3.40
  -1  12  14    0.08    2.01
 -11  -1  14    2.86    2.64
  -1  12  14    1.06    2.98
 -12  14 -14    2.16    3.36
  14  -2 -14   -0.52    2.17
 -12  14 -14   -5.09    2.29
 -14   2  14   -1.82    2.71
   2  12  14   -2.99    2.48
  -2  15 -14    5.80    3.49
  -2  15 -14    6.42    3.67
 -13  -2 -14   -1.37    3.87
 -15  13  14   -1.72    3.19
 -13   1 -14    2.27    2.96
   1  12 -14   -1.75    2.37
 -13   1 -14   -3.12    3.02
   1  12 -14    0.83    2.62
 -12  13  14   -1.81    3.26
 -13   4 -14   11.82    4.35
   4   9 -14    8.90    3.39
 -13   4 -14   14.00    4.49
   4   9 -14    8.88    3.65
  -4  -9  14    8.33    3.24
  -9  13  14   11.47    4.19
   7   6 -14    2.04    2.64
 -13   7 -14    4.80    3.42
 -13   7 -14    5.02    3.44
 -13   7 -14    9.76    3.58
  -6  13  14    3.28    2.92
  -6  13  14    6.00    2.98
  -7  -6  14    9.56    3.51
 -13  10 -14    4.46    3.50
 -13  10 -14   13.52    4.75
  10   3 -14    9.50    3.43
  -3  13  14    6.91    3.70
  -3  13  14    9.20    3.49
 -10  -3  14   14.54    4.46
 -13  13 -14    5.97    4.11
 -13  13 -14   -0.14    2.88
  13   0 -14    2.56    2.54
   0  13  14    3.69    3.19
 -13   0  14    7.57    3.87
 -13  16 -14    2.34    4.43
  16  -3 -14    0.97    2.81
 -16   3  14   -0.47    3.58
   3  13  14   -1.08    3.53
   0  14 -14   53.66    8.79
 -14   0 -14   46.17    9.15
 -14   0 -14   38.17    9.29
   0  14 -14   51.63    8.56
 -14  14  14   45.16    9.29
   3  11 -14   14.86    4.77
 -14   3 -14   24.39    6.15
 -14   3 -14   21.43    6.43
   3  11 -14   23.39    5.50
 -11  14  14   22.50    6.09
 -14   6 -14   41.95    7.26
 -14   6 -14   38.69    7.54
   6   8 -14   45.53    7.79
 -14   6 -14   42.95    8.53
   6   8 -14   37.04    7.09
  -6  -8  14   41.88    7.11
  -8  14  14   47.94    7.78
   9   5 -14   20.78    4.66
 -14   9 -14   13.87    5.34
 -14   9 -14   19.98    5.34
  -5  14  14   22.38    5.21
  -9  -5  14   10.56    4.44
  -5  14  14   34.71    5.75
 -14  12 -14    0.60    3.40
  12   2 -14   -1.41    2.29
 -14  12 -14   -3.73    3.05
  -2  14  14   -0.44    3.14
 -12  -2  14    1.90    3.21
  -2  14  14    3.68    2.58
  15  -1 -14   16.12    4.17
 -14  15 -14   11.98    5.41
 -14  15 -14    5.11    4.15
 -15   1  14    3.47    4.05
   1  14  14   12.59    5.00
   2  13 -14   -3.19    2.58
 -15   2 -14   -0.38    3.33
   2  13 -14    3.17    3.25
 -15   2 -14    2.27    4.10
 -13  15  14   -0.16    4.14
 -15   5 -14    7.04    4.63
 -15   5 -14    6.24    4.03
   5  10 -14    3.02    3.02
   5  10 -14    0.13    3.14
 -10  15  14    4.39    3.64
 -15   8 -14   26.87    6.58
 -15   8 -14   26.09    5.96
   8   7 -14   30.34    5.75
   8   7 -14   19.78    5.25
 -15   8 -14   21.04    5.61
  -8  -7  14   20.17    5.47
  -7  15  14   19.92    5.28
 -15  11 -14   -2.62    3.12
  11   4 -14    6.87    3.27
 -15  11 -14   -4.08    3.09
 -11  -4  14    5.88    3.75
  -4  15  14    0.44    2.83
  -4  15  14    0.46    3.16
 -15  14 -14    5.00    4.67
 -15  14 -14    8.45    4.73
  14   1 -14    7.14    3.47
  -1  15  14    6.38    4.53
 -14  -1  14    7.97    4.66
   4  12 -14   10.17    4.51
   4  12 -14   16.89    5.25
 -16   4 -14   18.64    6.10
 -16   4 -14   13.08    5.61
 -12  16  14   14.72    5.59
 -16   7 -14    1.23    3.39
   7   9 -14   -6.57    2.40
 -16   7 -14   -4.58    3.14
 -16   7 -14    0.78    3.74
   7   9 -14   -2.30    2.95
  -7  -9  14    0.97    3.11
  -9  16  14    1.95    3.52
 -16  10 -14    1.85    3.68
 -16  10 -14    2.60    3.75
  10   6 -14    1.73    3.21
  -6  16  14    4.43    3.43
 -10  -6  14    0.33    3.50
  -6  16  14    8.20    4.45
 -16  13 -14    3.18    4.34
  13   3 -14    5.81    3.43
 -16  13 -14   -1.20    3.73
  -3  16  14    1.32    3.28
 -13  -3  14    1.58    4.11
   6  11 -14    1.01    3.35
   6  11 -14   -1.53    3.25
 -17   9 -14    3.79    4.24
 -17   9 -14    8.73    5.24
   9   8 -14   -1.26    3.21
   9   8 -14    4.40    3.77
  -8  17  14    5.42    3.90
  -9  -8  14   -0.19    3.16
  -1  -1 -15  164.30   20.53
  -1   2 -15  155.44   18.80
  -1   2 -15  191.64   21.44
  -2   1 -15  155.98   17.38
  -2   1 -15  164.54   19.39
  -2   1 -15  155.91   20.14
  -2  -2 -15  967.17  112.58
  -2   4 -15  913.92  112.18
  -2  -2 -15  996.14  107.51
  -2   4 -15  879.78   99.19
  -4   2  15  917.32   99.21
   2   2  15  845.21   93.71
   0   3 -15   -0.84    1.10
  -3   0 -15   -0.32    1.77
  -3   0 -15    0.15    0.63
  -3   0 -15   -1.21    1.30
  -3   3  15   -0.62    1.23
  -3   3 -15   -1.52    1.49
  -3   3 -15    0.38    1.30
  -3   3 -15   -1.80    1.63
   0  -3 -15   -1.31    1.34
  -3   0  15   -1.05    1.64
   0   3  15    0.03    0.75
  -3   6 -15   82.91    8.97
  -3   6 -15   71.41    9.63
  -3  -3 -15   65.21    9.09
  -3  -3 -15   69.76    9.88
  -3   6 -15   61.86    7.74
  -6   3  15   74.90    8.82
   3   3  15   70.73    8.09
  -1   5 -15   72.34    8.55
  -4  -1 -15   66.81    9.08
  -4  -1 -15   68.37    9.62
  -5   4  15   64.28    8.43
   4   1  15   75.03    7.73
  -5   4  15   59.47    8.32
  -4   2 -15  951.85   99.63
  -4   2 -15  918.12  113.31
  -4   2 -15  933.93  108.47
  -2  -2  15 1000.00   99.89
  -2   4  15  831.72   99.64
  -1  -4 -15    6.07    1.70
  -4   5 -15    2.92    1.85
  -4   5 -15    0.96    1.83
  -4   5 -15    4.11    1.12
   1   4  15    5.08    1.05
   1   4  15    1.59    1.51
  -5   1  15    3.78    1.98
  -4  -4 -15  120.81   17.51
  -4  -4 -15  123.10   16.46
  -4   8 -15  127.21   16.83
  -4   8 -15  150.29   15.88
  -4   8 -15  133.75   14.29
   4   4  15  143.63   14.64
  -8   4  15  130.49   15.50
  -5  -2 -15   16.49    4.16
  -5  -2 -15   22.17    4.13
  -2   7 -15   14.52    2.99
  -2   7 -15   11.23    3.31
   5   2  15   16.50    2.97
  -7   5  15   22.89    4.05
   2  -7  15   16.33    2.73
  -7   5  15   19.41    3.75
  -5   1 -15   68.81    8.87
  -5   1 -15   56.03    6.89
   1   4 -15   50.63    7.68
  -5   1 -15   66.69    8.49
   5  -1  15   73.44    6.76
  -4   5  15   66.64    7.63
  -1  -4  15   55.05    7.40
  -5   4 -15    5.02    2.34
   1  -5 -15    3.66    1.47
  -5   4 -15    3.91    1.77
  -1   5  15    4.76    1.41
  -4  -1  15    3.18    1.72
  -1   5  15    5.63    2.18
  -5   7 -15  148.76   17.73
  -5   7 -15  175.27   16.24
  -2  -5 -15  144.33   19.95
  -2  -5 -15  157.45   18.68
  -5   7 -15  160.60   19.26
   2   5  15  138.58   16.78
  -7   2  15  159.60   17.88
   2   5  15  155.08   16.79
  -5  10 -15    8.03    3.01
  -5  -5 -15    3.04    2.06
  -5  -5 -15    0.22    2.33
  -5  10 -15    1.49    2.20
  -5  10 -15    2.42    1.87
   5   5  15    3.74    1.02
 -10   5  15    1.55    2.49
   5   5  15    1.31    1.87
  -3   9 -15   12.99    3.72
  -3   9 -15   11.62    3.69
  -6  -3 -15   13.37    3.61
  -6  -3 -15   16.11    3.97
  -3   9 -15   14.07    2.93
   6   3  15   13.90    2.89
  -9   6  15   16.63    4.08
  -9   6  15    9.04    3.05
   6   3  15   10.27    1.74
   3  -9  15   11.35    2.01
  -6   0 -15    0.67    2.04
   0   6 -15    1.31    1.73
  -6   0 -15   -0.31    1.81
   0   6 -15    0.85    1.50
   0  -6  15    3.80    1.40
  -6   6  15   -1.83    1.39
  -6   6  15   -3.62    1.04
   6   0  15    0.29    1.00
  -6   3 -15   74.43    8.81
  -6   3 -15   73.50   10.12
  -3  -3  15   69.78    9.08
  -3   6  15   76.90    8.92
   0  -6 -15   -0.05    0.84
  -6   6 -15    0.41    1.70
  -6   6 -15   -0.46    1.61
  -6   6 -15   -0.55    0.54
  -6   0  15    2.04    2.05
   0   6  15    0.78    1.01
   0   6  15   -0.79    1.37
  -6   9 -15   60.70   10.20
  -3  -6 -15   66.11   10.37
  -6   9 -15   68.97    9.98
  -3  -6 -15   67.73    9.30
  -6   9 -15   84.59    8.23
   3   6  15   84.57    8.28
  -9   3  15   70.79   10.23
   3   6  15   49.71    8.71
  -6  -6 -15   16.27    4.51
  -6  12 -15    9.11    4.08
  -6  12 -15   21.12    4.25
  -6  12 -15   12.61    3.28
 -12   6  15   16.52    4.47
   6   6  15   10.13    3.21
  -4  11 -15    3.27    2.51
  -7  -4 -15    4.36    2.73
  -7  -4 -15    2.05    2.55
  -4  11 -15    4.23    2.69
  -4  11 -15    1.64    2.02
 -11   7  15   -1.12    2.41
   7   4  15    3.15    2.09
 -11   7  15    2.56    2.74
  -1   8 -15   35.62    5.40
  -7  -1 -15   38.73    7.05
  -1   8 -15   38.20    6.29
  -7  -1 -15   44.05    7.16
   7   1  15   35.04    5.08
  -8   7  15   38.43    5.89
   1  -8  15   45.28    5.00
  -8   7  15   24.28    5.72
  -7   2 -15   19.35    4.31
  -7   2 -15   20.46    3.30
   2   5 -15   12.60    3.23
  -2  -5  15   19.68    3.63
   7  -2  15   24.37    2.85
  -5   7  15   24.48    4.29
  -7   5 -15  174.97   16.78
   2  -7 -15  128.87   16.81
  -7   5 -15  144.41   18.17
  -5  -2  15  140.37   16.62
  -2   7  15  178.15   16.18
  -2   7  15  136.96   16.18
  -1  -7 -15   19.04    2.60
  -7   8 -15   14.23    2.12
  -7   8 -15   12.05    3.26
  -7   8 -15   14.43    3.67
   1   7  15    5.83    2.81
  -8   1  15   17.19    3.99
   1   7  15   14.42    2.60
  -7  11 -15   41.22    5.78
  -7  11 -15   48.66    7.72
  -7  11 -15   40.54    7.22
  -4  -7 -15   37.70    7.60
 -11   4  15   52.07    7.72
   4   7  15   41.35    6.63
  -7  14 -15    0.09    3.28
  -7  14 -15   -0.46    2.20
   7   7  15   -2.48    1.81
 -14   7  15   -0.75    2.74
  -5  13 -15   10.42    3.50
  -5  13 -15    6.06    3.53
  -5  13 -15    8.92    3.06
 -13   8  15   12.50    4.09
   8   5  15    8.97    3.02
 -13   8  15    5.44    3.43
  -8  -2 -15   56.15   10.33
  -2  10 -15  103.82    9.33
  -8  -2 -15   68.12   10.17
  -2  10 -15   52.57    9.76
   8   2  15   75.17    8.55
 -10   8  15   66.70   10.32
 -10   8  15   73.36    9.86
  -8   1 -15   37.39    6.75
   1   7 -15   33.65    5.32
   1   7 -15   29.65    5.54
  -8   1 -15   27.06    5.49
  -1  -7  15   34.08    5.06
   8  -1  15   34.35    4.39
  -7   8  15   36.29    5.23
  -7   8  15   34.85    5.86
  -8   4 -15  145.27   17.16
  -8   4 -15  134.41   15.26
  -4   8  15  124.70   15.33
  -4  -4  15  126.87   15.39
  -8   7 -15   12.79    3.88
  -8   7 -15   13.47    3.65
  -1   8  15   11.16    3.20
  -1   8  15   15.56    2.89
  -7  -1  15   12.92    3.61
  -2  -8 -15   25.56    6.13
  -8  10 -15   26.45    5.77
  -8  10 -15   30.29    5.94
  -8  10 -15   33.27    4.17
   2   8  15   32.31    4.49
   2   8  15   25.78    5.01
 -10   2  15   30.52    5.98
  -5  -8 -15    3.07    2.49
  -8  13 -15    0.62    2.64
  -8  13 -15    1.24    1.94
  -8  13 -15    3.11    2.82
 -13   5  15    3.68    3.11
   5   8  15   -1.99    1.97
  -8  16 -15    7.91    4.67
 -16   8  15    2.76    3.69
   8   8  15    1.65    2.98
  -6  15 -15   12.90    4.64
  -6  15 -15   10.90    3.99
   9   6  15   13.41    3.83
 -15   9  15    9.16    4.08
  -3  12 -15    6.45    3.01
  -3  12 -15    4.31    3.31
  -3  12 -15    1.63    3.42
  -9  -3 -15    7.54    3.35
   9   3  15    5.55    2.36
 -12   9  15    5.36    3.49
 -12   9  15    1.99    2.79
   0   9 -15    1.35    1.94
  -9   0 -15   -1.80    2.38
  -9   0 -15    3.90    2.71
   0   9 -15    7.63    3.94
  -9   9  15    4.52    3.17
   9   0  15    0.54    1.35
  -9   9  15   -2.93    1.69
   0  -9  15    0.09    1.43
   3   6 -15   10.14    2.82
  -9   3 -15   11.27    3.64
   3   6 -15   12.17    3.15
  -9   3 -15   16.94    3.13
  -9   3 -15   10.30    3.32
   9  -3  15   11.76    1.85
  -6   9  15   14.45    2.89
  -6   9  15   12.29    3.35
  -3  -6  15    8.75    2.88
  -9   6 -15   56.65    9.15
  -9   6 -15   63.08    8.35
  -6  -3  15   51.40    8.02
  -3   9  15   67.88    8.31
  -3   9  15   48.37    7.56
  -9   9 -15   -2.55    2.21
  -9   9 -15   -0.82    2.15
   0   9  15   -1.56    1.34
  -9   0  15   -0.30    2.37
   0   9  15    1.45    2.20
  -9  12 -15   35.34    6.64
  -3  -9 -15   29.79    6.18
  -9  12 -15   24.57    5.81
   3   9  15   24.07    5.27
 -12   3  15   24.17    5.52
  -9  15 -15    1.29    2.80
   6   9  15   -0.63    2.51
 -15   6  15    4.47    3.39
  -7  17 -15   -3.01    3.37
  10   7  15   -1.07    2.59
 -17  10  15   -5.84    3.05
  -4  14 -15    3.39    2.94
  -4  14 -15    0.55    2.72
 -14  10  15    6.61    3.25
 -14  10  15   -1.63    2.30
  10   4  15    1.74    2.35
 -10  -1 -15    0.98    2.50
 -10  -1 -15   -2.31    2.99
  -1  11 -15    0.94    2.27
  -1  11 -15    1.47    2.75
 -11  10  15    1.75    2.42
 -11  10  15    2.88    2.88
  10   1  15   -1.82    1.47
   2   8 -15   70.49    9.16
 -10   2 -15   83.41   11.63
 -10   2 -15   64.46    9.80
   2   8 -15   66.51    9.92
  -2  -8  15   55.80    8.82
  -8  10  15   79.20    8.84
  10  -2  15   73.35    7.70
  -8  10  15   52.74    9.46
 -10   5 -15    3.68    2.98
 -10   5 -15    9.84    2.98
   5   5 -15    0.52    1.96
 -10   5 -15    2.91    2.20
  -5  10  15    4.64    2.34
  -5  -5  15    2.21    2.34
 -10   8 -15   23.31    4.88
 -10   8 -15   26.57    5.69
  -2  10  15   29.16    4.63
  -8  -2  15   26.84    5.45
  -2  10  15   18.72    4.39
 -10  11 -15   17.64    4.84
  -1 -10 -15   27.54    6.10
 -10  11 -15   21.07    5.35
 -11   1  15   18.58    4.98
   1  10  15   23.91    5.01
   1  10  15   20.08    3.93
 -10  14 -15    6.37    3.29
 -10  14 -15    5.94    3.67
   4  10  15    4.74    3.31
 -14   4  15    2.61    3.37
 -10  17 -15    5.22    4.94
   7  10  15   -2.93    2.79
 -17   7  15   11.56    4.92
  -5  16 -15   -3.85    2.66
  -5  16 -15    1.75    3.90
  11   5  15   -0.20    2.49
 -16  11  15   -1.53    3.08
 -16  11  15   -4.99    3.30
  -2  13 -15    2.84    3.02
 -11  -2 -15    2.41    3.63
 -11  -2 -15    6.68    3.92
  -2  13 -15    2.94    3.12
 -13  11  15    1.11    3.70
  11   2  15    3.46    2.41
 -13  11  15    3.63    3.02
   1  10 -15    3.11    2.89
 -11   1 -15    4.75    3.31
   1  10 -15    0.32    2.34
 -11   1 -15   -1.57    2.48
  11  -1  15    2.63    1.51
 -10  11  15    2.96    1.91
 -10  11  15    8.09    3.82
  -1 -10  15    3.72    2.04
 -11   4 -15   -0.48    2.78
 -11   4 -15    4.84    3.24
   4   7 -15   -0.30    2.33
   4   7 -15    5.61    2.50
 -11   4 -15    3.09    1.97
  -7  11  15    2.22    1.63
  -7  11  15    1.89    2.56
  -4  -7  15    2.08    2.30
   7   4 -15   44.08    6.36
 -11   7 -15   37.68    7.38
 -11   7 -15   40.91    6.68
  -7  -4  15   32.89    6.36
  -4  11  15   36.90    6.19
  -4  11  15   46.02    6.97
 -11  10 -15   15.42    4.82
 -11  10 -15   34.53    6.09
 -10  -1  15   18.15    4.57
  -1  11  15   16.16    4.51
  -1  11  15   25.54    4.34
 -11  13 -15   27.20    6.31
 -11  13 -15   30.06    6.39
   2  11  15   21.49    5.61
 -13   2  15   28.06    6.40
 -11  16 -15    2.54    3.90
 -16   5  15    5.66    4.34
   5  11  15    6.06    3.71
  -3  15 -15   -0.73    2.81
  -3  15 -15    0.94    3.17
 -15  12  15    2.30    3.97
 -15  12  15   -2.46    2.69
  12   3  15   -1.08    2.29
 -12   0 -15    2.26    3.04
 -12   0 -15   -3.87    2.79
   0  12 -15    4.11    3.08
   0  12 -15    3.01    2.75
 -12  12  15   -1.63    3.21
 -12  12  15    0.55    2.18
   3   9 -15    7.41    3.35
 -12   3 -15    5.43    3.20
   3   9 -15    3.76    2.51
 -12   3 -15    6.64    3.87
  -9  12  15    4.21    2.04
  -3  -9  15    4.38    2.71
  -9  12  15    8.11    3.54
 -12   6 -15   12.70    3.77
 -12   6 -15   13.96    4.05
   6   6 -15   15.63    3.71
 -12   6 -15   13.04    4.84
  -6  12  15    6.31    3.30
  -6  -6  15   12.93    3.76
 -12   9 -15   20.85    5.31
   9   3 -15   33.02    5.38
 -12   9 -15   22.58    6.01
  -9  -3  15   19.23    5.12
  -3  12  15   31.63    5.44
  -3  12  15   21.51    4.78
 -12  12 -15   -0.78    2.68
 -12  12 -15    3.04    3.11
  12   0 -15   -0.62    2.20
   0 -12 -15    6.62    4.23
 -12   0  15    1.50    3.09
   0  12  15   -0.30    2.28
 -12  15 -15   19.15    5.59
  15  -3 -15   18.13    4.22
 -12  15 -15   18.61    5.62
   3  12  15   10.52    4.28
 -15   3  15   13.50    5.00
 -13  -1 -15    3.13    3.59
 -13  -1 -15   -2.06    3.46
  -1  14 -15    1.39    3.30
  -1  14 -15    4.10    3.48
 -14  13  15    3.66    3.67
   2  11 -15    1.70    3.39
 -13   2 -15    7.92    3.96
   2  11 -15    5.45    2.99
 -13   2 -15   10.29    4.16
 -11  13  15    2.58    3.24
 -13   5 -15   12.53    4.35
   5   8 -15    4.63    2.90
 -13   5 -15    9.46    4.04
   5   8 -15    4.29    3.29
 -13   5 -15    4.89    2.75
  -8  13  15    9.28    3.62
  -5  -8  15    6.74    3.06
 -13   8 -15    1.68    3.07
 -13   8 -15   -4.91    2.53
   8   5 -15    4.24    2.62
  -8  -5  15    0.99    2.89
  -5  13  15    3.42    2.76
  -5  13  15   -3.20    2.18
  11   2 -15   26.13    5.26
 -13  11 -15   15.20    5.36
 -13  11 -15   31.55    6.87
  -2  13  15   32.46    6.16
 -11  -2  15   27.51    5.98
  -2  13  15   28.44    5.24
 -13  14 -15   -2.32    3.54
 -13  14 -15   -3.10    2.52
  14  -1 -15   -0.85    2.06
   1  13  15   -3.10    2.68
 -14   1  15   -1.06    3.04
 -14   1 -15    4.30    3.98
 -14   1 -15    2.09    3.54
   1  13 -15   -0.21    2.91
   1  13 -15    3.57    3.46
 -13  14  15   -0.97    3.67
 -14   4 -15    3.35    3.56
 -14   4 -15   -0.47    2.73
   4  10 -15   -0.24    2.79
   4  10 -15   -3.65    2.72
 -10  14  15    3.08    3.23
  -4 -10  15   -3.03    2.36
 -14   7 -15   -1.73    2.65
 -14   7 -15   -0.18    2.85
   7   7 -15   -1.69    2.14
   7   7 -15   -2.79    2.37
 -14   7 -15    1.40    2.80
  -7  -7  15    0.81    2.56
  -7  14  15    1.63    2.57
 -14  10 -15    2.61    3.75
  10   4 -15    6.59    3.09
 -14  10 -15    9.11    4.08
 -10  -4  15    6.17    3.69
  -4  14  15    5.81    3.42
  -4  14  15    5.87    3.02
  13   1 -15    3.03    2.84
 -14  13 -15   -3.75    2.83
 -14  13 -15    0.48    3.41
 -13  -1  15    2.92    3.40
  -1  14  15    0.15    3.20
 -15   3 -15    1.05    3.82
   3  12 -15   -1.31    2.94
   3  12 -15   -3.42    2.58
 -15   3 -15   -0.94    3.53
 -12  15  15   -2.14    3.45
   6   9 -15   15.25    4.37
 -15   6 -15    8.16    3.83
 -15   6 -15   13.03    4.91
 -15   6 -15    8.68    4.55
   6   9 -15    7.08    3.99
  -6  -9  15    8.27    3.81
  -9  15  15   10.12    4.27
   9   6 -15    0.20    2.72
 -15   9 -15    0.91    3.41
 -15   9 -15    0.95    3.29
  -9  -6  15    2.41    3.22
  -6  15  15    0.87    3.38
  -6  15  15   -0.70    2.73
  12   3 -15   10.81    4.15
 -15  12 -15   15.21    5.40
 -15  12 -15   21.69    6.11
 -12  -3  15   14.35    5.24
  -3  15  15   17.04    5.36
  -3  15  15   13.64    4.35
 -16   5 -15    3.98    4.21
 -16   5 -15    1.36    4.08
   5  11 -15    0.28    2.94
   5  11 -15   -2.16    2.98
 -11  16  15   -3.55    3.15
 -16   8 -15    0.38    3.43
   8   8 -15   -1.49    2.75
   8   8 -15   -1.83    2.99
 -16   8 -15    6.01    4.10
  -8  -8  15    1.55    3.59
  -8  16  15   -0.63    2.92
  11   5 -15    1.70    2.87
 -16  11 -15    4.72    4.06
 -16  11 -15    3.12    4.46
  -5  16  15    2.08    3.79
  -5  16  15    4.15    3.16
 -11  -5  15    3.60    3.97
   7  10 -15   -0.58    3.47
 -17   7 -15   -5.21    3.64
   7  10 -15    3.28    3.63
 -17   7 -15   -0.38    3.65
 -10  17  15    3.00    3.70
  10   7 -15    7.00    4.19
  10   7 -15    5.84    4.21
 -17  10 -15   16.04    5.43
 -17  10 -15    1.86    4.41
  -7  17  15   11.84    4.47
 -10  -7  15    7.43    4.40
  -1   0 -16   -1.11    1.56
  -2  -1 -16   82.26   11.68
  -1   3 -16  104.73   12.14
  -2  -1 -16   91.45   12.52
  -2  -1 -16   92.30   10.12
  -1   3 -16   93.69   10.80
  -2   2 -16   21.89    3.88
  -2   2 -16   19.08    3.00
  -2   2 -16   14.70    3.51
  -3  -2 -16    6.63    2.12
  -3  -2 -16    4.85    2.36
  -2   5 -16    3.50    2.09
  -5   3  16    2.12    2.03
   3   2  16    2.78    1.53
  -3   1 -16   92.62   12.08
  -3   1 -16  100.80   10.56
  -3   1 -16   83.70   12.55
  -3   4 -16   39.17    7.14
  -3   4 -16   80.68    7.13
  -1  -3 -16   36.87    6.74
  -4   1  16   65.32    6.84
   1   3  16   40.12    6.18
  -3   7 -16   13.73    3.08
  -4  -3 -16   14.91    3.64
  -3   7 -16   13.10    3.58
  -4  -3 -16   11.88    3.05
  -3   7 -16   12.29    2.52
   4   3  16   13.96    2.84
  -7   4  16    8.66    2.67
  -4   0 -16  142.56   14.05
   0   4 -16  115.80   14.83
  -4   0 -16  116.89   16.88
  -4   0 -16  117.57   16.03
   0   4 -16  145.52   16.24
   4   0  16  128.14   13.69
  -4   4  16  109.45   14.65
  -4   3 -16   33.50    6.22
  -4   3 -16   30.78    5.06
  -4   3 -16   34.43    6.08
  -3  -1  16   42.58    5.79
  -1   4  16   44.21    4.80
  -2  -4 -16   29.49    4.54
  -2  -4 -16   22.97    5.15
  -4   6 -16   24.75    5.09
  -4   6 -16   23.49    4.50
  -4   6 -16   34.25    3.66
   2   4  16   25.53    4.35
  -6   2  16   28.69    4.80
  -4   9 -16   35.07    6.58
  -4   9 -16   48.60    5.99
  -5  -4 -16   32.11    6.42
  -5  -4 -16   34.47    7.18
  -4   9 -16   36.33    7.02
  -9   5  16   38.53    6.48
   5   4  16   40.11    6.00
   4  -9  16   54.86    5.29
  -5  -1 -16   39.56    7.78
  -1   6 -16   33.30    6.72
  -5  -1 -16   52.31    7.78
  -1   6 -16   65.28    6.40
   5   1  16   50.77    6.01
  -6   5  16   45.88    6.88
   1  -6  16   63.36    6.49
  -6   5  16   48.58    7.11
  -5   2 -16    4.35    2.33
  -5   2 -16    2.22    1.94
  -5   2 -16    5.11    1.56
  -3   5  16    3.17    1.66
  -2  -3  16    3.62    1.75
  -5   5 -16   10.49    1.73
  -5   5 -16    9.93    2.74
   0  -5 -16   13.55    2.36
  -5   5 -16   16.47    3.58
  -5   0  16   15.13    3.41
   0   5  16    9.27    2.61
   0   5  16   15.27    2.22
  -3  -5 -16  155.31   20.19
  -5   8 -16  156.18   18.08
  -5   8 -16  159.90   16.42
  -3  -5 -16  136.35   18.80
  -5   8 -16  152.43   19.36
   3   5  16  159.95   16.93
  -8   3  16  166.63   18.12
  -5  11 -16    1.48    2.48
  -6  -5 -16    2.89    2.66
  -5  11 -16    4.18    2.17
  -6  -5 -16    0.48    2.05
  -5  11 -16    0.89    2.53
 -11   6  16    0.34    2.52
   6   5  16    2.68    1.98
  -2   8 -16   21.79    3.79
  -6  -2 -16   27.74    5.52
  -6  -2 -16   24.41    4.88
  -2   8 -16   29.38    4.90
  -8   6  16   18.18    4.07
   6   2  16   20.32    3.51
   2  -8  16   21.16    3.35
  -8   6  16   18.47    4.39
  -6   1 -16   47.88    5.19
   1   5 -16   30.82    5.81
  -6   1 -16   42.99    7.23
  -6   1 -16   45.16    7.09
   1   5 -16   33.78    5.42
  -5   6  16   45.65    6.32
  -1  -5  16   46.00    5.95
   6  -1  16   49.61    5.03
  -5   6  16   52.80    6.27
  -6   4 -16   25.25    4.89
  -6   4 -16   24.99    4.10
  -4  -2  16   24.86    4.47
  -2   6  16   27.64    3.95
  -2   6  16   25.10    4.36
  -6   7 -16   -0.28    1.78
  -1  -6 -16    0.14    1.13
  -6   7 -16    1.04    2.15
  -6   7 -16    0.68    0.86
  -7   1  16   -1.49    1.75
   1   6  16    0.76    1.89
   1   6  16    0.83    0.92
  -4  -6 -16   53.13    7.39
  -6  10 -16   45.01    7.72
  -6  10 -16   56.15    6.05
  -6  10 -16   44.98    7.56
  -4  -6 -16   35.64    8.06
 -10   4  16   50.39    7.84
   4   6  16   40.07    6.72
  -6  13 -16   36.08    6.00
  -6  13 -16   25.46    4.98
  -7  -6 -16   28.03    6.00
  -6  13 -16   29.25    6.43
 -13   7  16   24.96    5.65
   7   6  16   22.78    4.93
  -3  10 -16   10.94    5.19
  -7  -3 -16   23.28    5.42
  -3  10 -16   23.85    4.43
  -3  10 -16   41.80    6.46
  -7  -3 -16   26.11    5.28
 -10   7  16   17.96    4.41
 -10   7  16   24.04    5.22
   7   3  16   22.50    4.04
   0   7 -16   78.86    9.78
  -7   0 -16   85.90   11.62
  -7   0 -16   98.50   12.24
   0   7 -16   82.66   10.75
   7   0  16   80.23    9.32
  -7   7  16   84.55   10.31
  -7   7  16  104.71   11.04
   0  -7  16   75.97    9.90
  -7   3 -16   19.08    4.15
  -7   3 -16   11.29    2.52
  -3  -4  16   10.37    2.86
  -4   7  16   11.22    2.82
  -7   6 -16    2.96    2.10
  -7   6 -16   -2.38    1.43
   1  -7 -16    0.04    0.64
  -6  -1  16   -3.38    1.32
  -1   7  16   -1.37    1.63
  -1   7  16    0.82    1.20
  -2  -7 -16   29.84    3.67
  -7   9 -16   15.35    4.23
  -7   9 -16   17.09    4.21
  -2  -7 -16   16.37    4.61
  -7   9 -16   18.62    2.86
   2   7  16   17.16    2.89
  -9   2  16   14.84    4.24
   2   7  16   14.40    3.74
  -7  12 -16   31.10    5.96
  -7  12 -16   34.92    6.36
  -5  -7 -16   31.94    6.34
  -7  12 -16   29.98    4.66
   5   7  16   26.21    5.02
 -12   5  16   15.61    5.09
  -7  15 -16   10.62    3.61
  -7  15 -16    8.55    4.20
 -15   8  16   17.85    4.87
   8   7  16    3.32    3.01
  -8  -4 -16    5.82    3.15
  -4  12 -16    8.17    3.81
  -4  12 -16    2.12    3.14
  -4  12 -16    3.26    2.33
 -12   8  16    2.30    3.06
 -12   8  16    1.44    2.74
   8   4  16    4.56    2.41
  -8  -1 -16  135.58   15.45
  -1   9 -16  125.45   13.07
  -1   9 -16  106.60   13.97
  -9   8  16  120.44   14.27
   8   1  16  119.14   12.53
   1  -9  16   95.92   12.80
  -9   8  16  107.22   13.51
  -8   2 -16   23.87    3.80
   2   6 -16   20.88    4.47
   2   6 -16   16.86    3.82
  -8   2 -16   30.39    5.45
  -6   8  16   19.95    3.87
  -2  -6  16   19.56    3.83
  -6   8  16   30.31    4.99
   8  -2  16   28.63    3.31
  -8   5 -16  167.89   21.93
  -8   5 -16  161.46   19.81
  -3   8  16  205.59   19.91
  -3   8  16  183.87   19.22
  -5  -3  16  153.36   19.90
  -8   8 -16  148.47   17.65
  -8   8 -16  135.06   19.06
   0   8  16  176.77   17.04
   0   8  16  140.34   16.78
  -8   0  16  135.66   17.74
  -8  11 -16   11.64    4.15
  -3  -8 -16    4.02    4.31
  -8  11 -16   14.50    4.12
  -8  11 -16   22.01    3.02
 -11   3  16   14.30    4.27
   3   8  16   18.69    3.99
  -8  14 -16   30.83    6.31
  -8  14 -16   25.69    6.37
  -6  -8 -16   31.56    6.66
 -14   6  16   33.63    6.67
   6   8  16   32.86    6.08
  -8  17 -16   -1.91    3.90
 -17   9  16    0.31    3.59
   9   8  16   -0.76    2.75
  -5  14 -16   54.13   10.34
  -5  14 -16   89.24   10.08
 -14   9  16   57.39    9.59
 -14   9  16   59.07   10.45
   9   5  16   63.29    9.12
  -2  11 -16    4.62    3.01
  -2  11 -16    6.20    2.92
  -9  -2 -16   12.77    3.99
   9   2  16    9.30    2.57
 -11   9  16   10.44    3.41
 -11   9  16    5.22    3.57
   1   8 -16  113.65   15.30
  -9   1 -16  142.42   17.21
  -9   1 -16  124.24   15.60
   1   8 -16  122.50   14.43
  -8   9  16  102.30   15.34
  -1  -8  16  156.06   15.00
   9  -1  16  127.04   13.70
  -8   9  16  130.30   15.01
  -9   4 -16   28.34    4.93
   4   5 -16   29.51    5.10
  -9   4 -16   38.29    6.52
  -5   9  16   36.31    5.60
  -4  -5  16   29.44    5.27
  -9   7 -16   16.67    4.24
  -9   7 -16   20.47    4.85
  -2   9  16   23.12    3.97
  -2   9  16   22.03    4.29
  -7  -2  16   29.28    5.16
  -9  10 -16   24.81    5.62
  -1  -9 -16   26.73    5.63
  -9  10 -16   22.25    5.17
   1   9  16   21.52    3.73
 -10   1  16   22.54    5.31
   1   9  16   17.02    4.15
  -4  -9 -16    2.99    2.70
  -9  13 -16    3.11    3.12
  -9  13 -16   -1.31    2.85
   4   9  16    4.98    3.01
 -13   4  16    0.94    2.89
  -9  16 -16    3.24    4.15
 -16   7  16   -1.28    3.47
   7   9  16    6.31    3.53
  -6  16 -16    1.17    3.10
  -6  16 -16    2.57    4.39
 -16  10  16   -2.40    3.34
  10   6  16    7.06    3.24
  -3  13 -16    3.17    3.19
 -10  -3 -16    6.07    3.89
  -3  13 -16   19.29    4.10
  10   3  16   16.47    3.66
 -13  10  16    9.30    3.97
 -13  10  16    9.52    3.74
 -10   0 -16   10.10    4.12
   0  10 -16   15.88    3.73
   0  10 -16   11.18    4.07
 -10   0 -16   10.20    3.54
 -10  10  16    6.43    3.62
  10   0  16   11.22    2.57
 -10  10  16   11.43    3.14
 -10   3 -16   19.16    4.86
 -10   3 -16   19.90    5.16
   3   7 -16   26.55    4.89
 -10   3 -16   27.51    4.29
   3   7 -16   22.70    4.89
  -3  -7  16   29.42    4.77
  -7  10  16   27.31    5.13
  -7  10  16   13.87    4.05
   6   4 -16   49.46    6.94
 -10   6 -16   40.66    6.86
 -10   6 -16   41.75    7.81
  -6  -4  16   55.04    7.74
  -4  10  16   44.21    6.79
  -4  10  16   44.25    6.86
 -10   9 -16   17.29    4.78
 -10   9 -16   13.26    4.31
  -1  10  16   24.58    4.04
  -9  -1  16   17.84    4.65
  -1  10  16   23.92    4.72
  -2 -10 -16   18.82    5.16
 -10  12 -16   28.74    6.10
 -10  12 -16   33.35    6.10
   2  10  16   19.69    4.58
 -12   2  16   19.26    5.04
 -10  15 -16    3.68    3.82
 -15   5  16   -0.76    2.92
   5  10  16    1.42    2.74
  -4  15 -16   10.03    3.75
  -4  15 -16    2.96    4.33
 -15  11  16    7.53    3.71
  11   4  16    3.40    2.82
 -15  11  16   10.52    4.46
 -11  -1 -16   12.99    4.48
  -1  12 -16    6.18    3.73
  -1  12 -16    5.85    3.41
 -11  -1 -16   13.97    4.67
  11   1  16    7.50    2.62
 -12  11  16    9.22    4.12
 -12  11  16   13.97    3.82
 -11   2 -16    9.74    4.11
   2   9 -16    6.16    3.10
   2   9 -16    3.96    3.27
 -11   2 -16    1.48    3.30
  -9  11  16    9.57    3.34
  -2  -9  16   15.11    3.29
  -9  11  16    7.80    2.66
 -11   5 -16    3.54    2.80
 -11   5 -16    3.34    3.02
   5   6 -16    4.85    2.27
 -11   5 -16    1.56    2.13
  -6  11  16    0.65    2.26
  -6  11  16    3.60    1.84
  -5  -6  16    1.94    2.41
 -11   8 -16   20.11    4.71
 -11   8 -16   19.17    5.09
   8   3 -16   19.54    4.28
  -3  11  16   15.11    3.65
  -8  -3  16   12.62    3.73
  -3  11  16   18.63    4.55
 -11  11 -16   -0.41    2.22
 -11  11 -16    1.87    2.78
   0  11  16   -0.94    1.71
   0  11  16   -0.34    2.50
 -11   0  16   -1.77    2.19
 -11  14 -16   16.98    5.57
 -11  14 -16   23.93    5.74
   3  11  16   24.48    5.37
 -14   3  16   14.99    5.06
  -2  14 -16   -0.60    3.13
 -12  -2 -16    0.67    3.19
  -2  14 -16   -1.81    2.39
  12   2  16    0.57    2.01
 -14  12  16    4.12    3.71
 -14  12  16    0.24    2.87
 -12   1 -16   10.48    4.36
   1  11 -16   14.34    3.99
   1  11 -16    3.79    3.08
 -12   1 -16   14.06    4.64
 -11  12  16    8.21    3.12
 -11  12  16   10.91    4.12
 -12   4 -16    4.51    3.25
   4   8 -16    2.99    2.93
   4   8 -16    5.55    2.86
 -12   4 -16    4.53    3.60
 -12   4 -16    3.47    2.28
  -4  -8  16    4.28    2.49
  -8  12  16    9.80    3.76
 -12   7 -16   22.92    5.24
   7   5 -16   28.57    5.25
 -12   7 -16   33.88    6.97
  -7  -5  16   24.62    5.34
  -5  12  16   26.01    5.36
  -5  12  16   28.17    5.25
 -12  10 -16   22.79    5.59
  10   2 -16   16.55    4.56
 -12  10 -16   26.17    5.98
 -10  -2  16   27.17    5.74
  -2  12  16   23.06    5.33
  -2  12  16   24.85    4.61
  13  -1 -16    5.78    2.76
 -12  13 -16   -2.79    2.40
 -12  13 -16    3.11    3.51
   1  12  16   -2.48    2.48
 -13   1  16    6.93    3.73
 -12  16 -16   10.72    5.48
 -16   4  16    7.93    4.55
   4  12  16   10.02    4.55
  -3  16 -16    6.36    4.02
  -3  16 -16    0.89    4.00
 -16  13  16    0.28    3.92
 -13   0 -16   51.03    9.11
 -13   0 -16   47.10    9.34
   0  13 -16   45.86    7.83
   0  13 -16   47.52    8.47
 -13  13  16   42.84    8.62
   3  10 -16    7.19    3.32
   3  10 -16    7.50    3.72
 -13   3 -16    7.36    3.67
 -13   3 -16    7.67    3.76
  -3 -10  16    6.33    3.18
 -10  13  16   13.69    4.53
   6   7 -16   25.33    4.99
   6   7 -16   18.71    4.84
 -13   6 -16   34.43    6.02
 -13   6 -16   23.18    5.00
 -13   6 -16   17.32    5.66
  -6  -7  16   15.48    4.55
  -7  13  16   18.02    4.91
   9   4 -16    5.51    3.08
 -13   9 -16    3.12    3.66
 -13   9 -16    0.40    2.77
  -4  13  16   -2.34    2.59
  -9  -4  16    2.95    3.25
  -4  13  16    3.16    2.51
 -13  12 -16   -2.14    2.97
 -13  12 -16    2.91    3.45
  12   1 -16    0.10    2.34
 -12  -1  16   -0.16    3.06
  -1  13  16   -3.78    2.44
 -13  15 -16    3.24    4.13
 -13  15 -16   -3.07    3.04
  15  -2 -16    2.32    2.86
   2  13  16   -1.71    2.78
 -15   2  16   -1.02    3.41
  -1  15 -16   11.08    5.07
  -1  15 -16    6.40    4.18
 -15  14  16   21.49    6.61
 -14   2 -16    0.40    3.48
   2  12 -16    2.58    3.24
 -14   2 -16   -1.82    3.07
   2  12 -16   -0.49    2.60
 -12  14  16    3.62    3.86
   5   9 -16   40.21    8.18
 -14   5 -16   53.55    8.30
 -14   5 -16   43.66    9.43
   5   9 -16   68.07    9.11
 -14   5 -16   49.91    9.07
  -5  -9  16   47.39    7.94
  -9  14  16   57.64    9.33
 -14   8 -16   40.85    7.92
 -14   8 -16   22.55    6.27
   8   6 -16   25.40    5.74
  -6  14  16   34.21    6.73
  -8  -6  16   35.20    6.49
  -6  14  16   29.42    5.96
  11   3 -16   17.65    4.83
 -14  11 -16   15.60    5.68
 -14  11 -16   12.62    5.23
 -11  -3  16   28.17    6.01
  -3  14  16   13.43    4.59
  -3  14  16   25.35    4.91
  14   0 -16   32.46    6.27
 -14  14 -16   37.41    7.96
 -14  14 -16   28.25    7.23
 -14   0  16   29.77    7.28
   0  14  16   26.02    6.34
 -15   1 -16   10.87    5.59
   1  14 -16    5.91    4.41
 -15   1 -16   16.24    5.94
   1  14 -16    6.62    4.27
 -14  15  16   21.04    6.17
 -15   4 -16    6.75    4.41
 -15   4 -16    9.82    5.27
   4  11 -16    6.22    4.23
   4  11 -16    9.00    3.81
 -11  15  16    9.95    4.96
   7   8 -16   12.01    4.17
   7   8 -16   12.78    4.10
 -15   7 -16    9.97    4.96
 -15   7 -16   10.53    4.00
  -7  -8  16   11.92    4.15
  -8  15  16    7.57    3.95
  10   5 -16    1.98    2.75
 -15  10 -16   -0.02    3.46
 -15  10 -16    4.96    3.88
 -10  -5  16    4.22    3.27
  -5  15  16   -1.33    3.06
  -5  15  16    6.36    3.37
 -15  13 -16    5.73    4.41
 -15  13 -16   -0.53    3.78
  13   2 -16   -0.02    2.63
 -13  -2  16    0.03    3.65
  -2  15  16   -2.73    2.99
   3  13 -16   -0.93    3.34
 -16   3 -16   11.79    5.69
 -16   3 -16   -2.88    3.97
   3  13 -16    0.61    3.38
 -13  16  16   -0.03    4.02
   6  10 -16   -8.03    2.32
 -16   6 -16    0.11    3.84
 -16   6 -16   -3.33    2.90
   6  10 -16    3.53    3.54
 -10  16  16    1.12    3.78
 -16   9 -16   -1.56    3.16
   9   7 -16    4.14    3.42
   9   7 -16   -1.10    3.12
 -16   9 -16    5.25    3.69
  -7  16  16    6.67    3.53
  -9  -7  16    0.61    3.53
  12   4 -16   14.39    4.31
 -16  12 -16   10.01    5.26
 -16  12 -16    4.24    4.55
  -4  16  16    8.10    4.69
 -12  -4  16    5.01    4.40
   8   9 -16   -6.01    2.33
   8   9 -16   -4.47    2.87
 -17   8 -16    3.75    4.49
 -17   8 -16    3.02    3.42
  -8  -9  16   -3.80    2.87
  -9  17  16   -1.68    3.70
  -1   1 -17   -0.87    1.50
   0   2 -17   -3.36    1.38
  -2   0 -17   -1.20    1.79
  -2   0 -17   -1.70    0.75
  -2   0 -17   -0.47    1.86
  -2   3 -17  378.01   41.51
  -1  -2 -17  376.18   45.02
  -2   3 -17  388.16   47.07
  -1   4 -17  287.31   29.67
  -3  -1 -17  243.42   31.90
  -1   4 -17  320.35   33.19
  -3  -1 -17  241.14   33.51
   3   1  17  240.33   27.70
  -3   2 -17  410.88   49.75
  -3   2 -17  437.02   45.44
  -3   2 -17  405.39   51.86
  -2  -3 -17   91.88   12.13
  -2  -3 -17  103.63   13.37
  -3   5 -17  107.01   12.99
  -3   5 -17   84.15   11.43
  -5   2  17  100.35   11.61
   2   3  17   98.59   10.88
  -4  -2 -17   50.18    7.96
  -2   6 -17   52.06    6.46
  -4  -2 -17   67.32    9.31
  -2   6 -17   58.93    7.80
   4   2  17   55.52    6.59
  -6   4  17   51.38    7.40
  -4   1 -17  253.36   31.77
  -4   1 -17  231.62   30.25
  -4   1 -17  238.62   27.33
   1   3 -17  282.16   31.16
  -3   4  17  248.76   27.73
  -4   4 -17   -1.68    1.32
  -4   4 -17    0.65    1.44
   0  -4 -17   -0.48    1.19
  -4   4 -17    0.10    1.84
  -4   0  17   -1.00    1.67
   0   4  17   -0.34    1.37
   0   4  17   -0.01    0.81
  -4   7 -17  264.36   29.87
  -3  -4 -17  217.34   29.23
  -4   7 -17  244.16   27.54
  -3  -4 -17  257.87   31.10
  -7   3  17  269.50   27.65
   3   4  17  227.19   25.80
  -3   8 -17   48.01    6.64
  -5  -3 -17   55.78    8.80
  -3   8 -17   46.80    7.29
  -5  -3 -17   49.18    7.75
  -3   8 -17   52.98    8.18
   3  -8  17   52.96    6.32
   5   3  17   45.35    6.50
  -8   5  17   49.76    7.42
   0   5 -17    0.49    1.90
  -5   0 -17   -0.48    1.76
  -5   0 -17    0.41    0.71
  -5   0 -17    3.20    2.12
   0   5 -17    1.10    1.06
   5   0  17    0.31    1.18
  -5   5  17    0.34    1.77
  -5   5  17   -1.90    1.36
   0  -5  17    0.19    1.49
  -5   3 -17  100.19   13.48
  -5   3 -17   90.65   11.45
  -5   3 -17   94.65   12.89
  -3  -2  17  122.62   12.06
  -2   5  17   97.59   11.45
  -5   6 -17   23.91    2.71
  -1  -5 -17   20.50    3.29
  -5   6 -17   19.54    4.22
  -5   6 -17   19.52    3.84
  -6   1  17   13.25    3.57
   1   5  17   14.87    2.52
   1   5  17   15.84    3.42
  -4  -5 -17   -0.57    2.44
  -5   9 -17   -1.37    1.70
  -4  -5 -17    0.37    1.66
  -5   9 -17    0.23    2.43
  -5   9 -17    4.97    1.88
   4   5  17    4.17    2.18
  -9   4  17    1.26    2.15
  -4  10 -17   36.60    7.19
  -4  10 -17   35.51    5.38
  -4  10 -17   31.93    6.38
  -6  -4 -17   29.94    5.89
  -6  -4 -17   34.89    6.94
   6   4  17   37.27    5.44
 -10   6  17   32.47    5.91
  -6  -1 -17   -0.23    1.74
  -1   7 -17    0.11    1.41
  -1   7 -17    0.00    2.16
  -6  -1 -17   -1.01    2.19
   1  -7  17    1.11    1.35
  -7   6  17   -2.93    1.63
   6   1  17    2.38    1.37
  -7   6  17   -0.38    1.87
  -6   2 -17   49.62    8.98
   2   4 -17   64.99    7.67
  -6   2 -17   61.24    9.12
  -6   2 -17   51.68    6.93
  -2  -4  17   64.55    7.52
  -4   6  17   53.08    7.75
  -6   5 -17   19.97    4.15
   1  -6 -17   19.45    2.87
  -6   5 -17   16.39    3.43
  -5  -1  17   17.58    3.73
  -1   6  17   16.02    2.88
  -1   6  17   16.36    3.60
  -6   8 -17    7.26    2.85
  -2  -6 -17    2.80    2.96
  -6   8 -17    7.40    1.67
  -6   8 -17    7.49    2.57
  -2  -6 -17   10.28    2.23
   2   6  17    5.14    1.32
   2   6  17    9.68    2.74
  -8   2  17    2.76    2.14
  -6  11 -17    1.61    2.62
  -5  -6 -17    1.04    1.70
  -6  11 -17   -2.20    1.93
  -6  11 -17    1.37    1.80
  -5  -6 -17    1.61    2.64
   5   6  17    1.83    2.20
 -11   5  17    2.17    2.77
  -5  12 -17    6.88    3.39
  -5  12 -17   10.97    3.00
  -7  -5 -17   12.20    4.04
  -7  -5 -17    8.30    3.26
  -5  12 -17    1.55    3.26
 -12   7  17    7.47    3.50
   7   5  17    5.05    2.79
  -7  -2 -17  106.47   13.77
  -7  -2 -17  110.25   14.38
  -2   9 -17   90.05   12.68
  -2   9 -17  104.87   11.72
  -9   7  17  109.37   13.07
  -9   7  17  107.41   12.51
   7   2  17   99.34   11.44
   2  -9  17   95.03   11.54
  -7   1 -17   -1.07    1.90
   1   6 -17    0.39    2.10
   1   6 -17   -0.65    1.54
  -7   1 -17   -0.06    0.98
  -6   7  17   -1.99    2.16
  -6   7  17    1.08    1.71
  -1  -6  17   -2.62    1.23
   7  -1  17    1.60    1.15
  -7   4 -17  253.94   27.73
  -7   4 -17  221.42   30.34
  -4  -3  17  218.32   27.80
  -3   7  17  302.87   27.89
  -7   7 -17   -0.15    2.09
  -7   7 -17    1.06    1.81
   0  -7 -17    0.86    0.95
   0   7  17   -1.33    1.02
   0   7  17    1.08    1.97
  -7   0  17   -3.58    1.41
  -3  -7 -17   66.43   10.40
  -7  10 -17   58.83    9.29
  -7  10 -17   68.67    9.91
  -3  -7 -17   57.35    8.16
  -7  10 -17   63.39    7.24
   3   7  17   59.78    8.39
 -10   3  17   63.67    9.52
  -7  13 -17   16.18    3.53
  -7  13 -17   18.99    5.08
  -7  13 -17   19.11    4.65
  -6  -7 -17   17.77    4.83
   6   7  17   12.56    3.70
 -13   6  17    6.34    3.91
  -6  14 -17   -2.37    2.36
  -6  14 -17   -3.14    2.69
 -14   8  17    4.26    3.09
   8   6  17    1.00    2.26
  -3  11 -17    1.85    2.13
  -3  11 -17    1.50    3.64
  -3  11 -17   -1.10    2.82
  -8  -3 -17    2.53    2.64
 -11   8  17    1.64    2.57
 -11   8  17    7.01    2.97
   8   3  17    0.22    1.65
   0   8 -17    2.72    1.99
   0   8 -17    1.85    2.62
  -8   0 -17   -1.03    2.28
  -8   8  17    3.23    2.56
   8   0  17   -2.91    1.04
   0  -8  17    3.10    1.72
  -8   8  17    1.07    1.86
   3   5 -17   43.79    6.24
  -8   3 -17   48.68    7.74
  -8   3 -17   43.08    6.00
  -5   8  17   39.49    6.39
  -3  -5  17   41.42    6.40
  -8   6 -17    6.00    2.55
  -8   6 -17    6.48    2.89
  -2   8  17    5.93    2.76
  -2   8  17    8.67    2.25
  -6  -2  17    7.15    2.87
  -8   9 -17   61.99    9.08
  -8   9 -17   62.64    9.69
  -9   1  17   59.28    9.04
   1   8  17   47.25    7.96
   1   8  17   65.87    7.40
  -4  -8 -17    6.32    3.51
  -8  12 -17    1.48    2.80
  -8  12 -17    4.06    3.29
 -12   4  17   10.17    4.11
   4   8  17    1.36    2.38
  -8  15 -17    3.65    3.47
   7   8  17    0.42    2.63
 -15   7  17   -0.97    2.82
  -7  16 -17    3.37    3.88
   9   7  17    0.60    2.83
 -16   9  17    5.71    3.69
  -4  13 -17    9.91    3.56
  -9  -4 -17    7.98    3.81
  -4  13 -17    5.33    3.46
  -4  13 -17    5.53    2.98
 -13   9  17    6.72    4.07
   9   4  17    2.91    2.35
 -13   9  17   12.56    4.01
  -1  10 -17    5.80    3.38
  -1  10 -17    3.86    2.49
  -9  -1 -17    2.22    2.75
 -10   9  17   -0.07    2.27
 -10   9  17    1.47    2.24
   9   1  17    4.52    1.92
  -9   2 -17  115.87   15.06
   2   7 -17   93.69   13.36
  -9   2 -17  119.14   12.81
  -2  -7  17   93.82   12.96
  -7   9  17  112.20   13.04
  -7   9  17  107.24   13.60
   9  -2  17  120.18   11.81
  -9   5 -17    2.52    2.50
  -9   5 -17    2.92    2.09
  -4   9  17    3.24    2.01
  -5  -4  17    2.27    2.27
  -9   8 -17   46.12    8.97
  -9   8 -17   58.01    8.64
  -1   9  17   69.37    7.54
  -8  -1  17   68.78    9.28
  -1   9  17   45.34    7.81
  -9  11 -17   -1.91    2.33
  -9  11 -17   -1.91    2.37
  -2  -9 -17   -0.44    3.76
 -11   2  17   -2.90    2.15
   2   9  17    1.78    2.52
  -9  14 -17   -1.14    2.70
  -9  14 -17    5.94    3.71
   5   9  17   -1.28    2.58
 -14   5  17    1.01    3.02
  -5  15 -17   -2.74    3.25
  -5  15 -17    2.07    3.16
  10   5  17    6.15    2.95
 -15  10  17    5.86    4.18
 -15  10  17    5.14    3.71
  -2  12 -17   20.29    5.46
  -2  12 -17   24.74    4.98
 -10  -2 -17   22.54    5.88
  -2  12 -17   26.10    6.35
 -12  10  17   33.74    5.84
  10   2  17   26.66    4.57
 -12  10  17   21.61    5.72
 -10   1 -17    1.82    2.94
   1   9 -17    1.36    2.11
   1   9 -17   -0.90    2.64
  -1  -9  17    4.44    2.09
  -9  10  17    0.07    2.05
  -9  10  17    4.23    2.73
  10  -1  17    5.78    1.76
 -10   4 -17   32.88    6.92
   4   6 -17   32.53    5.57
 -10   4 -17   32.47    5.44
  -4  -6  17   39.76    6.18
  -6  10  17   25.56    5.56
  -6  10  17   47.52    6.10
 -10   7 -17   56.52   10.16
 -10   7 -17   60.94    9.19
  -3  10  17   59.75    9.00
  -7  -3  17   62.79    9.33
  -3  10  17   70.34    8.40
 -10  10 -17   -2.20    2.19
 -10  10 -17   -1.29    2.24
 -10   0  17   -1.67    2.75
   0  10  17   -1.39    2.17
   0  10  17   -2.70    1.36
 -10  13 -17   15.52    4.59
 -10  13 -17   15.40    4.91
  -3 -10 -17    6.29    3.79
   3  10  17   11.79    3.83
 -13   3  17   11.39    4.26
 -10  16 -17    6.80    4.22
 -16   6  17    5.51    3.93
   6  10  17   -0.84    2.78
 -11  -3 -17   -0.81    3.06
  -3  14 -17    2.65    3.34
  -3  14 -17    1.23    2.72
  11   3  17    2.22    2.35
 -14  11  17    1.52    3.39
 -14  11  17   -1.05    2.79
   0  11 -17   -1.86    2.52
   0  11 -17    2.55    2.78
 -11   0 -17    0.63    2.46
  11   0  17   -0.40    1.68
 -11  11  17    2.26    2.38
 -11  11  17    2.13    2.94
 -11   3 -17    8.59    3.48
   3   8 -17    5.28    2.58
 -11   3 -17    1.59    1.92
   3   8 -17    4.82    3.04
 -11   3 -17    1.14    3.13
  -8  11  17    3.47    2.91
  -3  -8  17    4.11    2.31
  -8  11  17    1.76    1.88
 -11   6 -17    5.60    2.65
 -11   6 -17    1.15    2.75
   6   5 -17   -1.43    1.97
  -5  11  17   -0.15    2.02
  -6  -5  17    0.71    2.32
 -11   9 -17   -0.61    2.56
 -11   9 -17    4.27    3.16
  -9  -2  17    4.61    3.16
  -2  11  17    0.88    1.85
  -2  11  17    2.87    2.57
 -11  12 -17   19.16    5.12
 -11  12 -17   12.02    4.61
  -1 -11 -17   15.64    5.21
 -12   1  17   19.46    5.14
   1  11  17   12.95    4.37
 -11  15 -17   16.56    5.04
 -11  15 -17   10.43    4.41
   4  11  17    9.22    3.87
 -15   4  17    9.80    4.48
  -4  16 -17   10.90    4.60
  -4  16 -17    8.71    4.59
  12   4  17    2.38    2.99
 -16  12  17   -0.24    3.32
 -16  12  17    1.26    4.43
 -12  -1 -17    1.05    3.23
  -1  13 -17    1.98    3.10
  -1  13 -17    1.66    2.92
 -13  12  17    2.59    2.71
 -13  12  17   -2.40    3.07
   2  10 -17   18.67    5.08
   2  10 -17   31.02    5.66
 -12   2 -17   19.73    5.65
 -12   2 -17   23.71    6.06
 -10  12  17   27.03    6.24
  -2 -10  17   31.93    5.46
 -10  12  17   35.46    5.24
   5   7 -17    7.20    2.84
 -12   5 -17    8.99    3.05
 -12   5 -17    9.22    4.71
   5   7 -17    7.21    3.13
  -5  -7  17    4.70    2.93
  -7  12  17    6.28    3.26
 -12   8 -17    4.42    3.21
 -12   8 -17    7.23    4.02
   8   4 -17    8.50    2.86
  -8  -4  17    0.24    2.61
  -4  12  17    4.66    2.81
  -4  12  17    7.57    2.90
 -12  11 -17   17.73    5.07
  11   1 -17   10.70    3.46
 -12  11 -17   23.33    5.40
 -11  -1  17   12.20    4.29
  -1  12  17   13.57    4.31
  -1  12  17   11.67    3.36
 -12  14 -17   -0.86    3.26
 -12  14 -17   -1.84    3.23
 -14   2  17   -2.95    3.03
   2  12  17    2.30    3.02
  -2  15 -17   -1.94    2.54
  -2  15 -17    5.55    3.41
 -15  13  17   -2.85    3.46
   1  12 -17    2.63    3.40
 -13   1 -17    5.09    3.97
   1  12 -17   -4.37    2.28
 -13   1 -17    9.84    4.18
 -12  13  17    0.15    3.53
 -13   4 -17   10.04    3.03
 -13   4 -17   12.45    4.44
 -13   4 -17   10.33    4.58
   4   9 -17    6.31    3.61
   4   9 -17   11.82    3.69
  -9  13  17   10.68    4.18
  -4  -9  17    9.72    3.39
 -13   7 -17    4.70    3.44
   7   6 -17   14.15    3.73
 -13   7 -17    9.97    4.53
  -6  13  17    9.37    3.57
  -7  -6  17   16.59    4.51
 -13  10 -17   11.74    4.62
 -13  10 -17   10.05    3.92
  10   3 -17    6.41    3.20
  -3  13  17    4.88    3.07
  -3  13  17    2.85    2.89
 -10  -3  17    2.70    3.32
  13   0 -17    6.84    3.06
 -13  13 -17   -0.58    3.09
 -13  13 -17    0.17    3.46
   0  13  17    0.73    3.09
 -13   0  17   -1.34    3.35
 -14   0 -17   -2.95    3.29
   0  14 -17    1.22    2.92
   0  14 -17   -3.47    2.68
 -14  14  17    1.07    3.59
   3  11 -17   -0.78    2.78
 -14   3 -17    1.55    3.69
   3  11 -17   -0.28    3.15
 -14   3 -17   -3.47    3.22
 -11  14  17    0.65    3.31
 -14   6 -17   -5.30    2.63
   6   8 -17    0.30    3.04
 -14   6 -17    0.00    2.49
   6   8 -17   -0.02    2.50
  -8  14  17    0.00    2.51
  -6  -8  17   -2.58    2.54
 -14   9 -17    7.24    4.43
 -14   9 -17   -2.21    2.84
   9   5 -17    5.26    2.88
  -5  14  17   -1.13    2.19
  -9  -5  17    1.21    3.14
  -5  14  17   -0.04    2.90
 -14  12 -17    0.03    3.73
 -14  12 -17   -1.06    2.97
  12   2 -17    2.33    2.84
 -12  -2  17   -4.96    2.96
  -2  14  17   -2.21    2.84
  15  -1 -17    3.10    3.05
 -14  15 -17   -4.19    3.14
 -14  15 -17    1.05    4.16
   1  14  17   -4.17    3.38
 -15   1  17    5.16    4.36
   2  13 -17    0.27    3.35
 -15   2 -17   -0.09    3.69
   2  13 -17   -0.36    2.97
 -13  15  17    0.74    4.05
   5  10 -17    6.44    3.34
   5  10 -17    0.41    3.39
 -15   5 -17    0.89    3.74
 -10  15  17    2.11    3.53
   8   7 -17    1.14    3.02
 -15   8 -17    0.69    2.97
 -15   8 -17   -2.32    2.98
  -7  15  17    7.50    3.84
  -8  -7  17    6.17    3.55
 -15  11 -17   16.24    5.44
 -15  11 -17    8.13    4.84
  11   4 -17   10.56    4.17
 -11  -4  17   11.75    4.68
  -4  15  17    8.68    3.74
  -4  15  17    7.05    4.00
 -15  14 -17   -0.90    3.59
  14   1 -17    1.34    3.20
 -15  14 -17   13.36    5.42
  -1  15  17   -0.53    3.94
 -14  -1  17    1.14    3.48
 -16   4 -17   -0.67    4.11
   4  12 -17    5.26    3.92
   4  12 -17   -1.10    3.20
 -12  16  17    5.45    4.65
   7   9 -17   -1.13    2.94
 -16   7 -17    0.55    3.26
 -16   7 -17    0.83    3.94
   7   9 -17    0.01    2.96
  -7  -9  17    4.42    3.74
  -9  16  17   -4.00    2.71
  10   6 -17    0.59    2.90
 -16  10 -17    4.40    3.94
 -16  10 -17    1.71    4.26
  -6  16  17    1.25    3.26
 -10  -6  17    0.14    3.25
  -1   2 -18    1.04    1.38
  -1   2 -18   -0.80    1.52
  -1  -1 -18   -1.56    1.55
  -2   1 -18    1.30    1.70
  -2   1 -18   -2.38    1.75
  -2   1 -18   -0.42    1.03
  -2   4 -18    1.15    1.65
  -2  -2 -18    2.89    1.68
  -2   4 -18    4.32    1.98
  -2  -2 -18    7.32    2.72
  -4   2  18   -0.57    1.68
  -3   0 -18   24.19    4.58
  -3   0 -18   24.79    3.25
   0   3 -18   25.77    4.43
  -3   0 -18   27.45    5.12
  -3   3 -18  119.22   13.65
  -3   6 -18   -0.55    1.00
  -3   6 -18    1.13    2.49
  -3   6 -18    0.35    1.67
  -3  -3 -18    1.07    2.28
  -3  -3 -18   -0.45    1.43
   3   3  18    0.22    1.50
  -6   3  18    1.47    1.85
  -1   5 -18   16.41    3.37
  -4  -1 -18   19.46    4.33
  -1   5 -18   17.26    3.74
  -4  -1 -18   20.03    3.94
   4   1  18   19.92    3.20
  -5   4  18   18.90    3.68
  -4   2 -18    0.68    1.81
  -4   2 -18    1.47    2.13
  -4   2 -18    4.18    1.42
  -2  -2  18    3.28    2.18
  -2   4  18    1.43    1.26
  -4   5 -18    1.44    2.30
  -1  -4 -18    0.45    1.23
  -4   5 -18    1.49    1.75
   1   4  18    0.64    1.71
  -5   1  18    1.31    1.89
  -4   8 -18    2.88    2.18
  -4   8 -18   -0.31    1.41
  -4  -4 -18    1.53    2.30
  -4   8 -18    1.04    2.57
  -4  -4 -18   -0.33    1.74
   4   4  18    1.72    1.72
  -8   4  18   -0.82    1.55
  -2   7 -18   64.54    6.90
  -2   7 -18   59.28    8.33
  -5  -2 -18   70.61    8.37
  -5  -2 -18   52.41    9.09
  -7   5  18   52.58    7.93
   2  -7  18   52.20    7.14
  -7   5  18   44.83    7.76
   5   2  18   55.36    6.90
   1   4 -18   19.40    3.16
  -5   1 -18   20.32    4.51
  -5   1 -18   19.78    4.15
  -5   1 -18   15.15    2.61
  -4   5  18   19.09    3.45
  -1  -4  18   19.03    3.47
  -5   4 -18    0.71    1.32
  -5   4 -18   -2.18    1.51
   1  -5 -18    0.12    1.48
  -1   5  18    0.17    1.06
  -4  -1  18    0.01    1.78
  -5   7 -18   74.88   10.61
  -2  -5 -18   62.03   10.53
  -5   7 -18   65.19    8.86
  -5   7 -18   83.50    7.86
  -2  -5 -18   69.38    9.09
   2   5  18   68.86    8.50
   2   5  18   68.83    7.72
  -7   2  18   59.40    9.36
  -5  -5 -18   -2.54    1.59
  -5  10 -18   -7.99    2.63
  -5  -5 -18   -0.74    2.63
  -5  10 -18   -2.33    2.27
  -5  10 -18   -0.39    1.64
 -10   5  18   -1.73    2.03
   5   5  18    1.06    1.94
  -3   9 -18   67.45   11.27
  -3   9 -18   87.62   12.15
  -6  -3 -18  100.69   12.65
  -6  -3 -18   98.54   12.00
  -3   9 -18   73.89    9.99
   3  -9  18   82.55    9.93
   6   3  18   95.43   10.20
  -9   6  18   91.94   11.04
  -9   6  18   86.15   11.21
  -6   0 -18    8.33    3.07
  -6   0 -18    8.37    3.50
   0   6 -18    7.72    2.91
   0   6 -18   12.46    2.72
   0  -6  18   16.68    2.88
  -6   6  18    9.76    3.06
   6   0  18   14.10    2.45
  -6   6  18   15.04    3.09
  -6   3 -18   -1.23    1.67
  -6   3 -18    0.71    1.31
  -3   6  18   -0.13    1.43
  -3  -3  18    1.01    1.73
   0  -6 -18    0.12    1.13
  -6   6 -18    3.78    2.34
  -6   6 -18    0.61    1.78
  -6   6 -18   -0.21    0.63
   0   6  18   -0.36    0.98
  -6   0  18   -1.01    1.84
   0   6  18   -1.55    1.76
  -3  -6 -18   82.99   12.33
  -6   9 -18   84.95    9.62
  -3  -6 -18   99.95   11.27
  -6   9 -18   90.59   11.95
  -6   9 -18   92.56   11.35
   3   6  18   83.35   10.26
   3   6  18   87.96    9.62
  -9   3  18   65.74   11.08
  -6  12 -18   -0.32    2.30
  -6  -6 -18   -5.57    2.04
  -6  12 -18   -1.63    1.63
  -6  12 -18   -3.01    2.08
  -6  -6 -18    0.95    1.98
 -12   6  18   -2.55    2.51
   6   6  18   -1.04    1.87
  -7  -4 -18    0.57    2.68
  -4  11 -18   -5.39    3.30
  -4  11 -18   -2.15    2.50
  -7  -4 -18    2.26    2.31
  -4  11 -18    1.52    2.12
 -11   7  18   -0.39    2.24
 -11   7  18    4.23    3.02
   7   4  18   -0.89    1.78
  -7  -1 -18   13.09    3.80
  -7  -1 -18   15.29    4.39
  -1   8 -18   15.95    4.13
  -1   8 -18   14.18    3.19
  -8   7  18   16.81    3.55
  -8   7  18   14.05    3.86
   7   1  18   10.52    2.64
   1  -8  18   15.63    2.92
  -7   2 -18   58.87    8.39
   2   5 -18   44.98    6.35
  -7   2 -18   57.10    6.19
  -2  -5  18   48.19    6.98
  -5   7  18   51.51    7.19
  -7   5 -18   61.58    7.91
  -7   5 -18   65.51    9.57
   2  -7 -18   58.07    7.56
  -2   7  18   74.01    7.72
  -5  -2  18   53.46    8.26
  -2   7  18   56.30    7.98
  -7   8 -18   45.20    6.99
  -7   8 -18   30.64    4.16
  -1  -7 -18   32.40    4.89
  -7   8 -18   36.90    6.06
  -8   1  18   44.71    6.29
   1   7  18   39.64    4.66
   1   7  18   46.69    6.20
  -7  11 -18    7.93    2.35
  -4  -7 -18   14.01    4.55
  -4  -7 -18   10.63    2.91
  -7  11 -18   10.37    3.60
  -7  11 -18   10.60    4.00
 -11   4  18   10.65    4.00
   4   7  18   10.43    3.17
  -7  14 -18    0.93    2.97
  -7  -7 -18   -2.98    2.46
  -7  14 -18    0.97    3.00
  -7  14 -18   -0.31    2.33
   7   7  18    0.44    2.18
 -14   7  18   -1.18    2.77
  -8  -5 -18   43.45    7.96
  -5  13 -18   55.72    8.10
  -5  13 -18   50.17    7.10
  -5  13 -18   34.94    7.63
 -13   8  18   35.10    7.48
   8   5  18   38.17    6.58
  -2  10 -18    1.91    2.18
  -2  10 -18   -0.47    2.08
  -8  -2 -18   -1.64    2.16
 -10   8  18    1.14    1.97
 -10   8  18    1.81    2.67
   8   2  18   -1.93    1.38
  -8   1 -18   19.23    2.87
  -8   1 -18   12.12    3.67
   1   7 -18   13.86    3.85
   1   7 -18   14.96    3.29
   8  -1  18   14.16    2.52
  -7   8  18   17.53    3.52
  -1  -7  18   11.58    2.94
  -7   8  18   15.35    3.87
  -8   4 -18    1.28    1.55
  -8   4 -18    0.42    2.00
  -4  -4  18   -0.77    1.74
  -4   8  18   -2.93    1.29
  -8   7 -18   30.98    6.72
  -8   7 -18   33.25    6.02
  -1   8  18   36.92    6.12
  -1   8  18   43.17    5.54
  -7  -1  18   46.25    6.93
  -8  10 -18    4.72    2.78
  -8  10 -18    2.16    2.72
  -2  -8 -18   -0.74    2.79
   2   8  18    2.63    2.26
 -10   2  18    3.84    3.12
  -8  13 -18   51.68    9.59
  -8  13 -18   66.16   10.10
  -5  -8 -18   75.94   10.94
 -13   5  18   52.15    9.47
   5   8  18   59.99    8.86
  -8  16 -18    5.83    4.24
   8   8  18    5.09    3.49
 -16   8  18    6.14    3.89
  -6  15 -18   30.18    5.37
  -6  15 -18   13.11    5.18
 -15   9  18   20.02    5.32
   9   6  18   13.43    4.30
  -9  -3 -18    0.91    2.85
  -3  12 -18   -3.67    3.11
  -3  12 -18    3.54    2.63
  -3  12 -18    2.43    2.68
 -12   9  18    1.61    2.80
 -12   9  18    1.18    3.18
   9   3  18    1.62    2.30
   0   9 -18   98.76   12.99
  -9   0 -18  116.50   14.64
   0   9 -18  104.04   12.19
  -9   9  18   92.22   12.55
  -9   9  18   93.09   13.00
   9   0  18  119.21   11.66
   0  -9  18  100.52   12.18
  -9   3 -18   77.41   12.75
  -9   3 -18   69.92   10.40
   3   6 -18  100.09   10.70
  -3  -6  18  108.44   11.15
  -6   9  18   86.87   10.81
  -6   9  18  102.29   11.46
  -9   6 -18   83.82   10.49
  -9   6 -18   82.77   11.71
  -3   9  18   86.74   11.04
  -6  -3  18  104.68   11.08
  -3   9  18   68.94   10.08
  -9   9 -18  129.19   16.71
  -9   9 -18  126.27   15.52
   0   9  18  118.84   14.48
   0   9  18  128.74   14.43
  -9   0  18  121.74   15.47
  -9  12 -18    5.06    3.24
  -9  12 -18   11.82    3.75
  -3  -9 -18    3.55    3.29
   3   9  18    7.25    3.18
 -12   3  18   10.05    3.73
  -9  15 -18   13.87    5.37
   6   9  18   12.28    4.22
 -15   6  18    9.80    4.39
 -10  -4 -18    0.60    3.36
  -4  14 -18    4.59    3.30
  -4  14 -18    3.06    3.01
 -14  10  18    1.65    2.64
  10   4  18    2.06    2.45
 -14  10  18   -2.03    3.05
  -1  11 -18    2.71    3.13
  -1  11 -18    1.12    2.43
 -10  -1 -18    0.96    2.83
 -11  10  18    3.55    2.44
  10   1  18    0.32    1.77
 -11  10  18   -4.09    1.95
 -10   2 -18    0.30    1.42
   2   8 -18    2.11    2.59
   2   8 -18    1.82    2.16
 -10   2 -18    0.78    2.85
  -8  10  18   -3.68    1.53
  -8  10  18   -0.42    1.96
  10  -2  18    0.36    1.09
  -2  -8  18   -0.30    1.81
 -10   5 -18   -0.26    2.30
 -10   5 -18   -0.04    1.72
   5   5 -18   -1.33    1.63
  -5  10  18   -0.86    1.94
  -5  -5  18    0.06    2.17
 -10   8 -18   -0.92    2.05
 -10   8 -18    1.86    2.68
  -8  -2  18   -1.36    2.43
  -2  10  18    5.50    2.72
  -2  10  18    3.44    2.00
 -10  11 -18    9.70    3.80
  -1 -10 -18    9.15    4.54
 -10  11 -18   -0.49    2.96
   1  10  18    3.29    2.90
 -11   1  18   10.44    4.08
 -10  14 -18   -1.40    3.23
 -10  14 -18    1.95    3.25
 -14   4  18    4.90    3.37
   4  10  18    0.20    2.37
  -5  16 -18    3.51    4.49
  -5  16 -18    5.36    3.61
  11   5  18    1.13    2.80
 -16  11  18   -0.49    3.37
  -2  13 -18   12.41    4.32
 -11  -2 -18   13.16    4.96
  -2  13 -18   15.69    4.29
 -13  11  18   17.20    5.22
  11   2  18    8.76    3.11
 -13  11  18   12.38    3.97
 -11   1 -18    0.14    2.76
   1  10 -18   -3.42    2.25
   1  10 -18   -1.72    2.08
 -10  11  18    3.99    2.35
 -10  11  18    0.59    2.61
 -11   4 -18   -0.38    1.53
   4   7 -18   -0.07    2.09
   4   7 -18    1.16    2.44
 -11   4 -18   -1.17    2.64
  -4  -7  18   -1.39    1.89
  -7  11  18   -0.43    1.69
  -7  11  18    0.19    2.33
   7   4 -18   11.53    3.46
 -11   7 -18   11.22    4.12
 -11   7 -18   10.18    3.34
  -4  11  18   13.62    3.44
  -7  -4  18   12.36    3.88
  -4  11  18    4.42    3.26
 -11  10 -18    6.80    3.57
 -11  10 -18    4.83    3.53
 -10  -1  18    4.35    3.45
  -1  11  18    0.94    2.33
  -1  11  18    6.73    2.44
 -11  13 -18   11.95    4.78
 -11  13 -18   10.01    4.28
  -2 -11 -18   21.84    5.44
   2  11  18   21.40    4.81
 -13   2  18   18.63    5.13
 -11  16 -18   -2.03    3.72
 -16   5  18   -5.50    3.12
   5  11  18    2.15    3.51
  -3  15 -18    5.62    3.38
  -3  15 -18    7.72    3.88
 -15  12  18   -0.66    3.03
 -15  12  18    0.20    3.81
  12   3  18   -0.74    2.54
 -12   0 -18   -0.87    2.99
   0  12 -18   -1.05    2.89
   0  12 -18   10.78    3.68
 -12  12  18   11.14    4.15
 -12  12  18    3.31    2.67
 -12   3 -18    2.64    3.27
   3   9 -18    1.14    2.73
   3   9 -18    2.46    2.56
  -9  12  18    3.18    2.04
  -9  12  18    0.67    2.48
  -3  -9  18    1.61    2.22
 -12   6 -18    2.25    2.41
   6   6 -18   -1.71    1.93
 -12   6 -18   -2.13    2.70
  -6  -6  18    1.42    2.48
  -6  12  18    4.26    2.63
 -12   9 -18   17.72    4.55
 -12   9 -18   13.13    4.67
   9   3 -18   11.76    3.60
  -3  12  18   11.05    3.36
  -3  12  18    3.74    3.06
  -9  -3  18    5.07    3.15
 -12  12 -18    3.49    3.48
 -12  12 -18    0.19    3.13
   0 -12 -18    3.90    4.40
 -12   0  18    3.48    3.06
   0  12  18    5.47    3.15
 -12  15 -18    8.30    4.81
 -12  15 -18   15.94    5.38
 -15   3  18   12.77    4.98
   3  12  18   16.19    4.97
 -13  -1 -18   18.15    5.60
  -1  14 -18   15.12    5.05
  -1  14 -18    9.40    4.36
 -14  13  18   12.28    5.54
 -13   2 -18   19.62    5.79
   2  11 -18    6.99    3.97
   2  11 -18   12.29    4.20
 -11  13  18   26.70    5.75
   5   8 -18   46.92    7.29
 -13   5 -18   38.17    6.73
 -13   5 -18   49.48    9.11
   5   8 -18   31.79    6.85
  -8  13  18   49.12    7.93
  -5  -8  18   40.54    7.12
 -13   8 -18   51.32    8.93
 -13   8 -18   61.52   10.76
   8   5 -18   64.92    8.75
  -8  -5  18   39.01    8.37
  -5  13  18   88.55    9.05
  -5  13  18   44.86    8.55
 -13  11 -18   20.93    5.95
  11   2 -18   12.42    4.07
 -13  11 -18   20.12    5.55
 -11  -2  18   17.40    5.17
  -2  13  18   17.47    4.16
  -2  13  18   16.11    4.83
  14  -1 -18   10.89    4.00
 -13  14 -18   17.52    5.85
 -13  14 -18   17.55    5.23
 -14   1  18   18.81    5.67
   1  13  18    7.95    4.02
   1  13 -18   13.77    4.59
   1  13 -18   18.58    5.44
 -14   1 -18    4.37    4.86
 -13  14  18   22.28    6.17
   4  10 -18   -2.88    2.72
   4  10 -18   -2.12    2.47
 -14   4 -18    1.75    3.22
 -10  14  18    3.96    3.51
 -14   7 -18   -1.41    2.52
   7   7 -18    3.81    3.05
 -14   7 -18   -1.48    2.91
  -7  14  18   -4.09    2.13
  -7  -7  18   -2.56    2.71
  10   4 -18   -2.52    2.14
 -14  10 -18    0.99    3.81
 -14  10 -18   -1.74    2.85
 -10  -4  18   -0.74    3.18
  -4  14  18   -2.16    2.62
  -4  14  18    1.32    2.43
 -14  13 -18   16.51    5.97
  13   1 -18   13.94    4.71
 -14  13 -18   16.04    5.83
 -13  -1  18   29.28    6.68
  -1  14  18   23.43    5.60
   3  12 -18    4.54    3.63
   3  12 -18    3.52    3.50
 -15   3 -18    4.60    4.55
 -12  15  18    7.21    4.48
 -15   6 -18   29.54    7.15
   6   9 -18   33.65    6.50
   6   9 -18   17.42    5.19
  -6  -9  18   24.43    5.57
  -9  15  18   19.38    5.75
 -15   9 -18   16.66    5.53
 -15   9 -18   12.23    4.76
   9   6 -18   13.98    4.40
  -6  15  18   16.90    4.69
  -9  -6  18    8.26    4.14
  12   3 -18    9.36    3.85
 -15  12 -18   19.48    6.21
 -15  12 -18   13.06    4.82
  -3  15  18   18.30    5.34
 -12  -3  18    8.60    4.94
   5  11 -18   -0.73    3.38
 -16   5 -18    2.31    4.68
   5  11 -18    3.73    3.91
 -11  16  18    4.51    3.87
 -16   8 -18    1.70    3.44
   8   8 -18    2.09    3.36
 -16   8 -18    2.36    3.86
   8   8 -18   -0.57    2.88
  -8  -8  18    1.45    3.37
  -8  16  18    2.12    3.44
 -16  11 -18    6.26    4.29
  11   5 -18   -4.28    2.35
 -16  11 -18   -1.41    3.88
  -5  16  18   -4.51    3.15
 -11  -5  18    1.88    3.71
  -5  16  18   -0.36    3.05
  -1   0 -19   -0.27    1.88
  -2  -1 -19  338.70   44.35
  -2  -1 -19  299.89   42.17
  -1   3 -19  375.60   44.01
  -1   3 -19  429.32   39.10
  -2  -1 -19  344.29   38.28
  -2   2 -19   -3.42    2.70
  -3  -2 -19   44.51    6.85
  -3  -2 -19   41.57    5.89
  -2   5 -19   33.92    5.64
  -2   5 -19   33.88    5.37
   3   2  19   28.80    4.89
  -5   3  19   34.73    5.45
  -3   1 -19  325.27   41.88
  -3   1 -19  338.55   36.40
  -3   1 -19  341.55   40.20
  -3   4 -19  195.18   20.51
  -1  -3 -19  205.66   22.09
  -3   4 -19  149.87   22.92
  -3   4 -19  179.96   22.43
  -4   1  19  178.78   20.56
  -3   7 -19  178.08   23.40
  -3   7 -19  224.28   25.66
  -4  -3 -19  217.00   26.80
  -3   7 -19  219.39   21.81
  -4  -3 -19  184.61   25.09
  -7   4  19  217.55   23.57
   4   3  19  209.84   22.04
   0   4 -19    0.69    1.25
  -4   0 -19    1.41    1.98
   0   4 -19    1.45    1.87
  -4   0 -19   -0.08    1.85
  -4   0 -19    0.49    0.65
  -4   3 -19  165.75   22.56
  -4   3 -19  182.42   21.94
  -4   3 -19  175.99   19.66
  -3  -1  19  181.65   20.09
  -2  -4 -19    0.80    1.45
  -4   6 -19    0.89    1.07
  -2  -4 -19   -0.26    2.31
  -4   6 -19    2.30    2.56
  -4   6 -19   -0.30    1.72
  -6   2  19    0.10    1.86
   2   4  19    0.54    1.66
  -4   9 -19   -1.45    1.47
  -4   9 -19    2.43    3.17
  -5  -4 -19   -0.45    1.94
  -5  -4 -19    3.16    2.55
  -4   9 -19    0.20    2.39
   5   4  19   -1.09    1.48
  -9   5  19   -2.11    1.69
  -5  -1 -19   18.96    4.13
  -1   6 -19   13.35    3.41
  -1   6 -19   18.29    3.16
  -5  -1 -19   15.72    4.05
  -6   5  19   16.41    3.55
   1  -6  19   18.21    3.38
   5   1  19   16.14    3.04
  -6   5  19   19.10    3.77
  -5   2 -19   44.75    5.41
  -5   2 -19   43.20    6.83
  -5   2 -19   39.53    7.40
  -3   5  19   42.17    5.94
  -2  -3  19   43.88    6.27
   0  -5 -19    1.55    1.21
  -5   5 -19   -1.45    1.75
  -5   5 -19   -1.09    1.34
   0   5  19   -2.56    1.35
  -5   0  19   -1.03    1.67
   0   5  19   -0.21    0.83
  -5   8 -19   30.98    5.69
  -3  -5 -19   29.10    5.73
  -5   8 -19   24.18    3.77
  -5   8 -19   21.24    4.59
  -3  -5 -19   28.66    4.69
  -8   3  19   22.18    4.67
   3   5  19   27.20    4.64
  -5  11 -19    1.75    1.99
  -6  -5 -19    0.31    1.96
  -6  -5 -19   -0.20    2.56
  -5  11 -19    1.29    3.02
  -5  11 -19    0.72    2.60
   6   5  19   -0.89    1.86
 -11   6  19    2.66    2.78
  -2   8 -19    0.66    2.44
  -6  -2 -19   -1.24    2.39
  -6  -2 -19    0.86    1.95
  -2   8 -19    1.94    1.71
  -8   6  19    2.44    2.32
  -8   6  19    1.68    2.22
   2  -8  19    1.40    1.47
   6   2  19    0.77    1.56
  -6   1 -19   12.31    4.10
   1   5 -19   27.31    3.10
  -6   1 -19   13.28    2.60
  -6   1 -19   18.87    4.38
   1   5 -19   15.62    3.54
  -5   6  19   18.12    3.74
  -1  -5  19   19.50    3.60
  -6   4 -19   -1.06    1.21
  -6   4 -19    0.07    1.96
  -2   6  19    0.58    1.30
  -4  -2  19   -1.09    1.78
  -6   7 -19    0.57    0.93
  -6   7 -19    2.04    2.26
  -6   7 -19    2.38    1.87
  -1  -6 -19    1.67    1.38
   1   6  19    2.11    1.97
  -7   1  19    1.88    1.97
   1   6  19    0.38    0.97
  -6  10 -19    0.69    1.51
  -6  10 -19    1.14    2.33
  -6  10 -19    1.98    2.49
  -4  -6 -19   -0.26    2.79
  -4  -6 -19   -1.70    1.48
   4   6  19    0.41    1.85
 -10   4  19   -2.01    2.31
  -6  13 -19    2.38    2.45
  -6  13 -19    5.82    3.72
  -6  13 -19    3.02    2.93
  -7  -6 -19    0.90    2.38
  -7  -6 -19    0.13    2.70
   7   6  19   -0.90    2.17
 -13   7  19   -0.08    2.89
  -7  -3 -19   78.08   10.68
  -3  10 -19   64.96   10.43
  -3  10 -19   78.08    9.16
  -7  -3 -19   76.03   12.08
  -3  10 -19   85.70   11.61
 -10   7  19   70.07   10.16
 -10   7  19   59.10   10.43
   7   3  19   77.96    9.10
   0   7 -19   -1.73    1.99
   0   7 -19   -1.34    1.45
  -7   0 -19    1.49    2.14
  -7   0 -19    1.92    2.28
  -7   7  19   -0.63    2.01
   7   0  19    0.47    1.24
   0  -7  19    0.64    1.52
  -7   7  19   -0.41    1.70
  -7   3 -19  213.75   25.83
  -7   3 -19  192.82   23.00
  -4   7  19  233.88   23.51
  -3  -4  19  195.55   23.41
  -7   6 -19    0.64    1.81
  -7   6 -19    3.12    2.52
   1  -7 -19    2.41    1.14
  -6  -1  19   -0.93    1.84
  -1   7  19    0.88    1.87
  -1   7  19    0.70    1.26
  -7   9 -19   56.01    8.27
  -2  -7 -19   45.35    7.07
  -7   9 -19   67.48    9.19
  -2  -7 -19   66.37    9.84
  -7   9 -19   57.09    6.27
  -9   2  19   59.95    8.49
   2   7  19   47.64    7.56
  -5  -7 -19   14.78    4.49
  -7  12 -19   14.58    4.42
  -7  12 -19   11.87    3.92
  -5  -7 -19   18.67    3.82
  -7  12 -19   16.15    3.28
 -12   5  19    8.84    3.96
   5   7  19   11.29    3.62
  -7  15 -19    2.36    3.56
   8   7  19   -0.39    2.44
 -15   8  19    0.20    3.01
  -8  -4 -19    1.59    2.71
  -4  12 -19    6.62    3.25
  -4  12 -19    4.12    2.77
  -4  12 -19    0.35    2.84
 -12   8  19    4.34    3.72
   8   4  19    0.41    2.04
 -12   8  19    1.81    2.94
  -1   9 -19   17.58    5.82
  -1   9 -19   20.15    4.27
  -8  -1 -19   17.73    5.27
  -9   8  19   31.44    5.80
   1  -9  19   37.56    4.40
  -9   8  19   20.40    4.55
   8   1  19   24.58    3.97
   2   6 -19   -1.39    1.64
  -8   2 -19    0.29    2.31
   2   6 -19   -2.04    2.08
  -8   2 -19    3.85    1.48
  -6   8  19    3.22    2.36
  -6   8  19    2.17    2.06
  -2  -6  19    4.59    2.03
   3  -8 -19   30.80    3.92
  -8   5 -19   25.26    5.55
  -8   5 -19   28.83    4.89
  -5  -3  19   25.06    5.13
  -3   8  19   28.87    4.76
  -8   8 -19    1.76    2.50
  -8   8 -19   -0.55    1.93
  -8   0  19    2.62    2.50
   0   8  19    2.59    2.03
   0   8  19   -0.88    1.15
  -8  11 -19    0.78    2.57
  -3  -8 -19   -4.25    2.93
  -8  11 -19   -0.84    2.53
 -11   3  19    1.11    2.55
   3   8  19    2.45    2.46
  -8  14 -19    1.45    2.92
  -8  14 -19   -3.56    2.40
  -6  -8 -19    5.66    3.39
 -14   6  19   -1.59    2.97
   6   8  19    0.50    2.48
  -9  -5 -19   -0.07    2.96
  -5  14 -19   -3.96    2.26
  -5  14 -19    1.57    3.28
 -14   9  19   -1.63    2.69
   9   5  19   -1.31    1.99
  -2  11 -19    9.46    4.00
  -2  11 -19   10.25    3.43
  -9  -2 -19    7.01    3.67
 -11   9  19   16.67    4.74
 -11   9  19   11.22    3.62
   9   2  19   16.65    3.29
  -9   1 -19   19.10    5.20
   1   8 -19   32.16    5.94
   1   8 -19   21.64    4.44
  -8   9  19   25.85    5.13
  -1  -8  19   33.22    4.61
   9  -1  19   24.73    3.57
  -8   9  19   12.40    3.91
  -9   4 -19   -1.66    2.41
   4   5 -19   -1.34    1.79
  -9   4 -19   -2.26    1.29
  -4  -5  19   -0.41    1.99
  -5   9  19    1.29    2.02
  -9   7 -19   59.66    9.83
  -9   7 -19   62.75    8.89
  -2   9  19   59.11    8.01
  -2   9  19   58.95    8.59
  -7  -2  19   54.60    8.67
  -9  10 -19    4.37    3.08
  -9  10 -19    7.18    3.36
 -10   1  19    6.15    3.49
   1   9  19    5.91    2.67
  -9  13 -19    3.76    3.23
  -9  13 -19    4.05    3.08
  -4  -9 -19    3.15    3.41
 -13   4  19   -1.99    2.84
   4   9  19    4.22    3.01
  -9  16 -19    2.88    4.08
   7   9  19    2.17    2.87
 -16   7  19    5.29    4.01
  -6  16 -19   -2.92    3.80
  -6  16 -19    0.58    3.07
 -16  10  19   -3.07    3.28
  10   6  19    0.75    3.14
  -3  13 -19    4.22    3.67
 -10  -3 -19    6.44    3.89
  -3  13 -19   13.14    3.92
  -3  13 -19   18.36    5.62
 -13  10  19   14.47    4.31
  10   3  19   13.06    3.53
 -13  10  19    9.95    4.16
   0  10 -19    0.43    2.19
 -10   0 -19   -1.39    2.26
   0  10 -19    0.63    2.61
 -10  10  19    1.10    2.82
 -10  10  19    1.34    2.10
  10   0  19    1.54    1.56
 -10   3 -19   49.28   10.89
   3   7 -19   63.77   10.03
   3   7 -19   93.52    9.57
 -10   3 -19   80.40    9.12
  -7  10  19   79.70   10.72
  -7  10  19   68.27    9.58
  -3  -7  19   74.20    9.61
 -10   6 -19    0.71    2.55
 -10   6 -19   -1.71    1.85
  -6  -4  19    3.59    2.76
  -4  10  19   -0.51    1.78
 -10   9 -19    3.19    2.80
 -10   9 -19    6.23    3.23
  -9  -1  19   10.87    3.96
  -1  10  19    7.55    3.22
  -1  10  19    7.52    2.43
 -10  12 -19   -1.13    2.42
 -10  12 -19    1.88    2.90
  -2 -10 -19    2.71    3.63
   2  10  19    0.73    2.30
 -12   2  19   -0.88    2.72
 -10  15 -19    0.01    3.45
 -10  15 -19    6.72    4.20
 -15   5  19    7.88    4.01
   5  10  19    3.31    3.26
  -4  15 -19   15.17    4.56
  -4  15 -19   14.88    5.48
 -15  11  19   14.67    4.71
 -15  11  19   10.37    5.37
  11   4  19   14.37    4.02
  -1  12 -19   12.16    4.28
  -1  12 -19   16.55    5.27
 -11  -1 -19   27.32    6.31
 -12  11  19   21.68    5.29
  11   1  19   23.27    4.05
 -12  11  19   14.08    4.38
   2   9 -19   10.04    3.16
 -11   2 -19   13.26    4.67
   2   9 -19    6.92    3.56
  -9  11  19    9.76    3.07
  -9  11  19   13.99    4.00
  -2  -9  19   10.21    3.12
   5   6 -19   -0.78    2.10
 -11   5 -19    0.44    2.58
 -11   5 -19    1.39    2.13
  -6  11  19    1.31    2.31
  -6  11  19   -0.09    2.14
  -5  -6  19    1.16    2.47
 -11   8 -19   -0.05    2.38
 -11   8 -19   -2.09    2.62
  -8  -3  19   -1.35    2.32
  -3  11  19    0.99    1.98
  -3  11  19   -0.79    2.37
 -11  11 -19    2.77    2.95
 -11  11 -19    1.21    3.07
   0  11  19    0.69    2.46
 -11   0  19   -1.09    2.51
 -11  14 -19    8.44    4.15
 -11  14 -19    1.34    3.20
   3  11  19   -2.91    2.49
 -14   3  19   -1.37    2.90
  -2  14 -19   -0.37    2.90
 -12  -2 -19    0.38    3.46
  -2  14 -19    1.78    3.52
 -14  12  19    4.83    3.77
 -14  12  19    2.95    3.16
   1  11 -19   24.95    5.78
 -12   1 -19   26.87    6.37
   1  11 -19   25.76    5.36
 -11  12  19   23.60    4.85
 -11  12  19   18.34    5.37
   4   8 -19    3.32    2.76
   4   8 -19    2.87    2.57
 -12   4 -19    2.50    2.10
 -12   4 -19    0.79    2.77
  -8  12  19    3.14    2.99
  -8  12  19    3.40    1.94
  -4  -8  19    2.12    2.34
 -12   7 -19   10.86    3.63
   7   5 -19    3.27    2.92
 -12   7 -19   15.68    5.05
  -7  -5  19   13.08    3.84
  -5  12  19   12.44    3.53
 -12  10 -19    2.28    2.84
  10   2 -19    3.53    2.80
 -12  10 -19   -0.90    2.87
  -2  12  19    4.52    3.19
  -2  12  19    1.65    2.25
 -10  -2  19   -1.68    2.83
 -12  13 -19    2.93    3.46
 -12  13 -19    1.46    3.18
 -13   1  19    2.40    3.38
   1  12  19    1.03    3.02
 -12  16 -19   -2.52    4.04
 -16   4  19   -7.10    3.21
   4  12  19   -0.44    3.45
 -13   0 -19   -0.31    3.40
   0  13 -19   -1.92    2.51
   0  13 -19   -1.41    3.30
 -13  13  19   -4.10    3.02
   3  10 -19    8.44    4.33
   3  10 -19   14.47    3.97
 -13   3 -19   16.62    5.53
 -10  13  19    7.54    3.98
 -13   6 -19   -2.28    1.98
   6   7 -19   -0.95    2.08
 -13   6 -19    0.17    2.69
   6   7 -19   -0.38    2.28
  -6  -7  19    3.58    2.96
  -7  13  19   -1.13    2.63
 -13   9 -19    8.48    4.07
   9   4 -19    9.84    3.59
 -13   9 -19    1.16    3.29
  -4  13  19    4.75    2.94
  -4  13  19    3.71    2.71
  -9  -4  19   -0.52    2.53
 -13  12 -19    2.86    3.44
  12   1 -19    1.43    2.66
 -13  12 -19    4.00    3.87
  -1  13  19    2.72    3.29
 -12  -1  19   -4.85    2.56
 -13  15 -19    0.71    3.67
 -13  15 -19    1.95    4.00
  15  -2 -19   -0.08    2.52
   2  13  19    0.70    3.44
 -15   2  19    0.41    4.13
   2  12 -19    7.14    4.16
   2  12 -19    4.91    3.41
 -14   2 -19   -1.13    3.43
 -12  14  19    3.14    3.81
   5   9 -19    6.05    3.31
 -14   5 -19   -2.93    2.86
   5   9 -19   -2.42    2.68
  -9  14  19   -1.80    2.72
  -5  -9  19    2.28    2.74
 -14   8 -19   -4.34    3.33
   8   6 -19    1.71    3.05
 -14   8 -19    1.31    3.07
  -8  -6  19    5.49    3.36
  -6  14  19   -0.34    2.30
 -14  11 -19    2.42    3.41
  11   3 -19   -0.46    2.50
 -14  11 -19    6.84    4.50
  -3  14  19    2.14    3.12
 -11  -3  19   -2.43    2.90
  14   0 -19    0.10    2.68
 -14  14 -19   -4.51    3.19
 -14  14 -19   -6.11    3.42
   0  14  19    0.90    3.69
 -14   0  19   -3.78    3.13
   4  11 -19   15.21    4.83
   4  11 -19    7.62    4.30
 -15   4 -19    6.02    4.85
 -11  15  19   18.70    5.65
   7   8 -19    0.84    3.15
 -15   7 -19    0.29    3.50
   7   8 -19    1.23    3.36
 -15   7 -19    1.90    3.13
  -8  15  19    0.78    2.72
  -7  -8  19    3.52    3.04
  10   5 -19    5.25    3.44
 -15  10 -19   -2.65    3.68
 -15  10 -19    4.09    3.78
 -10  -5  19   -0.13    3.37
  -5  15  19   -0.07    2.92
  -5  15  19    3.96    3.62
 -15  13 -19    3.89    4.32
  13   2 -19   -2.14    2.58
 -15  13 -19    0.36    4.00
 -13  -2  19    0.91    3.73
  -2  15  19    0.21    3.89
 -16   6 -19   -1.58    3.86
   6  10 -19   -1.41    3.34
   6  10 -19    0.86    3.45
 -10  16  19    1.34    3.23
   9   7 -19   -0.39    3.05
 -16   9 -19    6.13    4.79
 -16   9 -19    7.88    4.21
  -9  -7  19    1.71    3.41
  -7  16  19    9.38    4.28
 -16  12 -19    3.59    4.63
 -16  12 -19    6.50    4.86
  12   4 -19   -2.34    3.04
  -4  16  19   -2.72    3.40
 -12  -4  19   -4.91    3.13
  -1   1 -20   24.66    5.21
  -2   0 -20    4.50    2.77
   0   2 -20   15.32    3.21
  -2   3 -20   92.17   14.03
  -2   3 -20  122.50   12.53
  -1  -2 -20  109.07   13.61
  -3  -1 -20   -0.69    1.69
  -3  -1 -20   -2.15    1.86
  -1   4 -20   -0.70    1.39
  -1   4 -20    8.95    2.79
  -3   2 -20  102.71   14.26
  -3   2 -20  105.95   13.88
  -3   2 -20  109.40   12.14
  -3   5 -20    7.78    2.50
  -2  -3 -20   10.11    2.48
  -2  -3 -20    8.86    3.11
  -3   5 -20   10.46    2.65
  -3   5 -20    3.47    2.68
   2   3  20    1.28    1.78
  -5   2  20    5.72    2.59
  -4  -2 -20   19.29    3.82
  -2   6 -20   13.65    3.59
  -4  -2 -20   15.62    4.25
  -6   4  20   15.36    3.58
   4   2  20   15.16    3.05
  -4   1 -20   -2.73    1.86
  -4   1 -20   -1.16    2.04
  -4   1 -20    1.66    0.99
   1   3 -20   -2.48    1.46
  -4   4 -20    9.35    2.44
  -4   4 -20    7.26    2.88
  -4   4 -20    7.50    3.05
   0  -4 -20   12.18    2.73
  -4   0  20   12.58    3.17
  -3  -4 -20    0.70    1.71
  -3  -4 -20    1.48    2.67
  -4   7 -20    3.17    3.56
  -4   7 -20   -0.83    2.18
  -4   7 -20   -1.17    1.20
   3   4  20    3.68    1.90
  -7   3  20   -1.60    1.88
  -5  -3 -20   89.34   11.18
  -3   8 -20   73.32   11.72
  -3   8 -20   72.35    9.40
  -5  -3 -20   85.19   12.09
  -3   8 -20   80.81   10.54
   5   3  20  100.99    9.88
  -8   5  20   77.66   10.49
  -5   0 -20   22.46    3.19
  -5   0 -20   29.22    5.56
  -5   0 -20   42.15    5.94
   0   5 -20   28.86    4.43
   0   5 -20   29.99    4.74
   0  -5  20   28.24    4.47
  -5   5  20   29.82    4.70
  -5   3 -20    5.51    1.92
  -5   3 -20   12.40    3.51
  -5   3 -20    8.42    2.96
  -3  -2  20    6.27    2.39
  -2   5  20    8.67    2.07
  -5   6 -20   34.46    5.19
  -5   6 -20   34.34    5.87
  -1  -5 -20   31.78    4.90
  -5   6 -20   26.96    3.79
   1   5  20   36.40    5.29
  -6   1  20   25.97    5.16
  -4  -5 -20    1.51    2.60
  -5   9 -20    1.82    2.52
  -5   9 -20    0.57    1.56
  -5   9 -20    4.58    2.83
  -4  -5 -20    3.61    2.04
   4   5  20    0.70    1.71
  -9   4  20   -1.49    2.18
  -6  -4 -20    5.45    2.69
  -4  10 -20    4.69    3.51
  -4  10 -20   -0.20    2.33
  -6  -4 -20    4.13    3.09
  -4  10 -20    4.97    2.24
   6   4  20    3.39    2.16
 -10   6  20    2.60    2.33
  -1   7 -20    5.87    2.86
  -6  -1 -20    5.89    3.08
  -6  -1 -20    4.18    2.60
  -1   7 -20    3.84    1.92
   1  -7  20    6.29    2.18
   6   1  20    1.66    1.55
  -7   6  20    3.03    2.07
  -7   6  20    4.14    2.27
  -6   2 -20   12.71    3.74
  -6   2 -20   14.07    2.51
  -6   2 -20   14.47    3.75
   2   4 -20   16.58    2.90
  -4   6  20    7.08    2.58
  -2  -4  20   13.34    3.14
  -6   5 -20   27.21    5.73
  -6   5 -20   31.96    3.50
  -6   5 -20   34.82    5.17
   1  -6 -20   28.53    4.59
  -5  -1  20   36.67    5.65
  -1   6  20   32.21    4.46
  -1   6  20   26.22    5.04
  -2  -6 -20    0.65    1.38
  -6   8 -20    2.88    1.35
  -6   8 -20   -0.81    2.32
  -6   8 -20    1.13    2.21
  -2  -6 -20    5.43    3.49
   2   6  20    1.29    0.79
  -8   2  20    1.54    2.16
   2   6  20    2.08    2.17
  -6  11 -20   -1.66    2.33
  -6  11 -20   -0.65    2.59
  -5  -6 -20   -0.15    2.52
  -6  11 -20    2.29    1.95
  -5  -6 -20   -0.40    1.75
 -11   5  20    1.37    2.64
   5   6  20    0.56    2.16
  -5  12 -20    4.21    2.36
  -5  12 -20   -2.91    2.29
  -7  -5 -20   -2.03    1.94
  -5  12 -20    5.15    3.16
  -7  -5 -20    0.91    2.81
 -12   7  20    1.21    3.01
   7   5  20   -1.07    1.87
  -2   9 -20   11.62    4.39
  -7  -2 -20    9.34    4.19
  -2   9 -20   11.64    3.02
  -7  -2 -20   13.70    4.03
  -9   7  20    7.96    3.42
   7   2  20   14.30    3.04
   2  -9  20   13.30    2.71
  -9   7  20   12.24    3.78
   1   6 -20    2.61    1.98
   1   6 -20    6.73    2.67
  -7   1 -20    5.31    2.64
  -7   1 -20    5.17    1.40
  -7   1 -20    2.53    2.69
  -6   7  20    3.93    2.45
  -6   7  20    4.22    2.39
  -1  -6  20    4.93    2.20
  -7   4 -20    0.29    1.60
  -7   4 -20    3.10    2.54
  -4  -3  20    0.08    1.98
  -3   7  20    0.81    1.54
  -7   7 -20   69.64    6.90
  -7   7 -20   48.66    9.40
  -7   7 -20   59.33    9.08
   0  -7 -20   78.51    8.35
  -7   0  20   61.55    9.13
   0   7  20   57.32    7.71
   0   7  20   57.85    8.78
  -7  10 -20   12.69    3.78
  -3  -7 -20   10.10    4.02
  -7  10 -20   13.46    4.18
  -3  -7 -20    6.59    2.31
  -7  10 -20    8.34    2.05
   3   7  20    9.34    3.26
 -10   3  20    3.96    3.22
  -7  13 -20   34.45    7.12
  -7  13 -20   31.37    5.32
  -6  -7 -20   30.26    7.06
  -7  13 -20   38.72    6.70
 -13   6  20   25.18    6.24
   6   7  20   29.34    5.74
  -6  14 -20    6.57    4.13
  -6  14 -20    6.73    3.38
  -6  14 -20    4.12    3.31
   8   6  20   13.27    3.92
 -14   8  20   16.13    4.63
  -8  -3 -20   -0.30    2.43
  -8  -3 -20   -0.01    2.47
  -3  11 -20    1.05    3.04
  -3  11 -20   -0.31    3.97
  -3  11 -20   -0.45    2.09
   8   3  20   -0.59    1.83
 -11   8  20    1.28    3.05
 -11   8  20    2.05    2.52
   0   8 -20   19.83    4.55
   0   8 -20   15.25    3.75
  -8   0 -20   25.52    5.34
   0  -8  20   37.46    4.56
   8   0  20   20.22    3.45
  -8   8  20   23.05    4.39
  -8   8  20   12.23    4.26
   3   5 -20   98.05   10.77
  -8   3 -20   74.31   12.26
  -8   3 -20   69.41    9.96
  -3  -5  20   75.00   10.50
  -5   8  20   92.79   10.76
   2  -8 -20    2.05    0.87
  -8   6 -20    2.98    2.13
  -8   6 -20   -1.28    2.07
  -6  -2  20    4.11    2.65
  -2   8  20    1.40    1.68
  -2   8  20    1.39    2.17
  -8   9 -20   65.84   10.26
  -8   9 -20   66.85    9.55
   1   8  20   65.35    9.13
  -9   1  20   73.59    9.90
   1   8  20   62.23    7.75
  -8  12 -20    5.59    3.37
  -4  -8 -20   15.08    4.45
  -8  12 -20    8.31    3.65
   4   8  20    3.93    2.83
 -12   4  20    6.87    3.72
  -8  15 -20   -2.27    2.75
 -15   7  20    3.65    3.48
   7   8  20    1.34    2.89
  -7  16 -20   -3.76    3.28
   9   7  20    1.27    2.95
 -16   9  20    8.48    4.08
  -4  13 -20    1.01    3.39
  -9  -4 -20    1.64    3.06
  -4  13 -20    3.14    4.04
  -4  13 -20   -2.60    1.97
 -13   9  20   -3.35    2.58
   9   4  20   -0.01    2.13
 -13   9  20   -0.49    2.59
  -9  -1 -20    5.00    3.20
  -1  10 -20   -1.84    1.83
  -1  10 -20   -0.34    2.53
   9   1  20    3.03    1.78
 -10   9  20    1.03    2.33
 -10   9  20    1.89    2.93
  -9   2 -20   10.83    2.36
   2   7 -20    9.72    3.28
  -9   2 -20   11.82    3.76
   2   7 -20    3.69    2.22
  -2  -7  20   13.21    3.16
  -7   9  20    4.66    2.75
  -7   9  20   11.41    3.75
  -9   5 -20    3.28    2.13
  -9   5 -20    2.55    2.60
  -5  -4  20   -0.76    1.83
  -4   9  20    1.41    2.00
  -9   8 -20   91.36   10.17
  -9   8 -20   64.55   11.01
  -1   9  20   62.07    9.62
  -1   9  20   69.01    8.84
  -8  -1  20   78.04   10.73
  -9  11 -20    3.33    3.13
  -2  -9 -20    2.45    4.18
  -9  11 -20    4.89    3.42
   2   9  20    6.00    3.13
 -11   2  20    8.11    3.39
  -9  14 -20   26.21    6.86
  -5  -9 -20   48.74    8.25
  -9  14 -20   49.97    8.20
 -14   5  20   27.68    6.74
   5   9  20   38.46    7.11
  -5  15 -20    5.53    3.56
  -5  15 -20    3.49    3.81
 -15  10  20    3.58    3.62
  10   5  20   -2.45    2.25
  -2  12 -20    2.42    4.85
  -2  12 -20   11.71    3.81
  -2  12 -20   12.88    4.45
 -10  -2 -20    6.68    3.87
 -12  10  20    7.06    4.29
 -12  10  20    8.48    3.74
  10   2  20   14.77    3.44
   1   9 -20    2.54    2.37
   1   9 -20   -2.62    2.58
 -10   1 -20    1.21    2.83
  10  -1  20    2.87    1.56
  -9  10  20    4.57    2.83
  -9  10  20    4.54    2.46
  -1  -9  20    1.95    2.07
 -10   4 -20   -0.17    1.83
 -10   4 -20    2.76    3.09
   4   6 -20    2.13    2.14
  -6  10  20    5.17    2.69
  -6  10  20    5.81    2.77
  -4  -6  20    5.10    2.89
 -10   7 -20   10.82    3.30
 -10   7 -20   11.15    4.08
  -7  -3  20   10.76    3.95
  -3  10  20   10.23    2.83
  -3  10  20    2.79    2.75
 -10  10 -20    2.16    2.86
 -10  10 -20    2.67    2.80
 -10   0  20   -1.11    2.86
   0  10  20   -2.31    2.01
 -10  13 -20    8.16    3.89
  -3 -10 -20    6.87    4.16
 -10  13 -20    1.59    3.34
   3  10  20    2.62    2.73
 -13   3  20    6.16    3.81
 -10  16 -20    7.33    4.51
   6  10  20    0.60    3.20
 -16   6  20   -1.84    3.06
 -11  -3 -20    7.72    4.29
  -3  14 -20    6.96    4.05
  -3  14 -20    1.93    3.28
 -14  11  20   12.57    4.20
 -14  11  20    6.39    4.49
  11   3  20   20.22    3.99
 -11   0 -20    4.64    3.47
   0  11 -20    1.62    2.82
   0  11 -20    3.35    2.73
 -11  11  20    0.39    2.74
 -11  11  20    1.42    2.46
   3   8 -20   -0.15    1.89
   3   8 -20    1.90    2.93
 -11   3 -20    2.11    1.69
 -11   3 -20   -4.68    2.03
  -8  11  20    0.23    1.71
  -8  11  20    2.76    2.65
  -3  -8  20    0.56    2.07
 -11   6 -20    1.54    2.30
 -11   6 -20   -1.39    2.65
   6   5 -20    1.28    2.45
  -6  -5  20   -0.52    2.29
  -5  11  20    3.30    2.51
 -11   9 -20    6.52    3.79
 -11   9 -20    0.86    2.96
  -2  11  20    9.37    3.57
  -2  11  20   14.50    3.08
  -9  -2  20   10.83    4.03
 -11  12 -20    1.69    3.20
  -1 -11 -20    1.03    4.76
 -11  12 -20   -0.80    2.83
 -12   1  20   -0.32    2.66
   1  11  20    0.47    2.73
 -11  15 -20    2.37    3.90
 -11  15 -20   -3.23    2.68
   4  11  20   -3.96    2.72
 -15   4  20   -1.75    3.23
  -1  13 -20    1.53    2.91
  -1  13 -20    4.64    3.20
 -12  -1 -20    0.10    3.39
 -13  12  20    2.66    2.95
 -13  12  20    6.14    4.13
   2  10 -20   11.06    3.80
   2  10 -20   11.81    3.90
 -12   2 -20   11.79    4.84
 -10  12  20   10.96    3.16
 -10  12  20    6.80    4.07
   5   7 -20    0.60    2.77
 -12   5 -20    0.40    2.69
   5   7 -20   -1.07    2.02
 -12   5 -20   -0.91    1.84
  -5  -7  20    1.83    2.52
  -7  12  20    0.99    2.52
  -7  12  20   -0.71    1.76
 -12   8 -20    8.99    3.79
   8   4 -20    7.50    3.23
 -12   8 -20    5.78    3.22
  -4  12  20    2.84    3.39
  -4  12  20   11.42    3.20
  -8  -4  20    4.81    3.28
 -12  11 -20   -6.30    2.49
 -12  11 -20   -4.85    2.62
  -1  12  20   -1.40    2.46
 -11  -1  20   -2.48    2.52
 -12  14 -20   -2.98    3.33
 -12  14 -20    3.91    3.70
 -14   2  20   -0.33    3.17
   2  12  20   -0.42    2.76
  -2  15 -20    2.41    2.85
  -2  15 -20   -1.45    3.61
 -13  -2 -20   -0.21    3.90
 -15  13  20    3.30    4.61
 -13   1 -20   -1.69    2.76
   1  12 -20    1.63    2.94
   1  12 -20    0.53    3.03
 -12  13  20    2.02    3.52
   4   9 -20   -0.69    3.04
   4   9 -20    5.07    3.07
 -13   4 -20    2.89    3.28
  -9  13  20   -0.05    2.91
  -4  -9  20    0.30    2.27
 -13   7 -20   35.17    6.34
 -13   7 -20   28.03    6.84
   7   6 -20   28.42    5.87
  -7  -6  20   29.41    5.87
  -6  13  20   21.92    5.41
  10   3 -20    7.54    3.32
 -13  10 -20   -1.09    2.92
 -13  10 -20    4.81    3.97
  -3  13  20    8.96    3.94
  -3  13  20    3.79    2.61
 -10  -3  20    4.22    3.31
 -13  13 -20   31.26    7.43
  13   0 -20   37.50    6.71
 -13  13 -20   32.45    7.37
   0  13  20   32.67    6.64
 -13   0  20   25.96    6.87
 -14   0 -20    2.50    4.34
   0  14 -20   -0.99    3.19
   0  14 -20    7.65    4.20
 -14  14  20    1.66    4.15
   3  11 -20    7.57    3.40
   3  11 -20   11.31    4.21
 -14   3 -20   13.83    5.36
 -11  14  20   -0.73    3.05
 -14   6 -20    6.20    3.21
   6   8 -20    2.94    2.97
 -14   6 -20    7.36    4.39
   6   8 -20    6.45    3.67
  -6  -8  20    4.42    3.21
  -8  14  20    6.17    3.76
 -14   9 -20   35.42    7.33
 -14   9 -20   40.69    8.80
   9   5 -20   24.63    6.12
  -5  14  20   44.69    7.08
  -9  -5  20   42.86    7.54
  12   2 -20   -4.70    2.26
 -14  12 -20    0.93    3.85
 -14  12 -20   -0.43    3.39
 -12  -2  20   -2.29    3.18
  -2  14  20    2.85    3.63
   2  13 -20    3.88    3.61
   2  13 -20   -2.15    3.76
 -15   2 -20    1.61    4.40
 -13  15  20   -5.10    2.90
   5  10 -20    2.02    2.82
   5  10 -20   -3.13    2.80
 -15   5 -20   -2.02    3.29
 -10  15  20    5.70    3.82
 -15   8 -20    5.29    4.11
   8   7 -20    3.73    3.09
 -15   8 -20    1.01    3.00
  -8  -7  20    1.07    3.20
  -7  15  20   -2.20    2.74
  11   4 -20    1.91    3.18
 -15  11 -20   -1.65    3.96
 -15  11 -20    2.15    3.49
  -4  15  20    5.45    3.93
 -11  -4  20    7.18    4.38
   4  12 -20   -5.95    2.94
   7   9 -20    8.30    4.19
 -16   7 -20    4.88    4.48
   7   9 -20    8.89    4.46
  -7  -9  20    2.65    3.61
  -9  16  20    2.01    3.65
 -16  10 -20    0.65    4.16
  10   6 -20    7.54    4.16
 -16  10 -20    0.60    3.84
  -6  16  20   -0.47    3.14
 -10  -6  20    3.97    3.77
  -1   2 -21   23.04    4.37
  -1  -1 -21   23.59    4.41
  -1   2 -21   20.54    3.55
  -2   1 -21   17.06    3.00
  -2   1 -21   21.17    4.33
  -2   1 -21   22.06    4.39
  -2   4 -21  136.72   17.15
  -2  -2 -21  135.61   19.59
  -2  -2 -21  154.68   18.65
  -2   4 -21  174.31   19.47
  -3   0 -21   -3.59    0.90
  -3   0 -21   -4.19    2.06
  -3   0 -21   -5.51    1.73
   0   3 -21   -1.19    1.66
  -3   3 -21    9.06    3.63
  -3   3 -21   -3.04    2.00
   0  -3 -21   10.29    3.00
  -3  -3 -21    6.76    3.10
  -3   6 -21    9.44    3.06
  -3   6 -21   13.68    4.02
  -3  -3 -21   11.07    2.92
  -6   3  21   13.16    3.21
  -1   5 -21   16.50    3.76
  -4  -1 -21   18.45    3.99
  -4  -1 -21    9.71    3.55
  -1   5 -21   23.50    3.67
  -5   4  21   16.67    3.71
  -4   2 -21  131.67   17.21
  -4   2 -21  139.73   15.30
  -4   2 -21  142.84   18.06
  -2  -2  21  128.96   15.81
  -1  -4 -21   34.06    4.96
  -4   5 -21   25.39    5.17
  -4   5 -21   32.64    4.80
  -4   5 -21   25.17    5.42
   1   4  21   24.57    4.53
  -5   1  21   32.80    5.11
  -4   8 -21   20.50    3.52
  -4   8 -21   18.25    4.54
  -4  -4 -21   16.58    4.15
  -4  -4 -21   22.53    5.42
  -4   8 -21   27.25    5.43
  -8   4  21   25.74    4.80
   4   4  21   26.05    4.35
  -5  -2 -21   43.76    7.97
  -2   7 -21   50.65    5.92
  -2   7 -21   40.92    6.53
  -5  -2 -21   39.43    6.83
   5   2  21   42.22    5.90
  -7   5  21   34.86    6.15
  -5   1 -21   18.63    4.30
  -5   1 -21   18.89    4.14
   1   4 -21   15.75    3.20
  -5   1 -21   13.30    2.47
  -4   5  21   18.28    3.44
  -1  -4  21   25.21    4.06
  -5   4 -21   32.41    5.02
  -5   4 -21   32.73    6.19
   1  -5 -21   43.01    5.65
  -5   4 -21   29.83    6.04
  -1   5  21   29.49    4.50
  -4  -1  21   34.60    5.60
  -5   7 -21    0.28    1.99
  -2  -5 -21    0.03    2.32
  -5   7 -21    2.18    2.51
  -5   7 -21   -0.03    1.07
  -2  -5 -21    2.03    1.61
   2   5  21   -1.39    1.61
  -7   2  21   -0.32    2.09
  -5  -5 -21    0.74    2.50
  -5  10 -21   -1.91    2.34
  -5  10 -21    1.14    1.84
  -5  10 -21    2.71    2.82
  -5  -5 -21   -1.43    1.93
 -10   5  21    1.54    2.44
   5   5  21    2.07    2.19
  -3   9 -21   60.61    7.53
  -3   9 -21   57.36    8.70
  -6  -3 -21   50.31    9.31
  -3   9 -21   64.02    9.37
  -6  -3 -21   55.98    8.78
   3  -9  21   53.68    6.94
   6   3  21   52.93    7.45
  -9   6  21   45.25    7.91
   0   6 -21    3.72    2.33
  -6   0 -21    0.42    2.03
  -6   0 -21    2.37    2.37
   0  -6  21    1.65    1.88
  -6   6  21   -1.95    1.87
  -6   6  21   -1.27    1.37
  -6   3 -21   14.63    2.85
  -6   3 -21   10.80    3.71
  -6   3 -21   12.25    3.55
  -3   6  21   16.30    3.07
  -3  -3  21   19.68    3.72
  -6   6 -21   -1.29    0.72
  -6   6 -21    1.08    2.10
  -6   6 -21   -0.15    1.77
   0  -6 -21    0.90    1.31
   0   6  21   -0.76    1.76
  -6   0  21    2.60    2.32
   0   6  21    1.39    1.13
  -6   9 -21   -0.79    3.39
  -6   9 -21    5.65    3.40
  -6   9 -21   12.78    2.37
  -3  -6 -21   13.02    2.91
  -3  -6 -21   15.52    4.72
   3   6  21    2.05    2.31
  -9   3  21    4.52    3.12
  -6  12 -21    0.98    1.87
  -6  -6 -21   -0.96    2.60
  -6  12 -21    1.30    2.41
  -6  -6 -21   -2.09    1.73
  -6  12 -21    0.49    2.70
 -12   6  21   -2.40    2.64
   6   6  21    0.98    2.33
  -4  11 -21   38.67    6.83
  -4  11 -21   40.02    7.42
  -4  11 -21   29.78    5.32
  -7  -4 -21   30.07    6.97
  -7  -4 -21   37.16    6.63
 -11   7  21   22.79    5.49
   7   4  21   32.29    5.38
  -7  -1 -21    6.58    3.27
  -1   8 -21    8.98    2.63
  -7  -1 -21    7.88    3.75
  -1   8 -21    3.49    2.77
   1  -8  21    7.34    2.28
  -8   7  21    5.98    2.87
   7   1  21    9.42    2.36
  -8   7  21    9.36    2.96
  -7   2 -21   45.99    7.82
  -7   2 -21   37.47    5.56
   2   5 -21   54.79    6.21
  -7   2 -21   46.93    8.36
  -5   7  21   44.83    6.72
  -2  -5  21   38.46    6.53
   2  -7 -21    0.80    1.19
  -7   5 -21    0.48    1.64
  -7   5 -21   -2.97    1.65
  -2   7  21   -2.64    1.13
  -5  -2  21   -0.29    1.69
  -7   8 -21   12.88    1.95
  -1  -7 -21   21.03    3.01
  -7   8 -21    3.63    3.01
  -7   8 -21    4.85    3.43
   1   7  21   12.12    2.21
   1   7  21    9.57    2.97
  -8   1  21   11.49    3.67
  -7  11 -21   19.70    3.40
  -4  -7 -21   29.67    4.46
  -4  -7 -21   11.67    5.27
  -7  11 -21   11.11    4.23
  -7  11 -21   15.05    4.60
 -11   4  21   20.02    4.94
   4   7  21   17.13    4.36
  -7  14 -21   -0.51    2.49
  -7  -7 -21    4.93    3.70
  -7  14 -21    6.87    3.83
   7   7  21    1.17    2.62
 -14   7  21   -2.23    2.94
  -5  13 -21    1.45    3.06
  -5  13 -21    3.95    2.65
  -8  -5 -21   -3.96    2.50
  -5  13 -21   -2.93    3.20
  -8  -5 -21   -1.39    2.65
 -13   8  21   -3.70    2.38
   8   5  21   -2.63    1.99
  -8  -2 -21    2.81    2.98
  -2  10 -21   -2.16    3.04
  -2  10 -21    0.76    2.21
  -8  -2 -21    1.86    2.84
 -10   8  21    0.90    2.54
   8   2  21    1.55    1.97
 -10   8  21    4.35    2.66
  -8   1 -21    8.56    3.63
  -8   1 -21    7.95    1.85
   1   7 -21    5.30    2.88
   1   7 -21    6.54    2.74
  -7   8  21   12.91    3.43
  -7   8  21    8.90    2.91
  -1  -7  21    8.25    2.58
  -8   4 -21   14.14    4.28
  -8   4 -21   21.09    3.72
  -4  -4  21   23.86    4.57
  -4   8  21   19.33    3.82
  -8   7 -21   12.48    3.37
  -8   7 -21   13.38    3.69
   1  -8 -21   10.01    1.88
  -1   8  21   11.09    3.33
  -1   8  21    8.01    2.38
  -7  -1  21    9.89    3.25
  -8  10 -21   15.61    4.55
  -8  10 -21   16.53    4.77
  -2  -8 -21   15.17    5.82
 -10   2  21   14.12    4.48
   2   8  21   15.32    4.17
  -8  13 -21    0.61    3.11
  -8  13 -21    0.94    3.29
  -5  -8 -21    1.43    3.13
 -13   5  21    3.04    3.05
   5   8  21    6.12    3.02
  -8  16 -21   -0.93    3.54
   8   8  21   -2.05    2.68
 -16   8  21    2.52    3.57
  -6  15 -21    1.93    3.49
  -6  15 -21    5.95    3.36
 -15   9  21   -5.35    2.19
   9   6  21    3.08    3.09
  -9  -3 -21   24.31    5.61
  -3  12 -21   16.82    5.62
  -3  12 -21   18.27    5.28
  -3  12 -21   19.51    4.55
   9   3  21   24.02    4.49
 -12   9  21   14.99    4.92
 -12   9  21   19.25    4.70
   0   9 -21    3.58    3.12
  -9   0 -21   -2.92    2.05
   0   9 -21    1.34    2.19
   9   0  21   -0.90    1.42
  -9   9  21    0.97    2.27
  -9   9  21   -0.83    2.05
   0  -9  21    0.87    1.84
  -9   3 -21   60.78    6.85
  -9   3 -21   40.49    8.40
   3   6 -21   51.09    7.50
  -6   9  21   43.70    7.74
  -3  -6  21   56.84    7.86
  -9   6 -21   10.36    3.82
  -9   6 -21    4.52    2.63
  -6  -3  21   11.99    3.59
  -3   9  21    9.72    2.79
  -9   9 -21    1.50    2.38
  -9   9 -21    3.87    3.24
   0   9  21    1.92    1.54
   0   9  21   -1.53    2.06
  -9   0  21    0.22    2.55
  -9  12 -21    4.49    3.21
  -3  -9 -21   -1.20    2.63
  -9  12 -21    1.91    2.87
   3   9  21   -0.86    2.54
 -12   3  21   -0.99    2.79
  -9  15 -21    3.43    3.67
  -9  15 -21    7.01    4.23
 -15   6  21    7.50    4.15
   6   9  21    4.80    3.27
  -4  14 -21   -2.97    2.48
  -4  14 -21   -1.72    3.22
 -10  -4 -21    0.85    2.99
 -14  10  21   -3.67    2.63
  10   4  21   -2.71    1.95
 -10  -1 -21   26.32    6.11
  -1  11 -21   18.67    5.23
  -1  11 -21   25.47    4.98
 -11  10  21   25.05    4.96
  10   1  21   25.97    4.38
 -11  10  21   14.83    4.78
 -10   2 -21    6.87    2.00
   2   8 -21    1.27    2.06
 -10   2 -21    0.19    3.03
   2   8 -21    2.55    2.85
  -8  10  21    2.30    2.20
  -8  10  21    0.55    2.40
  -2  -8  21    1.34    2.28
   5   5 -21    0.19    1.86
 -10   5 -21    0.67    1.95
 -10   5 -21   -0.26    2.34
  -5  10  21    0.94    1.96
  -5  -5  21    1.87    2.40
 -10   8 -21   10.91    4.62
 -10   8 -21   11.73    3.86
  -8  -2  21   12.57    4.28
  -2  10  21   18.28    3.48
  -2  10  21   20.10    4.68
 -10  11 -21    7.30    3.51
 -10  11 -21   14.40    4.67
  -1 -10 -21   14.18    5.21
   1  10  21    7.08    3.63
 -11   1  21    7.37    3.98
 -10  14 -21    0.23    3.09
  -4 -10 -21   -0.15    3.11
 -10  14 -21   -0.18    3.02
   4  10  21    1.31    2.88
 -14   4  21    1.95    3.07
  -5  16 -21   -0.90    3.28
  -5  16 -21   -6.02    3.62
  11   5  21    4.39    3.33
 -16  11  21    0.49    3.43
  -2  13 -21    3.02    3.09
 -11  -2 -21   -1.58    3.01
  -2  13 -21   12.93    4.59
  -2  13 -21   -9.17    4.09
 -13  11  21   -2.38    3.30
  11   2  21    0.32    2.24
 -13  11  21   -0.44    2.55
   1  10 -21   26.98    5.44
 -11   1 -21   30.94    6.96
   1  10 -21   20.24    5.61
 -10  11  21   35.92    5.61
 -10  11  21   25.40    6.23
   4   7 -21   25.37    5.66
   4   7 -21   42.69    6.12
 -11   4 -21   22.72    4.68
 -11   4 -21   30.24    6.67
  -7  11  21   18.82    5.11
  -4  -7  21   27.33    5.38
  -7  11  21   37.34    5.28
   7   4 -21   12.45    3.57
 -11   7 -21   16.35    4.97
 -11   7 -21   20.17    4.45
  -7  -4  21   14.20    4.22
  -4  11  21   13.29    3.62
 -11  10 -21   16.83    4.50
 -11  10 -21   19.04    5.10
 -10  -1  21    9.90    4.28
  -1  11  21    9.23    4.10
  -2 -11 -21   -4.13    3.35
 -11  13 -21   -2.83    2.40
 -11  13 -21    0.69    2.91
 -13   2  21    3.30    3.42
   2  11  21    0.54    2.95
 -11  16 -21   -1.37    3.28
   5  11  21    3.40    3.50
 -16   5  21    3.89    3.87
 -12  -3 -21    7.24    4.96
  -3  15 -21   17.54    5.59
  -3  15 -21   19.60    4.71
 -15  12  21    7.62    4.95
 -15  12  21   10.05    4.10
 -12   0 -21    1.57    3.03
   0  12 -21    0.77    2.66
   0  12 -21   -1.42    2.37
 -12  12  21    1.97    3.55
 -12  12  21   -3.92    2.29
 -12   3 -21   20.48    6.19
   3   9 -21   17.54    5.01
   3   9 -21   20.50    4.45
  -9  12  21   17.44    5.00
  -3  -9  21   12.53    3.77
  -9  12  21   19.65    4.07
 -12   6 -21    3.58    2.39
 -12   6 -21    4.71    3.62
   6   6 -21    2.76    2.59
  -6  -6  21   -1.14    2.32
  -6  12  21   -2.56    2.39
  -6  12  21    4.41    2.96
 -12   9 -21    2.88    3.03
 -12   9 -21    2.21    3.30
   9   3 -21   -1.30    2.01
  -9  -3  21    3.20    3.11
  -3  12  21    1.87    3.03
  -3  12  21    2.71    2.28
 -12  12 -21    0.00    3.06
   0 -12 -21   -1.91    4.34
 -12  12 -21   -0.93    3.19
   0  12  21   -2.18    2.20
 -12   0  21   -0.94    2.85
 -12  15 -21    1.44    4.44
 -12  15 -21    4.68    4.09
   3  12  21    2.67    3.68
 -15   3  21    2.82    3.37
  -1  14 -21    5.56    3.78
  -1  14 -21    3.00    3.24
 -13  -1 -21    4.44    4.23
 -14  13  21    8.50    4.63
 -13   2 -21    3.20    3.76
   2  11 -21   -0.24    2.85
   2  11 -21   -1.67    2.51
 -11  13  21    4.50    3.77
 -13   5 -21    3.50    4.11
   5   8 -21    0.53    2.50
   5   8 -21    4.28    3.27
 -13   5 -21    3.74    2.42
  -5  -8  21   -3.25    2.06
  -8  13  21   -0.20    2.56
   8   5 -21    6.56    3.30
 -13   8 -21   -0.45    2.83
 -13   8 -21    2.66    3.76
  -8  -5  21    2.50    3.15
  -5  13  21   -2.22    2.06
 -13  11 -21   -0.29    3.53
  11   2 -21   -0.18    2.67
 -13  11 -21   -6.23    2.43
  -2  13  21   -4.43    2.49
 -11  -2  21   -1.75    2.92
 -13  14 -21    2.00    3.85
 -13  14 -21    4.19    3.93
   1  13  21    1.85    3.74
 -14   1  21    4.32    3.57
 -14   1 -21    2.43    4.14
   1  13 -21    5.13    3.85
   1  13 -21   -0.36    3.06
 -13  14  21    6.82    4.04
 -14   4 -21   -4.52    2.61
   4  10 -21   -2.42    2.87
   4  10 -21   -4.93    2.39
 -10  14  21    5.85    3.53
 -14   7 -21    4.59    3.80
 -14   7 -21    1.44    2.73
   7   7 -21    2.48    3.01
  -7  14  21    1.73    2.97
  -7  -7  21    5.69    3.30
 -14  10 -21   -0.85    2.95
  10   4 -21   -0.56    2.63
 -14  10 -21    4.02    4.19
  -4  14  21    2.86    3.40
  -4  14  21   -0.13    2.31
 -10  -4  21   -1.93    2.68
 -14  13 -21   -1.02    4.06
  13   1 -21    1.34    2.81
 -14  13 -21   -6.92    2.75
 -13  -1  21    4.91    3.97
  -1  14  21    2.70    3.66
   3  12 -21   11.50    4.66
 -15   3 -21   10.29    5.51
   3  12 -21   10.39    4.54
 -12  15  21   16.27    5.28
 -15   6 -21    1.63    3.85
   6   9 -21    7.14    3.64
   6   9 -21    4.55    3.64
  -9  15  21    3.63    3.55
  -6  -9  21    8.74    3.69
 -15   9 -21    8.16    5.15
 -15   9 -21    4.09    4.00
   9   6 -21    4.32    3.10
  -9  -6  21    4.56    4.05
  -6  15  21   12.74    4.28
  12   3 -21   -0.97    2.81
 -15  12 -21    7.31    4.77
 -15  12 -21    2.84    4.28
 -12  -3  21    3.96    4.21
  -3  15  21   -2.42    3.41
   5  11 -21    4.16    4.01
   5  11 -21   -2.90    3.56
 -16   5 -21   -3.53    3.45
 -11  16  21    5.64    3.99
   8   8 -21   -0.26    3.60
   8   8 -21    0.61    3.34
 -16   8 -21   -2.48    3.70
  -8  -8  21   -3.66    2.77
  -8  16  21   -0.21    3.04
  11   5 -21   -0.88    3.41
 -16  11 -21   -1.71    3.34
 -16  11 -21    1.11    4.07
 -11  -5  21    1.72    4.04
  -1   0 -22   63.99    9.16
  -2  -1 -22   13.05    4.06
  -2  -1 -22   18.18    4.23
  -2  -1 -22   17.42    2.50
  -1   3 -22   23.18    3.83
  -1   3 -22   15.80    3.68
  -2   2 -22    0.09    1.96
  -2   2 -22    5.83    2.30
  -3  -2 -22    4.53    2.69
  -2   5 -22    3.48    2.03
  -2   5 -22    0.79    1.97
  -3  -2 -22    3.91    2.09
  -5   3  22   -0.58    1.89
  -3   1 -22   11.73    3.73
  -3   1 -22   16.88    2.74
  -3   1 -22   16.86    4.19
  -3   4 -22    2.89    2.00
  -3   4 -22    5.29    2.82
  -1  -3 -22    7.12    2.50
  -3   4 -22    4.61    2.34
  -4   1  22    4.00    2.35
  -3   7 -22   13.85    4.57
  -4  -3 -22   13.10    4.30
  -4  -3 -22   20.49    4.07
  -3   7 -22   17.23    3.85
  -3   7 -22   16.41    3.04
   4   3  22   15.58    3.42
  -7   4  22   16.22    3.81
  -4   0 -22   27.80    4.00
  -4   0 -22   40.39    6.23
   0   4 -22   45.33    5.38
   0   4 -22   34.19    5.43
  -4   0 -22   41.81    6.97
  -4   3 -22    7.45    2.86
  -4   3 -22    2.67    1.72
  -4   3 -22    5.10    2.69
  -3  -1  22    3.33    2.47
  -4   6 -22    1.35    2.53
  -2  -4 -22    3.27    3.19
  -4   6 -22    7.28    4.06
  -2  -4 -22   -0.33    1.72
  -6   2  22    3.63    2.64
   2   4  22    2.18    1.94
  -5  -4 -22   -7.26    2.65
  -4   9 -22   -0.94    1.54
  -4   9 -22   -6.06    2.51
  -5  -4 -22   -0.76    2.00
  -4   9 -22   16.91    5.40
  -9   5  22   -2.09    1.85
   5   4  22    0.94    1.88
  -1   6 -22   39.44    6.31
  -5  -1 -22   45.61    8.33
  -5  -1 -22   45.96    7.32
  -1   6 -22   55.55    7.40
   5   1  22   48.48    6.10
  -6   5  22   44.32    6.84
  -5   2 -22    4.42    2.51
  -5   2 -22    3.80    1.44
  -5   2 -22    4.41    2.53
  -2  -3  22    0.45    2.08
  -5   5 -22  128.79   14.16
  -5   5 -22  111.56   15.59
   0  -5 -22  113.33   14.87
  -5   0  22  132.86   14.62
  -3  -5 -22    0.30    1.64
  -5   8 -22   -7.19    2.33
  -5   8 -22    5.11    1.61
  -3  -5 -22   -3.55    2.81
  -5   8 -22    5.16    2.75
  -8   3  22    0.36    2.37
   3   5  22    0.71    2.03
  -5  11 -22    3.22    3.66
  -5  11 -22   17.27    3.26
  -6  -5 -22    8.61    3.15
  -6  -5 -22    4.98    3.54
  -5  11 -22    6.87    3.73
   6   5  22    6.25    2.77
 -11   6  22    2.45    3.00
  -2   8 -22    3.18    2.60
  -6  -2 -22    0.40    2.39
  -6  -2 -22   -3.33    1.73
  -2   8 -22    0.83    1.65
   2  -8  22    2.13    1.77
   6   2  22    2.99    1.96
  -8   6  22    2.96    2.39
  -6   1 -22   42.06    7.39
   1   5 -22   43.45    6.83
  -6   1 -22   43.71    7.96
   1   5 -22   43.18    6.19
  -6   1 -22   45.25    5.32
  -5   6  22   42.18    6.49
  -1  -5  22   51.33    6.72
  -6   4 -22    2.25    1.69
  -6   4 -22   -0.83    2.04
  -6   4 -22    1.65    2.39
  -4  -2  22   -0.67    2.14
  -2   6  22    2.23    1.43
  -6   7 -22    0.98    2.44
  -6   7 -22   -0.22    0.91
  -6   7 -22   -2.56    1.65
  -1  -6 -22    0.75    1.35
   1   6  22    0.58    1.92
  -7   1  22   -0.16    2.24
   1   6  22    0.48    0.91
  -6  10 -22   24.88    5.46
  -6  10 -22   15.84    5.18
  -6  10 -22   31.16    4.25
  -4  -6 -22   17.79    5.70
  -4  -6 -22   26.46    4.77
   4   6  22   26.35    4.97
 -10   4  22   30.88    5.72
  -7  -6 -22   -4.51    2.89
  -6  13 -22    3.77    3.66
  -7  -6 -22   -1.18    2.44
  -6  13 -22   -3.03    2.79
  -6  13 -22    2.43    2.49
 -13   7  22    1.53    2.98
   7   6  22    0.35    2.52
  -7  -3 -22    3.89    3.04
  -3  10 -22    0.59    1.78
  -3  10 -22   -1.07    3.31
  -3  10 -22   16.01    5.01
  -7  -3 -22    2.63    3.51
   7   3  22    5.38    2.31
 -10   7  22    1.58    2.62
   0   7 -22   -0.50    2.68
  -7   0 -22   -0.97    2.19
  -7   0 -22    2.22    2.75
   0   7 -22   -3.12    1.38
   0  -7  22   -0.65    1.60
   7   0  22    0.17    1.41
  -7   7  22    3.75    2.23
  -7   7  22   -1.28    2.03
  -7   3 -22   14.91    4.16
  -7   3 -22   12.81    2.79
  -3  -4  22   14.35    3.54
  -4   7  22   17.23    3.43
   1  -7 -22    1.81    1.05
  -7   6 -22    0.28    1.85
  -7   6 -22    1.74    2.14
  -1   7  22   -0.71    1.78
  -1   7  22    0.85    1.33
  -6  -1  22    0.76    2.19
  -7   9 -22    5.43    3.11
  -7   9 -22   -1.31    2.19
  -2  -7 -22   -0.97    1.41
  -2  -7 -22    1.04    3.29
  -7   9 -22    1.10    1.15
  -9   2  22    0.93    2.53
   2   7  22    3.62    2.37
  -5  -7 -22    5.96    3.54
  -7  12 -22    4.49    3.25
  -7  12 -22    3.88    3.35
  -5  -7 -22    0.97    2.01
 -12   5  22   -2.42    2.58
   5   7  22    4.44    2.82
  -7  15 -22    9.67    5.02
 -15   8  22    4.99    3.74
   8   7  22    9.83    3.66
  -8  -4 -22    0.24    2.82
  -8  -4 -22    0.85    2.56
  -4  12 -22   -0.07    3.37
  -4  12 -22    0.67    2.56
  -4  12 -22    4.42    2.65
   8   4  22   -0.48    1.92
 -12   8  22   -1.79    2.35
  -1   9 -22   -0.87    2.59
  -1   9 -22   -0.96    1.88
  -8  -1 -22    1.12    2.75
  -8  -1 -22    6.90    3.43
   1  -9  22   -0.38    1.68
   8   1  22    1.67    1.67
  -9   8  22   -0.76    2.39
  -9   8  22    2.30    2.26
   2   6 -22    5.07    2.64
  -8   2 -22    3.57    1.47
  -8   2 -22   -2.84    2.18
   2   6 -22    1.29    1.95
  -2  -6  22    4.28    2.25
  -6   8  22    3.50    2.63
  -6   8  22    6.81    2.65
  -8   5 -22    2.98    2.07
  -8   5 -22   -0.52    2.51
   3  -8 -22    2.56    1.78
  -5  -3  22    0.23    2.17
  -3   8  22    2.25    1.69
  -8   8 -22   14.87    4.55
  -8   8 -22   10.22    3.28
  -8   0  22    5.54    3.33
   0   8  22   15.00    3.94
   0   8  22   15.00    2.72
  -3  -8 -22   15.43    5.21
  -8  11 -22   10.83    4.27
  -8  11 -22   18.22    4.94
   3   8  22   11.77    4.02
 -11   3  22   19.82    5.17
  -6  -8 -22    2.36    3.36
  -8  14 -22    2.92    3.45
  -8  14 -22    2.94    3.33
   6   8  22    2.01    2.90
 -14   6  22   -3.51    2.93
  -5  14 -22    2.88    2.81
  -9  -5 -22   -0.17    2.99
  -5  14 -22   -0.77    2.94
  -5  14 -22   -2.07    3.11
   9   5  22    0.99    2.49
 -14   9  22    2.92    3.48
  -2  11 -22    4.93    3.21
  -2  11 -22   13.18    3.34
  -9  -2 -22    7.77    3.66
 -11   9  22   13.45    3.78
   9   2  22   15.19    3.42
 -11   9  22    2.83    3.37
   1   8 -22   -0.49    1.88
  -9   1 -22    5.81    3.11
   1   8 -22   -0.20    2.69
   9  -1  22   -1.50    1.27
  -8   9  22    1.19    2.56
  -1  -8  22    7.53    2.41
  -8   9  22    3.58    2.28
  -9   4 -22    1.53    2.65
  -9   4 -22    0.68    1.44
  -4  -5  22   -3.78    1.74
  -5   9  22   -0.54    1.96
  -9   7 -22   -0.49    2.55
  -9   7 -22    2.00    2.30
  -2   9  22   -0.22    2.45
  -7  -2  22   -0.52    2.37
  -2   9  22    0.67    1.54
  -1  -9 -22   14.18    4.90
  -9  10 -22    3.92    2.90
  -9  10 -22    3.27    2.92
   1   9  22   -2.34    2.11
 -10   1  22   -4.28    2.33
  -4  -9 -22    0.51    3.47
  -9  13 -22    0.43    3.32
  -9  13 -22    2.05    3.34
   4   9  22    2.49    3.04
 -13   4  22    0.35    2.84
  -9  16 -22    3.12    4.41
   7   9  22    3.00    3.14
 -16   7  22    2.60    3.83
  -6  16 -22    5.89    4.62
  10   6  22   -0.10    2.78
 -16  10  22   -2.30    2.75
  -3  13 -22   -0.50    2.88
  -3  13 -22   -0.79    4.01
  -3  13 -22   -0.26    2.59
 -10  -3 -22    2.17    3.16
  10   3  22    0.20    2.27
 -13  10  22   -1.11    2.78
 -13  10  22    0.20    2.75
 -10   0 -22   10.06    4.38
   0  10 -22   13.91    4.43
   0  10 -22    9.95    3.49
 -10  10  22   16.33    4.06
 -10  10  22   10.92    4.30
  10   0  22   20.93    3.42
 -10   3 -22    2.83    3.15
 -10   3 -22    3.12    1.71
   3   7 -22    2.26    2.93
   3   7 -22   -2.88    1.91
  -7  10  22    2.71    2.55
  -7  10  22   -0.74    2.31
  -3  -7  22   -0.27    2.32
 -10   6 -22   24.14    4.78
 -10   6 -22   25.48    6.02
  -6  -4  22   22.44    5.01
  -4  10  22   25.69    4.72
 -10   9 -22    0.31    2.59
 -10   9 -22   -1.02    2.56
  -1  10  22    3.64    2.48
  -1  10  22   -0.23    1.59
  -9  -1  22   -0.53    2.68
  -2 -10 -22    4.07    4.23
 -10  12 -22    3.38    3.35
 -10  12 -22    3.71    3.18
   2  10  22    4.60    3.22
 -12   2  22    5.53    3.77
 -10  15 -22   -1.39    3.01
 -10  15 -22   -3.11    3.16
 -15   5  22    4.09    3.48
   5  10  22    1.42    3.12
  -4  15 -22    4.48    3.20
 -11  -4 -22   -3.06    3.16
  -4  15 -22    3.46    4.17
 -15  11  22   -4.61    2.67
  11   4  22   -0.23    2.63
  -1  12 -22    1.62    2.72
  -1  12 -22   -1.37    3.27
 -11  -1 -22    1.60    3.18
 -12  11  22   -2.00    3.11
 -12  11  22   -0.63    2.43
   2   9 -22    7.48    3.76
 -11   2 -22    8.75    3.99
   2   9 -22    5.13    3.02
  -9  11  22   15.06    4.31
  -9  11  22   13.39    3.43
  -2  -9  22    6.50    2.97
 -11   5 -22   -0.07    2.59
   5   6 -22    6.99    2.92
 -11   5 -22    5.16    2.50
  -6  11  22    5.70    2.93
  -5  -6  22    5.36    3.05
  -6  11  22   11.59    3.33
 -11   8 -22   11.67    4.51
 -11   8 -22   20.32    4.74
  -3  11  22   20.53    4.12
  -3  11  22   14.81    4.34
  -8  -3  22   15.41    4.44
 -11  11 -22    3.44    3.36
 -11  11 -22   -0.18    2.69
 -11   0  22    3.40    3.51
   0  11  22    0.26    3.03
 -11  14 -22    8.59    4.29
 -11  14 -22    6.18    4.20
 -14   3  22    4.25    3.92
   3  11  22    9.69    3.71
 -12  -2 -22    1.39    3.88
  -2  14 -22    2.10    2.89
  -2  14 -22    3.59    3.77
 -14  12  22   -4.66    2.75
 -14  12  22    0.42    3.77
   1  11 -22    3.34    3.46
 -12   1 -22    1.91    3.36
   1  11 -22    2.55    2.80
 -11  12  22   -0.73    2.21
 -11  12  22   -1.27    3.03
   4   8 -22    2.18    2.54
 -12   4 -22   -1.75    2.71
   4   8 -22    0.08    2.90
  -8  12  22    2.47    2.02
  -4  -8  22    1.98    2.75
  -8  12  22   -0.05    2.59
 -12   7 -22   -1.87    2.93
   7   5 -22    3.90    2.90
 -12   7 -22    4.58    2.92
  -5  12  22    0.70    2.38
  -7  -5  22    1.42    2.66
 -12  10 -22   -0.99    3.14
 -12  10 -22   -0.53    2.86
 -10  -2  22    6.85    3.76
  -2  12  22    4.90    3.24
 -12  13 -22    3.23    3.65
  -1 -12 -22   -1.16    4.67
 -12  13 -22    1.59    3.89
 -13   1  22    2.22    3.00
   1  12  22    4.84    3.47
   0  13 -22    1.89    3.22
 -13   0 -22    5.32    4.01
   0  13 -22    0.75    3.56
 -13  13  22   -0.05    3.64
 -13   3 -22    2.07    3.89
   3  10 -22   -2.33    2.27
   3  10 -22   -1.99    2.79
 -10  13  22    0.24    2.88
 -13   6 -22   -1.26    2.95
 -13   6 -22    1.51    2.23
   6   7 -22    1.63    2.79
  -7  13  22    1.14    2.59
  -6  -7  22   -2.45    2.41
   9   4 -22    3.67    3.04
 -13   9 -22    1.21    3.36
 -13   9 -22    7.02    3.74
  -4  13  22   -0.44    2.17
  -9  -4  22    0.46    2.81
  12   1 -22    0.46    2.64
 -13  12 -22   -1.85    3.23
 -13  12 -22    2.99    3.95
  -1  13  22    2.22    2.74
 -12  -1  22    1.44    3.45
 -13  15 -22    3.13    4.08
 -13  15 -22   15.34    5.63
   2  13  22    9.95    4.68
 -15   2  22    4.18    4.30
   2  12 -22    2.06    3.54
   2  12 -22   -0.18    2.96
 -14   2 -22   -1.95    3.32
 -12  14  22    1.86    3.38
   5   9 -22    2.14    2.92
   5   9 -22    4.81    3.22
 -14   5 -22    0.96    3.75
  -5  -9  22    1.62    3.01
  -9  14  22    0.66    3.18
   8   6 -22    0.08    2.89
 -14   8 -22    5.10    4.38
 -14   8 -22    3.65    3.39
  -6  14  22    2.24    2.89
  -8  -6  22    1.44    3.14
 -14  11 -22   -0.26    3.36
 -14  11 -22    3.86    4.46
  11   3 -22    8.83    3.69
  -3  14  22    2.24    3.89
 -11  -3  22    5.61    3.82
 -14  14 -22    3.37    3.99
  14   0 -22   -0.26    2.93
 -14  14 -22   12.34    5.57
 -14   0  22   13.82    5.32
   0  14  22   -0.08    4.15
   4  11 -22    2.68    3.21
 -15   4 -22   -3.51    3.09
   4  11 -22   -0.50    3.19
 -11  15  22    3.77    3.78
   7   8 -22    8.29    3.86
 -15   7 -22   11.22    5.00
   7   8 -22   18.38    5.19
  -7  -8  22    3.30    3.80
  -8  15  22    8.04    4.34
  10   5 -22    3.59    3.41
 -15  10 -22    2.79    3.83
 -15  10 -22    3.55    4.15
 -10  -5  22    2.27    3.23
  -5  15  22   -0.61    2.78
 -15  13 -22    1.33    4.51
 -15  13 -22   -1.91    3.63
  13   2 -22    0.14    3.41
 -13  -2  22    2.96    4.37
  -2  15  22    4.22    4.53
   6  10 -22   -0.62    3.48
 -16   6 -22    1.60    3.80
   6  10 -22   -0.73    3.89
 -10  16  22   -1.62    3.50
 -16   9 -22    2.24    4.64
   9   7 -22    2.91    3.48
 -16   9 -22    4.45    4.19
  -7  16  22    6.01    4.09
  -9  -7  22    0.77    3.49
  -1   1 -23    3.16    2.85
  -2   0 -23   -0.12    2.36
  -2   0 -23    0.75    1.21
  -2   0 -23    0.13    2.50
   0   2 -23   -0.95    2.02
  -1  -2 -23    1.50    2.47
  -2   3 -23    5.28    2.12
  -2   3 -23    8.32    2.84
  -3  -1 -23    4.80    2.43
  -3  -1 -23    1.54    2.57
  -1   4 -23    3.29    1.99
  -1   4 -23    2.28    1.92
  -3  -1 -23    4.45    0.93
  -3   2 -23    5.37    1.82
  -3   2 -23    7.29    2.65
  -3   2 -23    1.44    2.80
  -2  -3 -23   16.30    4.09
  -3   5 -23    3.99    2.40
  -2  -3 -23   10.74    2.79
  -3   5 -23    7.87    2.82
  -3   5 -23    5.48    3.10
  -5   2  23    7.44    2.90
  -2   6 -23   24.08    4.90
  -4  -2 -23   27.34    5.93
  -4  -2 -23   32.46    5.55
  -2   6 -23   31.14    5.53
  -6   4  23   32.74    5.58
  -4   1 -23    5.18    2.91
  -4   1 -23    6.43    2.60
   1   3 -23   -0.18    1.91
  -4   1 -23    4.16    1.40
  -4   4 -23   -1.38    1.77
  -4   4 -23    1.46    1.63
   0  -4 -23   -1.95    1.81
  -4   4 -23   -1.55    2.25
  -4   0  23    1.05    2.23
  -4   7 -23    0.50    1.36
  -4   7 -23    3.62    2.57
  -3  -4 -23    4.44    2.76
  -4   7 -23    1.29    3.13
  -3  -4 -23    5.11    2.15
  -7   3  23   -1.66    2.05
   3   4  23    3.41    2.19
  -3   8 -23    0.04    2.62
  -3   8 -23    3.03    1.75
  -3   8 -23   -0.29    3.39
  -5  -3 -23   -5.22    1.53
  -5  -3 -23    1.57    2.59
  -8   5  23    0.30    1.86
   5   3  23    1.23    1.91
   0   5 -23   -0.33    1.36
   0   5 -23    2.30    2.54
  -5   0 -23    0.80    2.38
  -5   0 -23   -2.60    2.18
  -5   0 -23   -0.54    0.57
  -5   3 -23    9.86    2.39
  -5   3 -23    9.24    3.19
  -5   3 -23    9.47    3.50
  -3  -2  23   13.29    3.23
  -5   6 -23   26.28    5.26
  -1  -5 -23   28.82    4.39
  -5   6 -23   20.55    4.42
   1   5  23   25.79    4.72
  -6   1  23   19.50    4.43
  -5   9 -23   24.84    6.00
  -5   9 -23   21.43    3.53
  -4  -5 -23   14.93    4.84
  -5   9 -23   10.81    4.36
  -4  -5 -23   20.67    4.21
   4   5  23   19.61    4.03
  -9   4  23   17.94    4.38
  -4  10 -23   26.04    4.33
  -4  10 -23   17.67    5.49
  -6  -4 -23   26.08    5.41
  -6  -4 -23   22.44    5.88
  -4  10 -23   20.39    6.56
 -10   6  23   20.09    4.89
   6   4  23   20.91    4.35
  -1   7 -23    1.12    2.80
  -6  -1 -23    0.93    2.47
  -1   7 -23   -0.79    1.53
  -6  -1 -23    0.10    2.23
  -7   6  23   -1.07    2.15
   6   1  23    3.99    1.93
   1  -7  23   -1.29    1.72
  -6   2 -23   29.54    6.35
  -6   2 -23   25.01    5.78
   2   4 -23   41.83    5.52
  -6   2 -23   26.62    4.36
  -2  -4  23   38.54    5.83
  -4   6  23   32.87    5.14
  -6   5 -23   26.40    4.59
   1  -6 -23   21.44    4.28
  -6   5 -23   26.85    5.67
  -5  -1  23   28.13    5.24
  -1   6  23   35.31    4.27
  -2  -6 -23    2.02    1.63
  -2  -6 -23   -0.24    3.15
  -6   8 -23    1.19    1.22
  -6   8 -23   -0.14    1.87
  -6   8 -23    0.28    2.38
   2   6  23   -2.23    1.91
  -8   2  23   -0.50    2.27
  -6  11 -23    1.75    2.93
  -6  11 -23    3.17    2.20
  -5  -6 -23    4.21    2.27
  -5  -6 -23    1.86    3.82
  -6  11 -23    1.14    3.50
 -11   5  23   -1.61    2.40
   5   6  23    4.84    2.74
  -5  12 -23   11.28    3.28
  -7  -5 -23   10.00    3.65
  -7  -5 -23    9.98    4.34
  -5  12 -23   14.12    4.21
  -5  12 -23    1.78    3.62
 -12   7  23   12.06    3.92
   7   5  23    8.21    3.24
  -2   9 -23    2.57    2.12
  -7  -2 -23    2.80    3.23
  -7  -2 -23   -4.46    1.84
  -2   9 -23   -0.99    2.72
  -9   7  23    2.50    2.40
   7   2  23    0.74    1.87
   2  -9  23   -0.18    1.51
   1   6 -23    9.84    3.26
  -7   1 -23    1.49    1.04
   1   6 -23   -0.35    1.26
  -7   1 -23   -0.30    2.34
  -7   1 -23    1.57    2.37
  -6   7  23    1.23    1.94
  -1  -6  23   -0.25    1.73
  -6   7  23    7.39    2.91
  -7   4 -23    3.18    1.92
  -7   4 -23    7.30    3.38
  -4  -3  23    0.44    2.05
  -3   7  23    5.22    2.06
   0  -7 -23    2.35    1.38
  -7   7 -23    0.09    2.39
  -7   7 -23    0.20    0.72
  -7   7 -23    0.17    2.01
   0   7  23   -0.93    2.24
   0   7  23   -0.18    1.16
  -7   0  23   -1.10    1.94
  -3  -7 -23    4.89    2.12
  -3  -7 -23   -2.04    3.30
  -7  10 -23   10.44    2.21
  -7  10 -23    5.05    3.21
  -7  10 -23    5.14    3.32
 -10   3  23   10.24    3.54
   3   7  23    4.52    2.73
  -7  13 -23    1.47    2.99
  -7  13 -23    1.20    3.23
  -6  -7 -23    1.26    3.47
 -13   6  23   -0.24    2.85
   6   7  23   -4.73    2.30
  -6  14 -23    2.34    2.89
  -6  14 -23    3.07    2.97
  -8  -6 -23   -1.17    3.07
  -8  -6 -23   -2.78    2.65
  -6  14 -23    0.25    3.22
 -14   8  23    1.49    3.19
   8   6  23    0.04    2.27
  -3  11 -23   -5.33    3.45
  -3  11 -23    2.14    2.30
  -8  -3 -23   -1.77    2.35
  -3  11 -23    0.80    3.23
  -8  -3 -23    2.04    2.69
 -11   8  23    3.12    2.54
   8   3  23   -0.99    1.73
  -8   0 -23    0.30    2.18
  -8   0 -23    3.64    2.97
   0   8 -23   -2.45    1.67
   0   8 -23    2.85    3.12
  -8   8  23    1.58    2.36
  -8   8  23   -2.29    1.88
   0  -8  23    1.61    2.10
   8   0  23   -0.17    1.43
  -8   3 -23    0.27    2.37
  -8   3 -23   -1.32    1.19
   3   5 -23    2.78    1.25
  -5   8  23    1.06    1.97
  -3  -5  23    1.95    2.26
  -8   6 -23   -1.81    1.66
   2  -8 -23    2.07    0.99
  -8   6 -23    0.03    2.26
  -6  -2  23    3.10    2.60
  -2   8  23   -2.09    1.46
  -8   9 -23    1.53    2.54
  -8   9 -23   -0.33    2.99
   1   8  23    2.96    2.48
  -9   1  23    2.18    2.75
  -8  12 -23   -0.58    2.58
  -8  12 -23    0.63    3.20
  -4  -8 -23   -4.04    2.62
   4   8  23    3.23    2.93
 -12   4  23    2.06    3.47
  -7  -8 -23    0.27    3.47
  -8  15 -23   -0.74    3.70
   7   8  23    4.81    3.21
 -15   7  23    1.38    3.50
  -7  16 -23    4.34    4.58
   9   7  23    2.76    3.19
 -16   9  23    8.46    4.17
  -9  -4 -23   -0.36    3.03
  -4  13 -23    3.87    3.39
  -4  13 -23    1.35    2.40
  -4  13 -23    2.57    3.88
 -13   9  23    0.73    3.03
   9   4  23    4.22    2.57
  -1  10 -23    1.79    2.44
  -1  10 -23    3.58    3.23
  -9  -1 -23    1.03    2.86
 -10   9  23    0.06    2.50
 -10   9  23    1.89    2.63
   9   1  23    8.60    2.54
   2   7 -23    0.09    2.73
   2   7 -23   -1.18    1.62
  -9   2 -23    0.87    1.23
  -9   2 -23   -1.42    2.62
  -2  -7  23    1.01    2.01
  -7   9  23    1.42    2.37
  -7   9  23    3.06    2.55
  -9   5 -23   17.74    3.68
  -9   5 -23   17.17    5.08
  -5  -4  23   14.14    4.02
  -4   9  23   13.84    3.52
  -9   8 -23    2.17    2.73
  -9   8 -23    3.05    3.36
  -1   9  23    4.89    2.83
  -8  -1  23   -0.83    2.54
  -1   9  23    2.31    1.84
  -9  11 -23   24.52    5.79
  -2  -9 -23   21.17    6.15
  -9  11 -23   23.90    5.45
 -11   2  23   24.02    5.60
   2   9  23   20.13    4.79
  -5  -9 -23    1.15    3.24
  -9  14 -23    2.01    3.64
  -9  14 -23    0.53    3.33
   5   9  23   -0.71    2.77
 -14   5  23    3.23    3.43
  -5  15 -23    5.07    2.98
  -5  15 -23    1.95    3.67
 -10  -5 -23   -0.11    3.02
  10   5  23   -0.12    2.52
 -15  10  23    2.58    3.56
  -2  12 -23   19.77    4.33
 -10  -2 -23   11.48    4.57
  -2  12 -23   17.64    6.09
  -2  12 -23    5.32    4.66
  10   2  23   19.71    3.99
 -12  10  23    9.63    4.47
 -12  10  23   12.55    4.02
 -10   1 -23   -5.16    2.51
   1   9 -23    0.91    2.33
   1   9 -23   -1.80    3.13
  -9  10  23    0.45    2.66
  -1  -9  23   -1.53    1.99
  -9  10  23    3.45    2.64
   4   6 -23   12.00    3.98
 -10   4 -23   23.67    4.10
 -10   4 -23   27.01    5.91
  -6  10  23   21.46    4.64
  -4  -6  23   18.78    4.47
 -10   7 -23    3.44    2.49
 -10   7 -23    3.80    3.60
  -3  10  23    9.00    2.74
  -7  -3  23    6.96    3.23
 -10  10 -23    0.24    2.73
 -10  10 -23   -3.02    2.13
 -10   0  23    0.34    3.01
   0  10  23   -2.25    2.02
  -3 -10 -23    3.47    3.89
 -10  13 -23    1.00    2.99
 -10  13 -23    0.63    3.33
   3  10  23    2.28    2.99
 -13   3  23   -0.91    3.13
 -10  16 -23    0.97    4.30
   6  10  23    3.14    3.96
 -16   6  23    1.40    3.49
  -3  14 -23    6.15    3.99
  -3  14 -23    6.85    3.21
 -11  -3 -23   -1.17    3.34
  11   3  23    4.49    2.98
 -14  11  23    2.28    3.40
 -14  11  23    1.72    4.15
   0  11 -23   -0.46    2.50
   0  11 -23   -3.68    3.22
 -11   0 -23    3.12    3.01
 -11  11  23    0.17    2.92
 -11  11  23   -0.16    2.41
   3   8 -23   -0.48    2.26
   3   8 -23    0.05    2.56
 -11   3 -23   -2.82    2.85
  -8  11  23   -0.80    1.96
  -8  11  23    0.58    2.33
  -3  -8  23    1.29    2.38
   6   5 -23    3.46    2.86
 -11   6 -23   -0.32    2.96
 -11   6 -23    4.01    2.43
  -5  11  23    4.87    2.92
  -6  -5  23    5.71    3.17
 -11   9 -23   18.31    4.61
 -11   9 -23   20.27    5.59
  -2  11  23   16.89    4.78
  -9  -2  23   10.54    4.10
  -2  11  23   20.09    4.03
  -1 -11 -23   11.41    5.41
 -11  12 -23   12.38    4.63
 -11  12 -23    5.18    3.88
   1  11  23    7.56    3.88
 -12   1  23    6.23    3.77
 -11  15 -23   16.28    5.27
 -11  15 -23    9.75    5.32
 -15   4  23   10.15    4.86
   4  11  23    2.40    3.66
  -1  13 -23    0.93    3.41
  -1  13 -23   -1.12    2.85
 -12  -1 -23   -3.68    2.70
 -13  12  23    0.37    2.86
 -13  12  23    1.31    3.13
   2  10 -23    5.74    3.11
   2  10 -23   17.94    5.14
 -12   2 -23   12.48    5.22
 -10  12  23   13.43    4.37
 -10  12  23    9.79    3.44
 -12   5 -23    2.54    2.35
   5   7 -23    7.41    3.33
 -12   5 -23    8.09    4.04
   5   7 -23    1.45    3.12
  -5  -7  23    9.74    3.61
  -7  12  23   11.97    3.66
  -7  12  23   10.43    3.04
 -12   8 -23   -3.53    2.63
 -12   8 -23    1.09    2.68
   8   4 -23   -1.09    2.47
  -8  -4  23   -0.23    2.78
  -4  12  23    1.19    2.20
 -12  11 -23    5.22    3.84
 -12  11 -23   13.30    4.84
 -11  -1  23    9.18    4.52
  -1  12  23    7.91    3.92
 -12  14 -23   -0.29    3.84
 -12  14 -23    1.92    3.89
   2  12  23    5.45    3.46
 -14   2  23    7.04    4.41
   1  12 -23    3.05    2.81
 -13   1 -23   -0.92    3.22
   1  12 -23    1.26    3.91
 -12  13  23    1.01    3.14
   4   9 -23    1.93    3.40
   4   9 -23   -1.69    2.34
 -13   4 -23   -1.48    3.51
  -9  13  23    0.16    2.84
  -4  -9  23   11.49    3.63
 -13   7 -23   -0.82    2.53
   7   6 -23    0.27    2.57
 -13   7 -23    1.18    3.81
  -7  -6  23    0.63    2.70
  -6  13  23    3.08    2.73
 -13  10 -23   -1.99    2.92
  10   3 -23    3.59    2.74
 -13  10 -23    0.58    3.44
 -10  -3  23    3.79    3.34
  -3  13  23   -1.83    2.35
 -13  13 -23    0.64    3.76
 -13  13 -23   -0.43    3.09
 -13   0  23    1.98    3.32
   0  13  23   -4.19    2.64
 -14   0 -23   -0.23    3.93
   0  14 -23    2.59    3.56
   0  14 -23    4.42    4.23
 -14  14  23   -2.14    3.89
 -14   3 -23   -0.98    3.41
   3  11 -23    6.27    3.49
   3  11 -23    1.32    3.87
 -11  14  23    6.28    4.07
   6   8 -23    7.25    3.75
   6   8 -23   -0.18    2.73
 -14   6 -23    2.64    4.00
  -6  -8  23    3.87    3.03
  -8  14  23   -3.36    2.68
 -14   9 -23   -2.58    3.23
 -14   9 -23   -2.00    2.98
   9   5 -23    0.89    3.02
  -5  14  23   -1.42    2.59
  -9  -5  23    1.32    3.18
 -14  12 -23    2.78    3.78
 -14  12 -23   -0.79    3.72
  12   2 -23    4.88    3.43
 -12  -2  23    0.04    3.35
  -2  14  23    0.87    3.21
   5  10 -23   -0.02    3.35
   5  10 -23    2.70    3.24
 -15   5 -23    0.02    4.15
 -10  15  23    0.03    3.19
   8   7 -23   -1.63    2.87
 -15   8 -23    0.66    3.97
 -15   8 -23    4.49    3.67
  -7  15  23   -2.46    2.52
  -8  -7  23    0.15    3.16
  11   4 -23   10.18    4.27
 -15  11 -23    5.12    4.84
 -15  11 -23    7.06    4.28
 -11  -4  23   15.47    5.49
   7   9 -23    0.50    3.31
 -16   7 -23    9.80    5.71
   7   9 -23   -0.49    3.78
  -9  16  23    2.71    3.85
  -7  -9  23    2.21    3.63
  10   6 -23    4.07    3.39
 -16  10 -23    2.72    4.29
 -16  10 -23    6.34    5.60
 -10  -6  23    2.59    3.87
  -1   2 -24   -1.47    1.90
  -1  -1 -24   -4.54    2.08
  -1   2 -24    3.05    1.73
  -2   1 -24   -0.49    2.04
  -2   1 -24   -0.61    1.22
  -2   1 -24    2.96    2.50
  -2   4 -24    2.01    2.15
  -2  -2 -24    4.14    2.99
  -2  -2 -24    2.95    2.21
  -2   4 -24    1.01    1.98
  -2  -2 -24    0.90    0.80
  -3   0 -24   24.51    3.08
  -3   0 -24   18.87    4.28
  -3   0 -24   12.44    4.20
   0   3 -24   21.69    4.20
  -3   3 -24    2.56    1.82
  -3   3 -24    1.09    2.84
  -3   3 -24    8.09    2.84
   0  -3 -24    2.84    2.50
  -3  -3 -24   -0.89    2.38
  -3  -3 -24   -0.24    1.84
  -3   6 -24   -1.12    1.90
  -3   6 -24   -0.72    2.58
  -3   6 -24   -0.62    1.64
  -6   3  24    3.02    2.48
  -1   5 -24    8.97    3.40
  -4  -1 -24   14.42    4.18
  -4  -1 -24   13.57    3.53
  -1   5 -24   13.00    3.07
  -4   2 -24    1.39    2.42
  -4   2 -24    4.40    2.78
  -4   2 -24    5.07    1.64
  -4   5 -24   27.46    5.77
  -1  -4 -24   21.43    4.06
  -4   5 -24   16.41    4.19
  -4   5 -24   17.46    4.06
  -5   1  24   16.28    4.24
  -4   8 -24    0.74    2.28
  -4  -4 -24   -2.75    1.97
  -4  -4 -24    2.92    2.17
  -4   8 -24    5.52    3.86
  -4   8 -24    4.51    1.84
   4   4  24   -2.04    1.60
  -8   4  24    0.79    2.43
  -5  -2 -24    2.85    2.84
  -5  -2 -24    5.82    2.69
  -2   7 -24   -1.62    2.53
  -2   7 -24    2.13    1.75
   5   2  24    4.81    2.31
  -7   5  24    2.84    2.58
  -5   1 -24    7.64    3.52
  -5   1 -24   16.73    2.48
   1   4 -24   11.23    3.08
  -5   1 -24   13.45    4.32
  -1  -4  24   19.48    3.89
  -5   4 -24   14.96    4.37
  -5   4 -24   17.31    3.40
   1  -5 -24   16.77    4.01
  -5   4 -24   15.48    4.41
  -4  -1  24   17.35    4.32
  -5   7 -24    5.97    1.88
  -2  -5 -24   10.43    4.42
  -5   7 -24    7.94    3.78
  -2  -5 -24   11.43    2.91
  -5   7 -24    6.81    3.21
   2   5  24    9.65    3.16
  -7   2  24   13.89    3.68
  -5  -5 -24   10.06    4.21
  -5  10 -24    7.75    3.52
  -5  10 -24   14.36    2.92
  -5  10 -24    5.16    4.25
  -5  -5 -24   10.26    3.47
   5   5  24    8.31    2.81
 -10   5  24    8.03    3.39
  -6  -3 -24    7.05    3.17
  -3   9 -24    6.96    4.19
  -6  -3 -24    4.18    3.42
  -3   9 -24    8.69    3.61
  -3   9 -24   10.79    2.74
  -9   6  24    7.41    3.27
   3  -9  24    5.30    2.44
   6   3  24   12.75    3.09
  -6   0 -24    5.97    3.06
   0   6 -24    5.82    2.91
   0   6 -24    2.62    1.66
  -6   0 -24    4.35    3.05
   0  -6  24    2.95    2.22
  -6   6  24    0.72    2.48
  -6   3 -24    1.76    2.44
  -6   3 -24    2.05    1.51
  -6   3 -24    2.11    2.61
  -3   6  24    0.74    1.47
  -3  -3  24    0.81    2.04
  -6   6 -24    3.00    2.26
  -6   6 -24    6.37    2.88
   0  -6 -24    7.13    2.09
  -6   6 -24    5.56    1.32
  -6   0  24    2.32    2.25
  -3  -6 -24   13.58    4.57
  -6   9 -24   12.85    3.88
  -3  -6 -24    6.94    2.67
  -6   9 -24    5.76    3.49
  -6   9 -24    9.67    2.27
  -9   3  24    4.02    3.12
   3   6  24    7.39    2.93
  -6  -6 -24   -0.55    2.80
  -6  12 -24    0.32    2.83
  -6  12 -24    1.04    3.04
  -6  12 -24   -1.30    1.89
  -6  -6 -24    0.32    2.29
   6   6  24   -0.28    2.38
 -12   6  24   -4.10    2.41
  -4  11 -24    4.73    2.54
  -4  11 -24    1.34    3.09
  -7  -4 -24    5.06    3.26
  -7  -4 -24    6.99    3.91
  -4  11 -24    5.80    4.07
 -11   7  24    1.29    2.53
   7   4  24    3.57    2.45
  -1   8 -24   22.04    6.44
  -7  -1 -24   28.51    6.10
  -1   8 -24   27.49    4.83
  -7  -1 -24   28.82    6.60
   1  -8  24   43.95    5.49
   7   1  24   30.51    4.73
  -8   7  24   24.16    5.22
   2   5 -24    6.34    1.81
  -7   2 -24    3.62    1.50
  -7   2 -24    4.25    3.08
  -7   2 -24    6.47    3.19
  -2  -5  24    7.46    2.83
  -5   7  24    3.98    2.28
   2  -7 -24    8.47    2.63
  -7   5 -24    9.84    3.92
  -7   5 -24   15.59    3.24
  -2   7  24   12.72    2.72
  -5  -2  24   11.22    3.29
  -1  -7 -24    2.76    1.66
  -7   8 -24    0.96    1.10
  -7   8 -24   -1.22    1.95
  -7   8 -24   -4.41    2.56
  -8   1  24   -0.55    2.28
   1   7  24   -0.93    1.92
  -7  11 -24    7.02    3.62
  -7  11 -24    2.93    3.14
  -4  -7 -24    2.80    2.03
  -4  -7 -24    2.88    3.50
 -11   4  24   -1.80    2.50
   4   7  24    3.30    2.85
  -7  14 -24    2.06    2.91
  -7  -7 -24    0.49    3.19
  -7  14 -24    0.12    3.31
 -14   7  24   -0.04    3.16
   7   7  24    1.11    2.58
  -8  -5 -24   22.17    5.75
  -5  13 -24   16.85    5.03
  -5  13 -24   19.57    5.34
  -5  13 -24   22.80    4.59
  -8  -5 -24    8.94    4.23
   8   5  24   14.80    4.19
 -13   8  24    7.46    4.30
  -2  10 -24    3.00    3.35
  -8  -2 -24    1.53    3.25
  -8  -2 -24    4.87    3.47
  -2  10 -24    0.28    2.18
   8   2  24    0.58    1.86
 -10   8  24    4.21    2.96
  -8   1 -24   24.16    5.88
   1   7 -24   32.30    6.07
  -8   1 -24   27.55    5.92
   1   7 -24   15.20    4.00
  -7   8  24   18.15    4.66
  -7   8  24   26.11    5.09
  -1  -7  24   33.98    5.06
  -8   4 -24    1.29    1.64
  -8   4 -24    0.04    2.27
  -4   8  24    2.00    1.92
  -4  -4  24   -1.65    2.00
  -8   7 -24   -1.22    1.86
  -8   7 -24   -1.08    2.74
   1  -8 -24    1.68    1.29
  -1   8  24    1.29    2.63
  -1   8  24    1.15    1.45
  -7  -1  24   -1.20    2.06
  -8  10 -24   -1.15    2.73
  -2  -8 -24   -2.22    4.37
  -8  10 -24   -2.28    2.49
   2   8  24    3.00    2.70
 -10   2  24    5.38    3.35
  -5  -8 -24   -1.24    3.15
  -8  13 -24    0.92    3.18
  -8  13 -24   -3.88    2.69
   5   8  24   -3.12    2.17
 -13   5  24    0.13    2.95
  -8  16 -24   13.53    5.60
   8   8  24    9.38    4.20
 -16   8  24    2.34    4.10
  -6  15 -24   -2.17    3.06
 -15   9  24   -1.33    2.96
   9   6  24   -0.06    3.05
  -9  -3 -24    5.47    3.41
  -3  12 -24    2.46    4.68
  -3  12 -24    1.11    2.67
  -3  12 -24   -5.31    2.86
   9   3  24    1.44    2.27
 -12   9  24   -0.78    2.56
  -9   0 -24    5.82    3.58
   0   9 -24    7.73    3.37
   0   9 -24    7.88    3.04
   9   0  24    5.97    2.22
  -9   9  24    8.27    3.03
   0  -9  24    4.06    2.21
  -9   9  24    0.33    2.70
  -9   3 -24    8.40    2.18
   3   6 -24    6.06    2.93
  -9   3 -24    8.05    3.68
  -6   9  24    8.09    2.92
  -3  -6  24    7.61    3.08
  -9   6 -24   10.80    3.49
  -9   6 -24   13.98    4.57
  -6  -3  24   12.06    3.83
  -3   9  24   11.80    3.09
  -9   9 -24    1.10    2.57
  -9   9 -24    5.96    3.67
  -9   0  24    3.60    3.27
   0   9  24    8.08    3.46
  -3  -9 -24    1.18    3.61
  -9  12 -24   -0.65    2.54
  -9  12 -24    1.58    3.01
   3   9  24    2.44    2.76
 -12   3  24    0.23    3.09
  -9  15 -24    0.23    3.37
  -9  15 -24    5.83    3.91
 -15   6  24    1.84    3.65
   6   9  24    0.84    2.88
 -10  -4 -24   -0.55    3.32
  -4  14 -24   -4.79    2.90
  -4  14 -24    3.19    2.96
  10   4  24   -0.21    2.51
 -14  10  24    1.65    3.13
 -10  -1 -24   15.31    4.56
  -1  11 -24    5.99    3.84
  -1  11 -24    5.98    3.14
 -11  10  24    7.66    3.36
 -11  10  24    5.35    3.19
  10   1  24    1.54    2.31
 -10   2 -24   -0.18    2.79
   2   8 -24    4.17    2.56
   2   8 -24    5.14    3.36
  -2  -8  24    5.51    2.70
  -8  10  24    3.19    2.66
  -8  10  24   -0.43    2.44
 -10   5 -24    8.65    2.62
 -10   5 -24    8.17    3.94
  -5  10  24    5.37    2.80
  -5  -5  24   11.07    3.65
 -10   8 -24    3.01    3.28
 -10   8 -24    3.41    2.85
  -2  10  24    1.33    1.87
  -2  10  24    0.07    2.32
  -8  -2  24    1.53    3.03
 -10  11 -24    0.07    2.52
 -10  11 -24    1.31    2.88
  -1 -10 -24    3.82    4.52
   1  10  24    6.45    3.18
 -11   1  24   -2.66    2.96
  -4 -10 -24   -4.41    3.33
 -10  14 -24    2.30    3.46
 -10  14 -24   -2.81    3.01
 -14   4  24    3.12    3.76
   4  10  24    0.98    2.97
 -11  -2 -24    0.34    3.17
  -2  13 -24    0.03    3.40
  -2  13 -24   -0.91    2.69
  -2  13 -24   -5.02    4.52
 -13  11  24    3.72    3.93
 -13  11  24    0.13    2.87
   1  10 -24    8.84    3.08
 -11   1 -24   11.12    4.61
   1  10 -24   -0.38    2.87
 -10  11  24    4.32    3.49
 -10  11  24    5.89    3.06
 -11   4 -24    1.60    1.88
 -11   4 -24    5.88    3.52
   4   7 -24    2.29    2.76
   4   7 -24    2.58    3.14
  -7  11  24    4.68    2.72
  -7  11  24    3.12    2.85
  -4  -7  24    4.17    2.88
 -11   7 -24    0.49    2.33
 -11   7 -24    1.34    3.27
  -7  -4  24    0.70    2.87
  -4  11  24    1.41    2.10
 -11  10 -24   -1.44    2.56
 -11  10 -24   -1.66    3.13
 -10  -1  24    1.41    3.44
  -1  11  24    1.23    2.96
 -11  13 -24    0.27    3.60
 -11  13 -24    3.01    3.70
  -2 -11 -24    3.75    4.49
 -13   2  24   -0.05    3.19
   2  11  24    2.38    3.42
  -3  15 -24    6.39    3.72
  -3  15 -24    2.55    4.20
 -12  -3 -24   -2.98    3.40
 -15  12  24    1.18    3.42
   0  12 -24   10.05    4.47
 -12   0 -24   -4.99    2.90
   0  12 -24   -1.19    2.75
 -12  12  24    7.24    3.18
 -12  12  24   -1.88    3.06
   3   9 -24   -0.01    2.35
 -12   3 -24    0.88    3.14
   3   9 -24   -4.05    2.67
  -9  12  24    0.35    2.75
  -9  12  24   -1.57    2.15
  -3  -9  24   -0.92    2.37
 -12   6 -24    2.58    2.41
 -12   6 -24   -1.50    3.07
   6   6 -24   -3.05    2.01
  -6  -6  24    2.70    3.16
  -6  12  24    1.72    2.66
 -12   9 -24    1.79    2.59
 -12   9 -24   -2.44    2.77
  -9  -3  24    0.17    3.04
  -3  12  24    0.51    2.21
 -12  12 -24   -0.30    2.93
   0 -12 -24    0.51    5.09
 -12  12 -24    7.31    4.18
 -12   0  24   -0.49    3.15
   0  12  24    9.17    3.95
 -12  15 -24    2.06    4.04
 -12  15 -24    1.82    4.01
   3  12  24   -1.95    3.17
 -15   3  24    3.05    4.18
  -1  14 -24    6.97    4.82
  -1  14 -24    6.92    3.86
 -13  -1 -24   -0.37    3.43
 -14  13  24    1.62    4.23
   2  11 -24    3.26    3.00
 -13   2 -24    1.64    3.73
   2  11 -24    0.89    3.37
 -11  13  24   -1.58    2.79
   5   8 -24   20.81    4.76
 -13   5 -24    7.48    4.70
   5   8 -24   11.70    4.16
  -8  13  24    8.14    4.03
  -5  -8  24   11.75    3.79
 -13   8 -24    1.33    2.83
 -13   8 -24   -5.96    2.34
   8   5 -24   -0.55    2.28
  -8  -5  24    1.58    3.33
  -5  13  24   -0.07    2.34
  11   2 -24   -0.54    2.42
 -13  11 -24    3.38    3.49
 -13  11 -24   -3.50    3.07
  -2  13  24   -0.59    2.71
 -11  -2  24    4.26    3.42
 -13  14 -24    4.81    4.18
 -13  14 -24   -1.81    3.27
 -14   1  24    4.82    4.03
   1  13  24   -1.11    3.45
 -14   1 -24   -1.62    4.00
   1  13 -24    2.28    4.17
   1  13 -24    1.80    3.60
 -13  14  24   -1.35    3.73
 -14   4 -24   -0.77    3.09
   4  10 -24    0.61    3.03
   4  10 -24    3.56    3.85
 -10  14  24    0.77    3.17
 -14   7 -24   -1.01    2.55
 -14   7 -24   -2.65    3.44
   7   7 -24    1.95    3.11
  -7  -7  24   -0.24    2.82
  -7  14  24    3.73    3.11
 -14  10 -24    0.90    3.91
  10   4 -24   -3.56    2.44
 -14  10 -24   -0.57    3.13
 -10  -4  24    0.78    3.22
 -14  13 -24   -1.80    3.83
 -14  13 -24   -5.38    3.37
  13   1 -24    2.07    3.54
  -1  14  24   -3.22    3.10
 -13  -1  24    0.14    3.72
 -15   3 -24    4.77    4.31
   3  12 -24    3.90    3.82
   3  12 -24    5.24    4.40
 -12  15  24    0.20    4.05
   6   9 -24   -2.61    3.43
   6   9 -24   -1.24    2.92
 -15   6 -24    7.26    4.80
  -9  15  24    2.08    3.28
  -6  -9  24   -3.56    2.73
 -15   9 -24    2.53    3.69
   9   6 -24    0.60    3.30
 -15   9 -24    2.24    4.02
  -6  15  24    5.47    3.34
  -9  -6  24    3.25    3.64
 -15  12 -24    6.86    4.51
  12   3 -24    2.86    3.09
 -15  12 -24   -0.11    4.46
  -3  15  24    2.63    3.82
 -12  -3  24    3.74    4.08
   8   8 -24    8.89    4.26
 -16   8 -24    5.05    5.60
   8   8 -24    0.16    3.96
  -8  -8  24    6.59    4.29
  -8  16  24    7.33    3.87
  -1   0 -25   -0.99    2.34
  -2  -1 -25   48.88    7.21
  -1   3 -25   33.90    6.60
  -2  -1 -25   42.41    7.64
  -2  -1 -25   43.48    4.97
  -1   3 -25   35.81    5.93
  -2   2 -25   -1.28    1.28
  -2   2 -25   -1.06    1.96
  -3  -2 -25   13.17    4.18
  -2   5 -25    7.29    2.81
  -2   5 -25   15.14    3.77
  -3  -2 -25    5.20    3.01
  -5   3  25   16.06    3.91
  -3   1 -25   47.81    7.67
  -3   1 -25   48.91    7.65
  -3   1 -25   35.32    5.30
  -3   4 -25    2.76    2.16
  -3   4 -25   11.89    3.78
  -3   4 -25    4.24    2.66
  -1  -3 -25    4.44    2.63
  -4   1  25    7.86    3.15
  -3   7 -25   28.73    4.24
  -3   7 -25   32.74    5.68
  -4  -3 -25   16.32    5.46
  -3   7 -25   41.78    6.93
  -4  -3 -25   33.04    5.66
   4   3  25   34.54    5.16
  -7   4  25   21.67    5.05
  -4   0 -25    0.21    0.78
  -4   0 -25   -2.11    2.01
   0   4 -25    0.14    2.09
  -4   0 -25   -0.61    2.52
   0   4 -25    0.07    1.54
  -4   3 -25    5.55    3.26
  -4   3 -25    5.95    2.04
  -4   3 -25    4.53    2.53
  -3  -1  25    5.78    2.96
  -4   6 -25   14.43    3.67
  -4   6 -25   17.33    4.87
  -2  -4 -25   17.52    4.99
  -2  -4 -25   15.71    3.63
  -6   2  25   16.63    4.12
  -4   9 -25   -3.28    1.47
  -4   9 -25   -1.23    2.69
  -5  -4 -25   -1.54    2.60
  -4   9 -25   -2.57    3.37
  -5  -4 -25    1.29    2.11
  -9   5  25    2.75    2.35
   5   4  25    0.08    1.96
  -5  -1 -25   -0.99    2.21
  -1   6 -25    0.85    2.47
  -1   6 -25    0.21    1.64
  -5  -1 -25    2.77    2.37
  -6   5  25    0.09    2.30
  -5   2 -25   11.09    3.98
  -5   2 -25   11.28    3.99
  -5   2 -25   10.73    2.42
  -2  -3  25   14.39    4.03
  -5   5 -25    0.68    1.80
  -5   5 -25   -1.33    2.06
   0  -5 -25    1.37    1.70
  -5   5 -25    2.83    2.57
  -5   0  25   -0.37    1.91
  -5   8 -25    7.81    4.47
  -3  -5 -25   -3.90    1.36
  -5   8 -25    0.89    1.34
  -3  -5 -25    6.60    4.27
  -5   8 -25   -0.18    2.90
  -8   3  25   -5.48    2.30
   3   5  25    2.29    2.19
  -6  -5 -25   -0.61    2.10
  -5  11 -25    5.12    3.62
  -5  11 -25   -0.15    2.51
  -5  11 -25   -0.36    1.87
  -6  -5 -25    1.00    3.14
 -11   6  25    1.07    2.54
   6   5  25    1.97    2.34
  -2   8 -25    2.70    1.90
  -6  -2 -25    1.53    2.33
  -2   8 -25   -1.04    4.31
  -6  -2 -25   -2.26    2.60
   2  -8  25    7.94    2.97
   6   2  25   -1.71    1.59
  -8   6  25   -4.29    2.29
  -6   1 -25   -3.87    1.51
   1   5 -25    2.51    1.48
  -6   1 -25    0.68    0.97
  -6   1 -25   -1.32    2.19
   1   5 -25    1.08    2.10
  -1  -5  25    2.28    2.21
  -6   4 -25   14.50    3.31
  -6   4 -25   14.04    4.03
  -6   4 -25   22.57    4.79
  -4  -2  25   14.94    4.01
  -6   7 -25    1.64    1.21
  -6   7 -25    5.12    3.23
  -1  -6 -25    1.93    1.68
  -6   7 -25    1.22    2.21
  -7   1  25    0.25    2.37
   1   6  25    1.73    2.30
  -6  10 -25    9.45    3.74
  -4  -6 -25   26.40    4.39
  -6  10 -25    6.09    4.10
  -6  10 -25   19.47    3.33
  -4  -6 -25   12.28    5.03
   4   6  25   14.12    3.87
 -10   4  25   15.51    4.43
  -6  13 -25    5.56    3.76
  -6  13 -25    2.53    2.56
  -7  -6 -25    0.33    3.02
  -6  13 -25   10.08    4.33
  -7  -6 -25    1.39    2.72
   7   6  25    8.61    3.29
 -13   7  25    2.26    2.88
  -7  -3 -25   -1.15    2.31
  -3  10 -25   -3.73    2.95
  -7  -3 -25   -0.70    2.86
  -3  10 -25    3.68    4.36
  -3  10 -25    1.80    2.07
   7   3  25   -1.11    1.97
 -10   7  25   -0.29    2.41
   0   7 -25   -2.55    1.65
  -7   0 -25    3.42    3.10
  -7   0 -25   -0.56    2.40
   0   7 -25   -0.30    2.79
   0  -7  25   -1.28    1.85
  -7   7  25    9.36    3.78
  -7   3 -25   28.05    6.42
  -7   3 -25   33.76    4.86
  -7   3 -25   20.15    5.55
  -4   7  25   36.24    5.25
  -3  -4  25   30.77    5.54
   1  -7 -25    1.91    1.23
  -7   6 -25    1.42    0.85
  -7   6 -25    2.27    2.04
  -7   6 -25   -2.47    2.04
  -1   7  25    1.08    1.51
  -6  -1  25   -1.49    2.17
  -7   9 -25   20.84    5.20
  -2  -7 -25   21.86    6.87
  -2  -7 -25   26.14    4.49
  -7   9 -25   24.35    6.13
  -9   2  25   21.95    5.37
   2   7  25   27.81    5.24
  -7  12 -25   -2.91    2.57
  -5  -7 -25    1.54    3.52
  -7  12 -25   -0.95    2.63
   5   7  25   -2.22    2.21
 -12   5  25    1.00    3.26
  -7  15 -25   -0.31    3.09
  -8  -7 -25    3.21    3.90
   8   7  25    3.40    3.39
 -15   8  25   -3.84    3.05
  -4  12 -25   -0.64    2.71
  -4  12 -25    4.63    2.72
  -8  -4 -25   -1.83    2.90
  -4  12 -25   -0.95    3.79
  -8  -4 -25   -3.65    2.42
 -12   8  25   -0.42    2.38
   8   4  25   -0.15    2.20
  -8  -1 -25    4.78    3.42
  -8  -1 -25    3.77    3.19
  -1   9 -25    2.43    2.29
  -1   9 -25    5.66    3.46
  -9   8  25    5.77    3.16
   1  -9  25    7.25    2.49
   8   1  25    4.83    2.21
  -9   8  25    7.13    3.04
  -8   2 -25   -4.07    2.38
  -8   2 -25   -1.71    2.54
   2   6 -25    0.61    1.46
   2   6 -25    7.91    3.51
  -8   2 -25   -0.40    1.17
  -2  -6  25   -4.34    2.20
  -6   8  25   -1.27    1.93
   3  -8 -25   -2.33    1.99
  -8   5 -25   -1.66    2.22
  -8   5 -25    1.43    1.88
  -5  -3  25   -1.18    2.45
  -3   8  25    2.67    1.79
  -8   8 -25   -2.65    1.98
  -8   8 -25   -0.35    2.72
   0   8  25    1.90    2.36
  -8   0  25    1.57    2.61
  -3  -8 -25   -6.06    3.12
  -8  11 -25    2.78    2.92
  -8  11 -25    3.58    3.16
 -11   3  25    3.52    3.25
   3   8  25   -2.60    2.16
  -8  14 -25   -1.64    2.78
  -8  14 -25   -0.05    3.43
  -6  -8 -25    0.88    3.48
   6   8  25    1.58    2.92
 -14   6  25   -2.26    2.96
  -9  -5 -25    2.73    3.68
  -5  14 -25    4.19    3.03
  -5  14 -25    4.18    3.79
  -5  14 -25    4.92    3.90
 -14   9  25    5.43    3.88
   9   5  25    0.77    2.71
  -9  -2 -25    3.91    3.51
  -2  11 -25    7.65    3.63
  -2  11 -25   -0.07    2.36
 -11   9  25    2.57    2.70
   9   2  25    3.44    2.46
   1   8 -25    2.79    3.47
  -9   1 -25    6.17    3.49
   1   8 -25   -0.23    2.07
  -8   9  25    5.86    2.77
  -8   9  25   -0.50    2.38
  -1  -8  25    3.71    2.56
  -9   4 -25   -0.39    2.78
  -9   4 -25    0.72    1.52
  -4  -5  25    0.83    2.56
  -5   9  25   -1.51    1.83
  -9   7 -25   16.69    5.28
  -9   7 -25   33.75    5.67
  -2   9  25   30.77    4.61
  -7  -2  25   22.77    5.28
  -9  10 -25    0.30    2.66
  -9  10 -25    3.82    3.23
  -1  -9 -25   12.87    4.79
   1   9  25    6.48    3.16
 -10   1  25    1.46    3.30
  -9  13 -25   -0.51    2.64
  -9  13 -25    1.60    3.39
  -4  -9 -25    0.41    3.22
   4   9  25   -3.21    2.44
 -13   4  25   -3.99    2.88
 -10  -3 -25    4.28    3.57
  -3  13 -25   -1.95    3.10
  -3  13 -25   -3.62    2.37
  -3  13 -25    5.74    4.59
  10   3  25    1.73    2.59
 -13  10  25   -2.87    2.59
   0  10 -25   -1.34    2.50
 -10   0 -25   -1.73    2.76
   0  10 -25   -1.96    2.09
 -10  10  25    2.81    2.79
 -10  10  25    1.01    2.51
   3   7 -25   -2.87    2.51
   3   7 -25    0.27    2.47
 -10   3 -25    1.91    3.19
  -7  10  25    0.90    2.29
  -7  10  25    0.25    2.59
  -3  -7  25    0.13    2.13
 -10   6 -25   13.88    4.44
 -10   6 -25   13.61    3.66
  -6  -4  25   15.36    4.21
  -4  10  25   12.79    3.42
 -10   9 -25    9.45    4.28
 -10   9 -25    8.31    3.38
  -1  10  25    1.28    3.07
  -9  -1  25    6.77    3.82
 -10  12 -25    7.32    4.29
 -10  12 -25   17.94    5.28
  -2 -10 -25   19.79    5.93
 -12   2  25   12.75    4.75
   2  10  25    8.30    4.19
 -10  15 -25   10.91    4.56
 -10  15 -25    2.98    4.07
 -15   5  25    4.25    3.98
   5  10  25    4.16    3.67
 -11  -4 -25   -4.09    3.30
  -4  15 -25   -0.67    4.15
  -4  15 -25   -0.30    2.72
 -15  11  25   -1.76    3.62
 -11  -1 -25   -2.79    2.73
  -1  12 -25   -1.57    2.61
  -1  12 -25    4.71    3.38
 -12  11  25   -0.07    3.13
 -12  11  25    1.71    2.87
   2   9 -25   -0.31    2.92
   2   9 -25    4.11    2.67
 -11   2 -25    2.89    3.75
  -9  11  25    0.64    2.42
  -9  11  25    2.02    2.85
  -2  -9  25    4.67    2.97
   5   6 -25   -0.27    2.29
 -11   5 -25    0.98    1.94
 -11   5 -25   -1.94    2.93
  -5  -6  25    0.31    2.76
  -6  11  25    3.43    2.69
 -11   8 -25    1.12    3.25
 -11   8 -25    0.33    2.86
  -8  -3  25   -1.03    2.84
  -3  11  25    0.72    1.96
 -11  11 -25   -1.36    3.37
   0 -11 -25    7.82    4.98
 -11  11 -25    3.06    3.35
 -11   0  25   -0.95    3.25
   0  11  25    4.66    3.28
 -11  14 -25    5.49    4.32
  -3 -11 -25    1.78    4.60
 -11  14 -25    0.00    3.50
   3  11  25    4.60    3.51
 -14   3  25    4.54    4.20
 -12  -2 -25    3.33    4.09
  -2  14 -25    7.90    4.53
  -2  14 -25    4.70    3.60
 -14  12  25    0.31    2.93
 -14  12  25    3.54    4.36
 -12   1 -25    0.30    3.67
   1  11 -25    2.62    3.39
   1  11 -25    3.29    3.11
 -11  12  25    5.46    3.87
 -11  12  25    1.10    2.65
   4   8 -25   -1.88    2.51
   4   8 -25    0.73    2.75
 -12   4 -25    0.84    3.33
  -8  12  25   -4.62    2.04
  -8  12  25    2.20    2.75
  -4  -8  25    0.62    2.64
   7   5 -25   -1.14    2.22
 -12   7 -25    5.83    3.64
 -12   7 -25    4.91    3.19
  -5  12  25    3.56    2.89
  -7  -5  25    3.66    3.31
 -12  10 -25   12.95    5.15
 -12  10 -25   17.95    5.04
 -10  -2  25   15.05    4.97
  -2  12  25   20.08    5.23
  -1 -12 -25    1.12    5.28
 -12  13 -25   -6.92    2.99
 -12  13 -25   -3.02    3.45
 -13   1  25    1.77    3.72
   1  12  25   -0.75    2.75
   0  13 -25    7.06    4.32
   0  13 -25   -1.08    3.23
 -13   0 -25   -2.21    3.45
 -13  13  25    2.12    3.59
   3  10 -25   10.00    4.33
 -13   3 -25   -0.87    3.61
   3  10 -25    2.39    3.07
 -10  13  25   -0.19    3.00
   6   7 -25   -2.21    2.53
 -13   6 -25   -0.50    3.42
   6   7 -25    8.73    3.74
  -6  -7  25    2.17    2.97
  -7  13  25    5.05    3.29
 -13   9 -25    5.48    3.50
   9   4 -25   -0.17    2.85
 -13   9 -25   -0.62    3.65
  -9  -4  25   -0.02    3.15
 -13  12 -25    3.11    3.89
 -13  12 -25    1.10    3.43
 -12  -1  25    1.69    3.54
  -1  13  25    3.09    3.62
   2  12 -25    2.98    3.97
   2  12 -25    1.74    3.07
 -14   2 -25    6.32    4.08
 -12  14  25    4.42    4.30
 -14   5 -25   -0.31    4.00
   5   9 -25    1.41    2.59
   5   9 -25    5.31    3.93
  -5  -9  25    7.22    3.53
  -9  14  25    8.09    3.74
   8   6 -25   -1.66    2.28
 -14   8 -25    0.69    4.02
 -14   8 -25   -2.99    2.89
  -8  -6  25    1.23    3.52
  -6  14  25    2.99    2.76
 -14  11 -25    6.83    4.31
  11   3 -25   10.70    4.11
 -14  11 -25    6.28    4.54
 -11  -3  25    8.21    4.55
   4  11 -25   -4.13    3.57
   4  11 -25    0.42    3.68
 -15   4 -25    0.68    3.80
 -11  15  25   -0.28    3.38
   7   8 -25   -4.75    3.09
 -15   7 -25    1.27    4.45
   7   8 -25   -0.86    2.84
  -8  15  25    1.54    2.98
  -7  -8  25    2.51    3.43
  10   5 -25    2.58    3.12
 -15  10 -25    0.23    3.88
 -15  10 -25    1.17    4.17
 -10  -5  25    6.04    3.98
  -1   1 -26    0.77    2.51
   0   2 -26   28.28    5.78
  -2   0 -26   33.77    4.50
  -2   0 -26   32.26    6.35
  -2   0 -26   35.56    6.39
  -2   3 -26   -0.78    1.61
  -2   3 -26    0.14    2.02
  -1  -2 -26   -1.14    2.35
  -3  -1 -26    7.99    1.60
  -1   4 -26    3.81    2.59
  -1   4 -26   14.43    3.21
  -3  -1 -26    5.34    3.32
  -3  -1 -26    7.98    3.22
  -3   2 -26    1.24    2.72
  -3   2 -26    3.94    2.44
  -3   2 -26    1.10    1.65
  -3   5 -26    0.04    2.77
  -2  -3 -26    3.11    2.23
  -2  -3 -26    0.33    2.80
  -3   5 -26    2.44    2.25
  -3   5 -26    1.05    2.13
  -5   2  26    1.33    2.68
  -4  -2 -26   -1.37    2.12
  -2   6 -26    1.80    2.42
  -2   6 -26    0.48    1.78
  -4  -2 -26   -0.85    2.10
  -6   4  26    3.18    2.43
   1   3 -26    6.28    2.76
  -4   1 -26    0.41    3.12
  -4   1 -26    8.71    1.98
  -4   1 -26    7.14    3.67
   0  -4 -26   17.29    4.22
  -4   4 -26   21.53    4.54
  -4   4 -26   10.55    4.98
  -4   4 -26   12.01    3.42
  -4   0  26   16.28    4.01
  -4   7 -26   17.01    3.93
  -4   7 -26   14.57    5.00
  -4   7 -26   21.48    3.19
  -3  -4 -26   13.75    3.67
  -3  -4 -26   14.10    4.59
  -7   3  26   10.81    3.76
  -5  -3 -26   10.29    4.90
  -3   8 -26   54.81    7.45
  -5  -3 -26   12.18    3.96
  -3   8 -26   12.81    3.09
  -3   8 -26   22.73    5.71
  -8   5  26   10.62    4.07
   5   3  26   13.10    3.53
   0   5 -26    4.95    2.04
  -5   0 -26    3.60    0.94
  -5   0 -26    3.04    2.68
   0   5 -26    5.18    2.58
  -5   0 -26    2.74    2.76
  -5   3 -26    1.41    2.31
  -5   3 -26    3.99    2.60
  -5   3 -26    3.25    1.77
  -3  -2  26    2.15    2.53
  -5   6 -26   13.64    3.57
  -1  -5 -26   15.51    3.34
  -5   6 -26   12.32    4.62
  -6   1  26    7.49    3.44
  -5   9 -26    5.58    2.16
  -4  -5 -26    8.06    2.96
  -5   9 -26    2.38    2.94
  -4  -5 -26    9.88    4.28
  -5   9 -26   11.37    4.71
  -9   4  26    5.56    3.23
   4   5  26    5.68    2.80
  -4  10 -26   11.56    4.46
  -4  10 -26   13.45    3.21
  -6  -4 -26   12.69    4.02
  -6  -4 -26   13.05    5.00
  -4  10 -26    4.46    4.88
   6   4  26   15.89    3.62
 -10   6  26   13.57    4.41
  -6  -1 -26    4.58    3.50
  -6  -1 -26    5.26    3.18
  -1   7 -26    6.05    3.09
  -1   7 -26    4.13    2.16
  -7   6  26    8.10    3.21
   1  -7  26    4.80    2.66
  -6   2 -26    1.71    1.32
  -6   2 -26    0.50    2.39
   2   4 -26   -1.40    1.78
  -6   2 -26   -3.01    1.60
  -2  -4  26   -3.18    1.80
  -6   5 -26   10.07    4.13
  -6   5 -26   14.04    3.27
   1  -6 -26   20.00    3.71
  -5  -1  26    7.41    3.13
  -2  -6 -26   32.76    5.41
  -6   8 -26   21.49    6.04
  -2  -6 -26   28.83    6.91
  -6   8 -26   23.43    5.35
  -6   8 -26   45.36    4.64
  -8   2  26   22.29    5.46
   2   6  26   30.33    5.54
  -5  -6 -26    6.00    3.95
  -6  11 -26    0.25    3.04
  -5  -6 -26    8.12    2.99
  -6  11 -26    0.28    2.89
  -6  11 -26    8.60    2.48
 -11   5  26    2.78    2.71
   5   6  26    5.52    2.92
  -7  -5 -26   26.28    5.91
  -5  12 -26   22.37    5.95
  -5  12 -26   26.97    6.62
  -7  -5 -26   34.62    7.44
  -5  12 -26   32.25    5.38
 -12   7  26   26.11    5.78
   7   5  26   30.51    5.54
  -7  -2 -26   -0.77    2.57
  -2   9 -26    0.32    1.77
  -7  -2 -26    1.91    3.08
  -2   9 -26   -2.36    3.33
   7   2  26    1.73    2.00
   2  -9  26    1.04    1.91
  -9   7  26   -0.10    2.04
   1   6 -26    7.47    2.08
  -7   1 -26    7.82    3.79
  -7   1 -26    2.97    1.23
   1   6 -26    4.74    2.95
  -7   1 -26    4.49    2.96
  -1  -6  26    7.39    2.72
  -7   4 -26   11.31    4.31
  -7   4 -26   19.03    3.36
  -3   7  26   14.70    3.16
  -4  -3  26    9.37    3.36
  -7   7 -26   -6.31    2.45
  -7   7 -26    1.66    2.41
   0  -7 -26    0.98    1.49
  -7   0  26    2.01    2.82
  -3  -7 -26    5.94    2.34
  -7  10 -26    0.91    2.95
  -3  -7 -26   -0.07    3.90
  -7  10 -26    6.46    3.69
   3   7  26    9.58    3.11
 -10   3  26   -2.45    2.04
  -7  13 -26    5.37    3.72
  -6  -7 -26    1.71    3.58
  -7  13 -26   -3.83    2.95
 -13   6  26   -0.76    3.09
   6   7  26    0.26    2.61
  -6  14 -26    9.28    4.84
  -6  14 -26   19.02    5.31
  -8  -6 -26   13.22    5.18
 -14   8  26    6.29    4.26
   8   6  26   10.99    4.09
  -3  11 -26   -0.76    2.17
  -8  -3 -26   -2.04    2.70
  -3  11 -26   -3.75    3.94
  -8  -3 -26   -3.20    2.47
  -3  11 -26    2.63    3.30
 -11   8  26    0.48    2.69
   8   3  26   -1.08    2.04
  -8   0 -26   93.11   13.41
  -8   0 -26   93.38   14.13
   0   8 -26   71.57   11.76
  -8   8  26   89.01   11.81
   0  -8  26   83.75   10.70
  -8   8  26   85.78   11.92
   3   5 -26   32.19    4.11
  -8   3 -26   16.92    3.34
  -8   3 -26   13.84    4.65
  -3  -5  26   15.09    4.38
  -5   8  26   15.48    3.93
  -8   6 -26   22.95    5.74
   2  -8 -26   31.03    4.47
  -8   6 -26   32.56    5.28
  -2   8  26   23.90    4.46
  -6  -2  26   29.54    5.79
  -8   9 -26   23.42    5.45
  -1  -8 -26   30.16    6.26
  -8   9 -26   10.62    4.04
   1   8  26   12.65    4.04
  -9   1  26   11.58    4.32
  -4  -8 -26   -2.86    3.49
  -8  12 -26   -2.89    2.97
  -8  12 -26   -0.82    3.08
   4   8  26    1.04    2.44
 -12   4  26    2.20    3.30
  -8  15 -26    6.61    4.78
  -7  -8 -26    3.06    3.98
  -8  15 -26    1.62    3.86
   7   8  26    8.29    3.64
 -15   7  26   -3.47    3.26
  -4  13 -26    5.64    3.29
  -4  13 -26    3.61    3.83
  -4  13 -26    6.87    4.27
  -9  -4 -26    6.55    3.70
   9   4  26    9.53    3.26
 -13   9  26   13.04    4.29
  -9  -1 -26    0.29    3.15
  -1  10 -26    2.34    3.21
  -1  10 -26    0.67    2.20
 -10   9  26   -1.95    2.25
 -10   9  26    1.27    2.95
   9   1  26    4.86    2.24
   2   7 -26    3.18    3.51
  -9   2 -26   -0.28    2.92
   2   7 -26   -2.17    1.90
  -7   9  26   -0.67    2.70
  -7   9  26    0.23    2.26
  -2  -7  26    1.51    2.40
  -9   5 -26    7.47    2.65
  -9   5 -26    5.81    3.56
  -5  -4  26    3.93    2.91
  -4   9  26    5.26    2.52
  -9   8 -26   22.30    4.86
  -9   8 -26   17.21    5.35
  -8  -1  26   16.06    4.53
  -9  11 -26    2.44    3.20
  -2  -9 -26    1.55    4.21
  -9  11 -26   -0.93    2.90
   2   9  26    0.16    2.26
 -11   2  26    0.07    2.50
  -5  -9 -26    5.66    4.67
  -9  14 -26    6.41    4.28
  -9  14 -26   12.50    4.80
   5   9  26    8.76    3.93
 -14   5  26    3.02    3.90
  -5  15 -26    1.46    4.16
  -5  15 -26    3.12    3.39
 -10  -5 -26    6.40    4.15
  10   5  26   -1.68    2.86
 -15  10  26    0.58    3.60
  -2  12 -26    5.15    2.91
  -2  12 -26    2.95    3.24
 -10  -2 -26    5.45    3.88
  -2  12 -26   -7.33    4.86
 -12  10  26    4.67    3.39
  10   2  26    2.23    2.43
   1   9 -26    0.11    2.30
 -10   1 -26   -1.07    2.92
   1   9 -26    3.19    3.53
  -9  10  26   -0.05    2.70
  -9  10  26   -2.07    1.99
  -1  -9  26    0.71    2.33
 -10   4 -26   14.14    3.08
 -10   4 -26   15.31    4.81
   4   6 -26   14.82    4.03
  -4  -6  26    9.35    3.52
  -6  10  26   16.94    4.04
 -10   7 -26    1.33    2.49
 -10   7 -26    4.56    3.85
  -7  -3  26    4.37    3.16
  -3  10  26    5.38    2.35
 -10  10 -26    4.42    3.50
 -10  10 -26    2.14    2.71
 -10   0  26    2.11    2.99
   0  10  26    1.12    2.94
 -10  13 -26    5.85    3.93
 -10  13 -26    4.36    4.09
  -3 -10 -26   11.63    5.00
   3  10  26    2.53    3.19
 -13   3  26   12.52    4.65
  -3  14 -26    2.78    3.29
  -3  14 -26    2.58    3.77
 -11  -3 -26    7.05    4.20
 -14  11  26    2.80    3.67
 -11   0 -26   -3.03    2.97
   0  11 -26   -0.51    2.66
   0  11 -26   -3.20    2.56
 -11  11  26    1.46    3.22
 -11  11  26   -0.23    2.58
   3   8 -26    3.99    3.35
 -11   3 -26    3.40    3.53
   3   8 -26    1.03    2.30
  -8  11  26   -1.61    2.31
  -8  11  26    0.19    2.67
  -3  -8  26    2.69    2.81
 -11   6 -26    2.77    3.43
 -11   6 -26    3.28    2.37
  -5  11  26    4.77    2.71
  -6  -5  26    4.89    3.26
 -11   9 -26    0.36    3.35
 -11   9 -26    5.10    3.27
  -9  -2  26    0.81    3.22
  -1 -11 -26    8.20    5.59
 -11  12 -26   10.41    4.50
 -11  12 -26   10.82    4.53
 -12   1  26   11.73    5.12
   1  11  26   -0.11    3.05
 -11  15 -26   -1.89    3.71
 -11  15 -26    3.44    4.77
   4  11  26    4.34    4.21
 -15   4  26   -1.63    3.51
 -12  -1 -26   10.75    4.76
  -1  13 -26    3.63    4.18
  -1  13 -26    4.49    3.61
 -13  12  26   -0.09    3.97
 -13  12  26   -0.73    3.31
   2  10 -26    5.54    3.07
 -12   2 -26    5.44    4.48
   2  10 -26    8.36    3.78
 -10  12  26    1.29    2.93
 -10  12  26    6.08    3.29
   5   7 -26   22.64    5.90
   5   7 -26   20.16    5.18
 -12   5 -26   28.39    7.09
  -7  12  26   25.27    5.30
  -5  -7  26   31.20    5.95
  -7  12  26   37.50    6.23
 -12   8 -26    4.91    3.29
 -12   8 -26   -1.78    2.76
  -8  -4  26   -0.69    2.89
  -4  12  26    2.16    2.29
 -12  11 -26    9.89    4.69
 -12  11 -26    3.10    3.70
 -11  -1  26   12.01    5.04
  -1  12  26    4.32    3.55
 -12  14 -26    1.50    3.73
 -12  14 -26    1.22    3.93
   2  12  26    0.58    3.66
 -14   2  26   -4.55    3.31
   1  12 -26    8.71    3.99
   1  12 -26   -0.44    3.30
 -13   1 -26    6.76    4.27
 -12  13  26    3.21    3.74
   4   9 -26    4.13    3.17
 -13   4 -26    9.94    5.20
   4   9 -26    5.79    3.99
  -9  13  26    5.34    3.63
  -4  -9  26   14.48    3.94
   7   6 -26    2.49    3.13
 -13   7 -26    1.58    3.07
 -13   7 -26   -0.84    2.63
  -6  13  26   -2.35    2.65
  -7  -6  26   -2.80    2.92
  10   3 -26    5.45    3.73
 -13  10 -26   11.95    5.08
 -13  10 -26    8.05    4.51
 -10  -3  26   14.77    5.24
   0 -13 -26   -1.80    5.86
 -13  13 -26    0.41    4.05
 -13  13 -26   -2.78    3.35
 -13   0  26    2.61    3.91
   0  13  26    5.14    3.90
   3  11 -26    6.23    3.84
   3  11 -26    3.04    4.07
 -14   3 -26   -1.51    3.11
 -11  14  26   -3.78    2.91
 -14   6 -26   15.86    6.04
   6   8 -26   14.16    4.71
   6   8 -26   13.58    4.89
  -8  14  26   11.48    4.43
  -6  -8  26   11.69    4.33
 -14   9 -26   13.16    5.37
 -14   9 -26    4.83    4.03
   9   5 -26    9.93    4.11
  -9  -5  26    6.48    4.04
 -14  12 -26   -0.09    3.32
  12   2 -26   -0.57    3.00
 -14  12 -26    0.81    4.13
  -2  14  26    1.76    3.50
 -12  -2  26   -3.39    3.52
   5  10 -26    1.41    3.89
 -15   5 -26    5.54    5.27
   5  10 -26   -0.72    3.53
 -10  15  26   -0.02    3.05
   8   7 -26    8.23    4.01
 -15   8 -26    2.21    4.56
  -8  -7  26   12.70    4.47
  -7  15  26    5.11    3.96
  11   4 -26    4.37    3.75
 -15  11 -26    7.48    5.40
 -15  11 -26    0.51    4.12
 -11  -4  26    6.12    4.62
  -1   2 -27   37.63    6.24
  -1  -1 -27   34.85    6.34
  -1   2 -27   30.59    4.84
  -1  -1 -27   26.91    5.66
  -2   1 -27   44.34    5.50
  -2   1 -27   36.68    6.73
  -2   1 -27   32.23    6.77
  -2  -2 -27  147.16   17.06
  -2   4 -27  163.49   18.17
  -2  -2 -27  147.50   19.69
  -2  -2 -27  158.14   20.98
  -2   4 -27  175.21   20.49
   0   3 -27    3.12    2.51
  -3   0 -27    0.33    1.46
  -3   0 -27   -6.94    2.74
  -3   0 -27   -1.80    2.77
  -3   3 -27    0.69    2.36
  -3   3 -27    2.96    2.34
  -3   3 -27    4.33    3.27
   0  -3 -27   -2.13    2.51
  -3   6 -27   19.70    4.08
  -3  -3 -27   14.19    3.76
  -3   6 -27   13.06    4.20
  -3  -3 -27   17.46    5.17
  -3   6 -27   22.61    5.29
  -6   3  27   13.89    4.07
  -1   5 -27    2.53    1.96
  -4  -1 -27    5.68    2.72
  -4  -1 -27    2.23    2.76
  -1   5 -27   -3.53    1.58
  -4   2 -27  160.30   18.38
  -4   2 -27  176.12   21.79
  -4   2 -27  156.06   20.95
  -4   5 -27   11.88    3.52
  -1  -4 -27    4.17    2.41
  -4   5 -27    9.46    2.98
  -4   5 -27    8.89    4.02
  -5   1  27    7.50    3.37
  -4  -4 -27   21.29    5.47
  -4   8 -27   20.35    4.86
  -4   8 -27   21.15    3.59
  -4  -4 -27   14.70    4.12
  -4   8 -27   19.61    5.53
  -8   4  27   19.92    4.43
   4   4  27   16.83    4.14
  -5  -2 -27   37.10    6.80
  -5  -2 -27   39.44    7.73
  -2   7 -27   30.48    6.11
  -7   5  27   36.54    6.60
   1   4 -27    3.29    1.96
  -5   1 -27   -1.57    1.74
  -5   1 -27    2.52    2.66
  -5   1 -27   -1.65    0.88
   1  -5 -27    5.76    3.13
  -5   4 -27    6.33    3.15
  -5   4 -27    4.87    2.13
  -5   4 -27    3.23    2.89
  -4  -1  27    6.18    3.08
  -2  -5 -27    1.82    2.02
  -5   7 -27    3.05    3.84
  -5   7 -27    5.10    2.67
  -2  -5 -27    4.31    3.77
  -5   7 -27    0.45    1.37
  -7   2  27    3.44    2.78
  -5  10 -27   -0.11    1.63
  -5  10 -27    2.84    3.00
  -5  10 -27    5.82    4.72
  -5  -5 -27   -3.08    3.00
  -5  -5 -27   -2.93    1.87
   5   5  27    1.39    2.41
 -10   5  27   -2.54    2.56
  -6  -3 -27    1.03    3.53
  -6  -3 -27    5.41    2.79
  -3   9 -27   20.55    5.62
  -3   9 -27    1.63    2.01
  -3   9 -27    1.64    3.56
   6   3  27    1.59    2.36
   3  -9  27   -1.28    2.26
  -9   6  27    4.23    2.52
   0   6 -27   -0.02    1.62
  -6   0 -27   -1.25    2.44
   0   6 -27   -3.27    2.34
  -6   0 -27   -1.43    2.26
   0  -6  27   -1.07    2.21
  -6   6  27    2.74    2.86
  -6   3 -27   17.16    4.86
  -6   3 -27   16.42    3.16
  -6   3 -27   13.85    4.16
  -3  -3  27   12.40    3.87
   0  -6 -27    1.10    1.56
  -6   6 -27   -1.01    1.84
  -6   6 -27   -2.73    2.49
  -6   0  27   -1.14    2.55
  -3  -6 -27   21.19    6.32
  -6   9 -27   10.34    5.05
  -6   9 -27   15.25    4.60
  -6   9 -27   31.59    3.88
  -3  -6 -27   21.62    4.42
   3   6  27   21.87    4.70
  -9   3  27   19.48    4.85
  -6  12 -27    4.56    3.97
  -6  -6 -27    6.19    3.14
  -6  -6 -27   -1.30    3.34
  -6  12 -27    5.47    2.47
  -6  12 -27   -0.69    3.88
   6   6  27    5.29    3.18
 -12   6  27    4.64    3.44
  -7  -4 -27    1.10    2.81
  -4  11 -27   -1.73    3.54
  -4  11 -27    7.90    4.00
  -7  -4 -27    4.06    3.52
  -4  11 -27    1.51    2.31
 -11   7  27    4.91    3.28
   7   4  27    4.69    2.79
  -1   8 -27   -0.39    1.78
  -7  -1 -27    1.69    3.02
  -1   8 -27    2.57    3.24
  -7  -1 -27   -1.85    2.35
   1  -8  27    2.78    2.30
  -8   7  27    0.52    2.77
  -7   2 -27   39.24    5.40
  -7   2 -27   31.80    6.99
  -7   2 -27   32.86    7.65
   2   5 -27   45.67    6.01
  -2  -5  27   41.43    6.71
  -7   5 -27    4.26    2.27
   2  -7 -27    1.58    2.04
  -7   5 -27    0.62    2.73
  -5  -2  27    3.44    2.91
  -1  -7 -27    3.62    2.12
  -7   8 -27    9.46    4.19
  -7   8 -27   10.55    3.39
   1   7  27   16.86    4.11
  -8   1  27   10.02    3.79
  -7  11 -27    0.99    2.96
  -7  11 -27    0.36    2.87
  -4  -7 -27    0.99    3.41
   4   7  27    2.55    2.82
 -11   4  27    3.67    3.10
  -7  -7 -27   -0.19    3.78
  -7  14 -27    4.14    3.81
  -7  14 -27   -1.56    2.73
   7   7  27   -4.71    2.23
 -14   7  27   -3.48    2.76
  -5  13 -27   -0.04    2.75
  -5  13 -27    0.06    2.80
  -8  -5 -27    3.13    3.86
  -5  13 -27    4.22    3.87
  -8  -5 -27   -1.18    2.59
   8   5  27    2.48    2.68
 -13   8  27    1.39    3.35
  -8  -2 -27    7.47    3.85
  -2  10 -27    7.22    3.69
  -2  10 -27   12.71    3.50
  -8  -2 -27   11.86    4.68
 -10   8  27   12.48    3.95
   8   2  27   13.35    3.37
  -8   1 -27   -2.04    2.63
   1   7 -27   -3.52    2.01
   1   7 -27   -0.70    1.82
  -8   1 -27    2.50    2.87
  -7   8  27    1.05    2.30
  -1  -7  27    0.71    2.12
  -7   8  27    1.89    3.07
  -8   4 -27   14.90    4.60
  -8   4 -27   19.15    3.84
  -4   8  27   25.85    4.38
  -4  -4  27   22.22    4.76
  -8   7 -27    9.31    4.00
  -8   7 -27    9.27    3.19
  -1   8  27   10.10    2.48
  -7  -1  27    3.39    3.18
  -8  10 -27    2.69    3.03
  -8  10 -27    5.74    3.32
  -2  -8 -27   -3.41    3.61
   2   8  27    0.90    2.76
 -10   2  27    3.10    3.15
  -5  -8 -27    7.70    4.56
  -8  13 -27    8.23    4.13
  -8  13 -27    6.66    4.17
   5   8  27    6.17    3.56
 -13   5  27    4.30    3.82
  -6  15 -27    4.10    4.55
 -15   9  27   -0.34    3.83
   9   6  27   11.56    4.01
  -3  12 -27    2.77    3.11
  -3  12 -27    0.39    2.47
  -3  12 -27    2.03    4.96
  -9  -3 -27    2.72    3.05
  -9  -3 -27    4.16    3.60
 -12   9  27    0.76    2.51
   9   3  27    2.56    2.54
   0   9 -27    5.91    3.28
  -9   0 -27    0.50    2.94
   0   9 -27    0.33    2.24
  -9   9  27    0.48    2.50
  -9   9  27   -0.71    2.61
   0  -9  27    2.70    2.45
  -9   3 -27    3.25    1.83
  -9   3 -27    5.07    3.67
  -3  -6  27    6.25    3.17
  -6   9  27    5.52    2.90
  -9   6 -27   18.60    4.42
  -9   6 -27   24.54    6.00
  -3   9  27   31.99    4.62
  -6  -3  27   13.35    4.54
  -9   9 -27   -1.71    2.22
  -9   9 -27    1.78    3.31
   0   9  27    1.66    2.70
  -9   0  27   -3.39    2.51
  -9  12 -27   11.78    4.47
  -3  -9 -27    1.69    4.03
  -9  12 -27    5.45    3.79
   3   9  27    5.83    3.51
 -12   3  27    0.23    3.02
  -6  -9 -27   -2.45    3.62
  -9  15 -27    0.77    3.64
  -9  15 -27    0.57    3.87
   6   9  27   -0.41    3.34
 -15   6  27   -3.56    3.71
  -4  14 -27    6.41    5.02
  -4  14 -27    2.45    3.30
 -10  -4 -27   -3.40    2.97
  -4  14 -27    0.54    3.66
 -14  10  27   -4.49    2.99
  10   4  27    5.90    3.21
  -1  11 -27    5.62    4.60
 -10  -1 -27    9.18    4.44
  -1  11 -27    6.78    3.49
 -11  10  27    6.81    3.47
 -11  10  27    4.00    3.22
   2   8 -27   14.54    4.17
   2   8 -27   13.31    3.41
 -10   2 -27    8.80    4.31
  -8  10  27    5.85    3.19
  -2  -8  27   13.80    3.65
  -8  10  27    9.33    3.49
 -10   5 -27   -0.56    1.57
 -10   5 -27    2.97    3.34
  -5  10  27    0.97    2.20
  -5  -5  27    8.32    3.32
 -10   8 -27    1.22    2.76
 -10   8 -27    2.47    3.02
  -8  -2  27    0.22    2.89
  -1 -10 -27    7.76    5.72
 -10  11 -27    3.80    3.29
 -10  11 -27   -1.46    3.39
 -11   1  27    3.05    3.72
   1  10  27   -0.74    3.09
 -10  14 -27    0.12    3.47
  -4 -10 -27    8.24    4.84
 -10  14 -27    5.87    4.28
 -14   4  27   -6.40    3.07
   4  10  27    3.52    3.69
 -11  -2 -27   22.18    5.88
  -2  13 -27   22.77    6.01
  -2  13 -27   17.69    6.99
  -2  13 -27    8.22    3.93
 -13  11  27   12.41    4.51
   1  10 -27    2.43    2.63
   1  10 -27    4.15    4.49
 -11   1 -27   -1.20    3.29
 -10  11  27   12.95    3.70
 -10  11  27    6.60    3.73
 -11   4 -27    4.89    3.49
   4   7 -27    3.35    3.08
   4   7 -27    3.54    2.86
  -7  11  27    5.08    3.05
  -7  11  27    6.72    3.49
  -4  -7  27    6.00    3.33
 -11   7 -27    6.97    2.97
 -11   7 -27    1.47    3.33
  -7  -4  27    2.40    3.01
  -4  11  27    3.34    2.43
 -11  10 -27   -2.44    2.64
 -11  10 -27   -3.68    2.93
  -1  11  27    4.68    3.40
 -10  -1  27   -0.03    3.26
 -11  13 -27    1.09    3.83
  -2 -11 -27  -10.46    4.43
 -11  13 -27   -2.17    3.24
   2  11  27    0.02    3.07
 -13   2  27    3.93    3.99
   0  12 -27    2.89    3.10
   0  12 -27   -3.52    3.79
 -12   0 -27    5.78    3.89
 -12  12  27    4.21    3.59
 -12  12  27    2.80    3.21
   3   9 -27    8.63    3.45
 -12   3 -27    1.42    3.69
   3   9 -27    5.20    4.12
  -9  12  27    1.72    2.47
  -3  -9  27    2.47    3.08
  -9  12  27    0.32    2.66
   6   6 -27    3.26    2.99
 -12   6 -27    6.33    4.12
 -12   6 -27    2.42    2.57
  -6  12  27    9.44    3.17
  -6  -6  27    7.41    3.80
 -12   9 -27    6.60    4.59
 -12   9 -27   10.27    4.22
  -9  -3  27    4.60    3.89
 -12  12 -27   -2.45    3.25
 -12  12 -27   -5.54    2.77
   0 -12 -27   23.57    8.27
   0  12  27    3.64    3.77
 -12   0  27    0.68    3.81
   2  11 -27   21.65    5.16
   2  11 -27   10.01    4.85
 -13   2 -27   18.01    6.04
 -11  13  27   14.29    5.05
   5   8 -27    2.12    3.41
   5   8 -27    2.45    3.14
 -13   5 -27    3.08    3.74
  -5  -8  27   -4.61    2.40
  -8  13  27    2.66    2.88
 -13   8 -27    9.73    4.80
 -13   8 -27    8.51    3.86
   8   5 -27    4.54    3.44
  -5  13  27    2.09    2.86
  -8  -5  27    2.52    3.50
 -13  11 -27    3.78    3.70
 -13  11 -27    0.23    3.49
 -11  -2  27    3.25    4.08
 -14   4 -27   -1.49    3.52
   4  10 -27   -3.47    2.68
   4  10 -27    0.26    3.16
 -10  14  27    3.43    3.68
 -14   7 -27   -4.47    3.37
   7   7 -27    1.91    2.93
  -7  14  27   -0.59    2.83
  -7  -7  27   -0.72    2.89
  10   4 -27    0.63    2.72
 -14  10 -27   15.82    5.07
 -14  10 -27    7.57    4.72
 -10  -4  27    2.33    3.55
  -1  14  27    0.54    4.46
   6   9 -27   -3.59    3.62
   6   9 -27    2.29    3.68
 -15   6 -27    3.98    4.52
  -9  15  27    6.25    3.70
  -6  -9  27    3.31    3.52
   9   6 -27   -0.38    3.15
 -15   9 -27    4.33    5.09
  -9  -6  27    2.10    3.61
  -1   0 -28   52.33    8.50
   0   1 -28   44.21    7.89
  -1   3 -28    1.02    2.50
  -1   3 -28    2.83    2.56
  -2  -1 -28    4.53    1.77
  -2  -1 -28    8.98    4.03
  -2  -1 -28    4.04    3.29
  -2   2 -28   16.72    4.29
  -2   2 -28   20.67    3.60
  -2   2 -28   14.76    4.40
  -2   5 -28   18.28    4.12
  -2   5 -28   13.68    3.56
  -3  -2 -28   11.22    4.02
  -3  -2 -28   21.28    4.44
  -5   3  28   13.38    3.84
  -3   1 -28    2.51    2.07
  -3   1 -28    3.85    3.94
  -3   1 -28   -1.94    2.45
  -1  -3 -28   61.68    9.59
  -3   4 -28   65.88    9.34
  -3   4 -28   62.64    8.49
  -3   4 -28   56.01    9.94
  -3   7 -28   41.98    7.56
  -3   7 -28   34.27    6.67
  -4  -3 -28   35.64    6.41
  -4  -3 -28   34.44    7.74
  -7   4  28   25.30    6.36
  -4   0 -28   21.72    5.27
   0   4 -28   11.73    3.74
  -4   0 -28   21.27    2.73
  -4   0 -28   19.35    4.49
   0   4 -28   10.70    3.37
  -4   3 -28   53.41    9.22
  -4   3 -28   71.15   10.15
  -4   3 -28   52.69    7.25
  -4   6 -28   13.57    3.61
  -4   6 -28    5.47    2.96
  -4   6 -28   11.91    4.88
  -2  -4 -28    8.04    2.90
  -2  -4 -28    8.23    3.93
  -6   2  28    8.32    3.40
  -5  -4 -28   31.44    7.42
  -4   9 -28   40.09    5.25
  -5  -4 -28   30.67    6.19
  -4   9 -28   36.99    6.61
  -4   9 -28   38.03    7.50
   5   4  28   25.24    5.32
  -9   5  28   30.43    6.15
  -1   6 -28   -2.30    2.11
  -5  -1 -28    0.98    3.06
  -1   6 -28    0.37    1.83
  -5  -1 -28    2.04    2.68
  -6   5  28    0.12    2.83
  -5   2 -28   15.63    4.66
  -5   2 -28   17.65    4.86
  -5   2 -28   21.07    3.41
  -2  -3  28   15.13    4.25
   0  -5 -28   11.44    3.79
  -5   5 -28   19.15    4.00
  -5   5 -28   15.97    5.09
  -5   5 -28   15.39    4.40
  -5   0  28   15.62    4.41
  -3  -5 -28    4.02    4.03
  -5   8 -28    4.88    3.62
  -3  -5 -28   10.10    3.14
  -5   8 -28   11.25    2.39
  -5   8 -28    5.67    3.38
  -8   3  28    9.21    3.48
  -6  -5 -28   10.29    3.43
  -5  11 -28    6.83    4.31
  -5  11 -28    2.77    3.43
  -6  -5 -28    8.87    4.18
  -5  11 -28    3.26    2.39
   6   5  28   -1.31    2.22
 -11   6  28    6.66    3.39
  -2   8 -28   28.21    5.64
  -2   8 -28   19.49    3.86
  -6  -2 -28   26.61    6.15
  -6  -2 -28   17.13    4.85
   2  -8  28   15.27    4.11
  -8   6  28   13.50    4.48
  -6   1 -28    0.21    2.58
  -6   1 -28   -0.86    0.93
  -6   1 -28   -2.05    2.48
   1   5 -28    5.72    1.99
   1   5 -28    4.30    2.74
  -1  -5  28   -2.10    2.20
  -6   4 -28   11.93    2.91
  -6   4 -28    7.30    3.79
  -6   4 -28   12.23    4.27
  -4  -2  28   11.68    3.71
  -6   7 -28   15.01    2.42
  -6   7 -28    7.91    4.31
  -1  -6 -28   11.50    3.18
  -6   7 -28   14.66    3.81
  -7   1  28    9.71    3.85
  -6  10 -28   10.25    4.40
  -6  10 -28   13.02    2.76
  -4  -6 -28    7.87    4.19
  -4  -6 -28   10.25    3.26
  -6  10 -28    7.93    3.48
   4   6  28   10.32    3.66
 -10   4  28    4.42    3.23
  -7  -6 -28   10.21    4.97
  -6  13 -28    5.43    4.01
  -7  -6 -28    5.24    3.20
  -6  13 -28    5.71    4.31
   7   6  28    6.73    3.39
 -13   7  28    7.52    3.98
  -7  -3 -28   18.02    5.72
  -7  -3 -28   18.77    4.89
  -3  10 -28   25.72    4.25
  -3  10 -28   15.95    5.76
  -3  10 -28   22.80    5.31
   7   3  28   15.57    4.14
 -10   7  28   16.48    4.79
  -7   0 -28   57.84   10.53
   0   7 -28   52.43    8.85
  -7   0 -28   76.27   10.73
  -7   7  28   59.51    9.01
  -7   3 -28   28.76    6.52
  -7   3 -28   47.16    5.30
  -7   3 -28   21.95    6.10
   3   4 -28   20.36    5.04
  -3  -4  28   32.57    5.91
  -7   6 -28    6.43    3.63
  -7   6 -28    8.92    3.16
   1  -7 -28   12.57    2.85
  -6  -1  28   12.45    3.79
  -2  -7 -28    6.39    5.14
  -7   9 -28    2.08    2.50
  -7   9 -28    1.37    3.37
  -2  -7 -28    1.43    1.77
   2   7  28    3.61    2.79
  -9   2  28   -2.36    2.27
  -7  12 -28    4.10    3.85
  -7  12 -28    2.81    3.80
  -5  -7 -28    3.97    4.14
 -12   5  28    1.74    2.87
   5   7  28    3.48    3.15
  -7  15 -28   -3.68    3.84
  -8  -7 -28    2.92    3.79
  -7  15 -28   -4.53    3.65
   8   7  28   -0.04    2.94
 -15   8  28    0.92    3.80
  -4  12 -28   10.12    4.41
  -4  12 -28    6.04    3.26
  -8  -4 -28    9.27    4.20
  -8  -4 -28    1.14    3.44
  -4  12 -28    3.60    4.83
   8   4  28   14.40    3.77
 -12   8  28    3.15    3.16
  -1   9 -28    0.33    2.23
  -1   9 -28    4.03    3.87
  -8  -1 -28    3.93    3.27
  -8  -1 -28    3.32    3.42
   1  -9  28   -2.43    1.89
  -9   8  28    4.69    3.21
  -8   2 -28   17.78    5.66
  -8   2 -28   11.43    4.61
   2   6 -28   21.47    4.56
  -6   8  28   17.54    4.02
  -2  -6  28   25.24    4.60
  -8   5 -28    2.77    3.27
  -8   5 -28   11.91    3.11
   3  -8 -28    2.15    2.43
  -5  -3  28    5.53    3.04
  -3   8  28    7.83    2.58
  -8   8 -28  119.73   14.32
  -8   8 -28  113.63   15.73
  -8   0  28  107.64   14.58
  -3  -8 -28    0.38    3.78
  -8  11 -28   -2.13    2.54
  -8  11 -28   -0.15    3.00
   3   8  28   -0.05    2.67
 -11   3  28   -0.79    2.64
  -8  14 -28   27.71    6.67
  -6  -8 -28   30.16    8.13
  -8  14 -28   33.54    7.50
   6   8  28   25.75    6.29
 -14   6  28   24.98    6.57
  -5  14 -28    4.20    4.45
  -5  14 -28    6.81    3.59
  -5  14 -28   -0.15    3.65
  -9  -5 -28    6.29    3.84
   9   5  28    2.42    3.04
 -14   9  28    8.66    4.34
  -2  11 -28    2.53    3.70
  -9  -2 -28    5.53    3.58
  -2  11 -28    4.22    2.72
  -9  -2 -28    6.26    3.98
 -11   9  28    7.05    3.58
   9   2  28    7.28    2.96
   1   8 -28    4.33    2.58
  -9   1 -28   -2.28    2.59
   1   8 -28    5.28    3.76
  -8   9  28    5.00    3.32
  -8   9  28   -0.03    2.18
  -1  -8  28    4.26    2.74
  -9   4 -28   31.58    5.39
  -9   4 -28   38.10    7.58
  -4  -5  28   39.52    6.76
  -5   9  28   35.34    5.98
  -9   7 -28    6.73    3.21
  -9   7 -28    3.08    3.53
  -7  -2  28   -0.40    2.89
  -2   9  28    7.35    2.51
  -9  10 -28   12.67    4.81
  -1  -9 -28    7.44    4.95
  -9  10 -28   14.32    4.33
 -10   1  28    2.57    3.41
   1   9  28   15.45    4.33
  -9  13 -28    4.88    3.56
  -9  13 -28    2.57    3.92
  -4  -9 -28   -0.23    3.46
 -13   4  28    1.87    3.79
   4   9  28    0.88    2.98
 -10  -3 -28    6.73    4.07
  -3  13 -28    6.26    3.62
  -3  13 -28    5.91    5.99
  -3  13 -28    2.75    4.30
 -13  10  28    7.02    3.83
  10   3  28    3.80    2.96
   0  10 -28    3.73    2.81
   0  10 -28   -0.53    3.26
 -10   0 -28   -1.79    2.85
 -10  10  28   -3.45    2.46
 -10  10  28    0.82    2.97
   3   7 -28   11.79    3.77
 -10   3 -28   14.91    5.05
   3   7 -28   18.21    4.54
  -7  10  28   11.59    3.89
  -3  -7  28    8.84    3.62
  -7  10  28   10.42    3.98
 -10   6 -28   13.72    3.50
 -10   6 -28    4.61    4.03
  -6  -4  28    6.53    3.48
  -4  10  28    7.64    3.04
 -10   9 -28   11.10    4.63
 -10   9 -28   25.78    5.39
  -9  -1  28    8.44    3.79
 -10  12 -28    8.43    4.80
 -10  12 -28   14.41    4.72
  -2 -10 -28   11.84    5.69
   2  10  28   16.02    4.65
 -12   2  28   10.35    4.94
 -10  15 -28    6.30    3.93
 -10  15 -28   -0.66    4.02
 -15   5  28    3.68    4.06
   5  10  28    1.12    3.75
 -11  -1 -28   -0.93    3.70
  -1  12 -28    0.92    2.92
  -1  12 -28    4.47    4.04
 -12  11  28    2.76    3.09
 -11   2 -28   14.19    4.77
   2   9 -28    6.23    4.28
   2   9 -28    5.95    2.99
  -9  11  28    5.69    3.63
  -2  -9  28   12.72    3.82
  -9  11  28    5.66    3.54
 -11   5 -28    3.31    3.69
   5   6 -28    4.39    2.78
  -5  -6  28    3.71    2.92
  -6  11  28    1.26    2.51
 -11   8 -28    1.36    2.96
 -11   8 -28    2.92    3.00
  -8  -3  28   -0.32    3.01
 -11  11 -28    9.97    4.66
 -11  11 -28    2.79    3.51
   0 -11 -28    6.06    5.52
   0  11  28    9.64    4.28
 -11   0  28    5.52    4.35
  -3 -11 -28    1.90    4.45
 -11  14 -28    6.74    4.53
 -11  14 -28    6.35    4.34
   3  11  28   -3.22    2.74
 -14   3  28    0.69    4.05
  -2  14 -28    0.65    4.50
 -12  -2 -28   -0.14    3.57
  -2  14 -28   -0.99    3.37
 -14  12  28   -2.51    3.11
 -12   1 -28    4.64    4.24
   1  11 -28   -0.09    2.76
   1  11 -28    1.29    3.50
 -11  12  28   -3.49    2.57
 -11  12  28   -4.60    2.38
 -12   4 -28    9.94    4.77
   4   8 -28    6.19    3.30
   4   8 -28    4.30    4.00
  -8  12  28    1.61    2.97
  -4  -8  28   10.32    3.93
  -8  12  28    3.15    3.04
   7   5 -28    4.58    2.92
 -12   7 -28   12.40    4.99
 -12   7 -28   -0.82    2.67
  -7  -5  28    5.78    3.69
  -5  12  28    6.33    3.01
 -12  10 -28    6.75    4.24
 -12  10 -28   12.01    4.46
 -10  -2  28    8.37    4.40
  -1 -12 -28   -8.19    4.60
 -12  13 -28    4.37    4.40
 -12  13 -28    1.81    3.58
 -13   1  28   -2.41    3.51
   1  12  28    1.95    3.70
 -13   0 -28    7.15    4.78
   0  13 -28    3.39    3.70
   0  13 -28    9.13    5.23
 -13  13  28    3.05    4.41
 -13   3 -28    1.60    4.34
   3  10 -28    7.61    3.80
   3  10 -28    4.92    4.01
 -10  13  28    7.94    4.23
   6   7 -28    6.74    3.74
   6   7 -28    7.48    4.18
 -13   6 -28    7.50    4.40
  -6  -7  28    9.11    4.07
  -7  13  28    5.79    3.53
 -13   9 -28    8.69    3.79
   9   4 -28    2.50    3.14
 -13   9 -28    1.37    4.04
  -9  -4  28   -1.84    3.02
 -13  12 -28   -1.63    4.00
 -13  12 -28    5.40    4.71
   1 -13 -28   11.07    6.33
 -12  -1  28    5.68    4.46
  -1  13  28    1.48    3.95
   2  12 -28    0.57    4.44
 -14   2 -28    3.22    4.41
   2  12 -28   -4.40    2.76
 -12  14  28    0.34    3.81
   5   9 -28   14.10    5.12
 -14   5 -28   -4.63    3.87
   5   9 -28    1.06    3.26
  -5  -9  28    8.82    3.87
  -9  14  28    0.09    3.30
 -14   8 -28   15.34    6.17
   8   6 -28   24.88    5.51
  -8  -6  28   23.81    5.95
  -6  14  28   29.83    5.80
  11   3 -28    2.43    3.56
 -14  11 -28    2.68    3.99
 -14  11 -28   -3.84    3.73
 -11  -3  28    7.81    4.17
 -15   7 -28    3.49    4.90
   7   8 -28    3.53    3.25
   7   8 -28   -0.93    4.02
  -8  15  28   -0.35    2.94
  -7  -8  28   -6.22    2.80
 -15  10 -28    0.44    3.89
  10   5 -28    3.07    3.28
 -15  10 -28    1.29    4.69
 -10  -5  28    1.79    3.76
  -1   1 -29    2.81    3.08
  -2   0 -29    1.13    1.68
  -2   0 -29    1.32    3.43
  -2   0 -29    1.02    3.05
   0   2 -29    0.17    2.60
  -1  -2 -29   98.95   14.42
  -2   3 -29  107.77   12.33
  -1  -2 -29   95.77   13.74
  -2   3 -29  107.09   14.23
  -3  -1 -29   34.99    6.71
  -1   4 -29   27.72    5.69
  -1   4 -29   24.12    5.06
  -3  -1 -29   29.38    6.12
  -3  -1 -29   33.27    3.89
  -3   2 -29  103.12   12.33
  -3   2 -29  112.41   14.75
  -3   2 -29  102.04   14.40
  -2  -3 -29   33.36    6.41
  -3   5 -29   39.87    7.40
  -2  -3 -29   28.93    7.03
  -3   5 -29   45.23    7.14
  -3   5 -29   35.41    6.24
  -5   2  29   41.72    7.01
  -4  -2 -29   76.72   10.69
  -2   6 -29   85.11   10.83
  -2   6 -29   67.91   10.41
  -4  -2 -29   70.32   12.24
  -6   4  29   70.06   10.71
  -4   1 -29   26.95    6.27
  -4   1 -29   34.86    4.58
   1   3 -29   35.26    6.08
  -4   1 -29   25.05    6.05
   0  -4 -29    1.47    2.68
  -4   4 -29    4.20    3.75
  -4   4 -29   -0.97    2.00
  -4   4 -29    0.59    1.95
  -4   0  29   -0.13    2.80
  -3  -4 -29   30.28    7.42
  -4   7 -29   50.20    8.69
  -4   7 -29   30.94    6.49
  -3  -4 -29   30.08    5.94
  -7   3  29   31.79    6.33
  -3   8 -29   11.96    4.13
  -3   8 -29   15.07    4.94
  -3   8 -29    4.33    2.35
  -5  -3 -29    7.31    3.15
  -5  -3 -29    2.52    4.11
  -8   5  29    0.68    2.46
  -5   0 -29   -0.68    2.90
  -5   0 -29   -1.65    2.26
   0   5 -29    1.72    1.96
  -5   0 -29    1.02    0.79
   0   5 -29    1.26    2.69
  -5   3 -29   41.52    7.53
  -5   3 -29   32.37    6.93
  -5   3 -29   35.92    5.32
  -3  -2  29   29.28    6.23
  -5   6 -29    5.45    2.84
  -5   6 -29    7.40    4.26
  -1  -5 -29    7.54    2.66
  -6   1  29    1.38    2.91
  -5   9 -29   -1.12    2.83
  -5   9 -29    1.24    1.68
  -4  -5 -29    1.45    3.69
  -4  -5 -29    2.61    2.36
  -5   9 -29    2.53    4.04
   4   5  29    1.15    2.43
  -9   4  29   -0.84    2.83
  -4  10 -29   42.18    5.64
  -4  10 -29   31.45    6.47
  -6  -4 -29   24.76    6.25
  -6  -4 -29   32.06    7.73
  -4  10 -29   34.69    7.65
 -10   6  29   38.07    6.85
   6   4  29   35.41    6.12
  -1   7 -29   11.75    4.15
  -6  -1 -29    4.74    4.25
  -6  -1 -29   20.40    4.75
   1  -7  29   11.35    3.63
  -7   6  29   17.13    4.29
  -6   2 -29   70.09   11.03
  -6   2 -29   68.28    8.21
  -6   2 -29   74.65   11.76
   2   4 -29   60.66   10.03
  -2  -4  29   75.14   10.06
  -6   5 -29    4.28    2.38
   1  -6 -29    7.60    2.97
  -6   5 -29    2.47    3.07
  -6   5 -29    1.45    2.66
  -5  -1  29    6.68    3.46
  -6   8 -29    7.94    3.60
  -6   8 -29    3.96    4.72
  -2  -6 -29   12.48    3.41
  -6   8 -29   15.26    2.64
  -2  -6 -29   28.05    7.23
  -8   2  29   11.92    4.15
  -6  11 -29   11.54    4.42
  -5  -6 -29    8.30    4.93
  -6  11 -29    0.05    3.31
  -5  -6 -29    9.63    3.46
   5   6  29    9.63    3.57
 -11   5  29   12.00    4.13
  -5  12 -29    5.21    2.78
  -5  12 -29    3.51    3.55
  -7  -5 -29    1.16    3.53
  -7  -5 -29    0.11    2.83
  -5  12 -29   -3.16    3.47
   7   5  29    1.34    2.69
 -12   7  29    5.04    3.26
  -7  -2 -29   29.54    7.61
  -2   9 -29   35.63    5.41
  -2   9 -29   34.46    7.01
  -7  -2 -29   36.49    6.90
  -9   7  29   24.63    5.88
   2  -9  29   40.30    5.99
   1   6 -29   14.13    4.18
  -7   1 -29   14.62    4.90
   1   6 -29   13.35    3.14
  -7   1 -29   16.31    4.67
  -1  -6  29   11.08    3.72
  -7   4 -29   35.80    7.17
  -7   4 -29   26.20    6.73
  -7   4 -29   40.25    5.74
  -4  -3  29   31.68    6.19
   0  -7 -29    1.02    1.50
  -7   7 -29    1.17    2.44
  -7   7 -29   -5.59    2.29
  -7   0  29    4.53    3.24
  -7  10 -29    3.32    2.99
  -3  -7 -29   -2.39    3.47
  -7  10 -29   -0.34    3.20
   3   7  29    1.88    2.77
  -7  13 -29   19.64    5.45
  -6  -7 -29    5.96    4.32
  -7  13 -29   21.96    5.73
 -13   6  29    5.62    4.00
   6   7  29    8.45    3.81
  -6  14 -29    0.53    3.97
  -6  14 -29   -0.40    3.29
  -8  -6 -29   -2.57    3.34
   8   6  29    5.54    3.45
 -14   8  29    1.01    3.73
  -3  11 -29    4.52    3.03
  -3  11 -29    6.97    4.27
  -8  -3 -29    1.26    3.07
  -8  -3 -29    3.61    4.08
  -3  11 -29   10.50    5.42
   8   3  29    6.28    2.86
 -11   8  29    1.51    3.28
   0   8 -29    1.12    2.30
  -8   0 -29   -2.81    2.40
   0   8 -29   -1.24    3.13
  -8   0 -29   -2.84    2.70
  -8   8  29   -1.21    3.05
   0  -8  29   -0.05    2.24
   3   5 -29   16.11    3.03
  -8   3 -29    8.25    2.37
  -8   3 -29    6.34    3.74
  -8   3 -29    9.44    4.26
  -3  -5  29    9.45    3.40
  -8   6 -29   10.70    4.49
   2  -8 -29   18.88    3.52
  -8   6 -29   20.66    4.21
  -6  -2  29   12.15    4.20
  -8   9 -29    5.99    3.75
  -8   9 -29   10.00    3.85
  -1  -8 -29   20.27    5.64
  -9   1  29    6.71    3.90
  -8  12 -29   14.42    5.09
  -8  12 -29   17.71    4.94
  -4  -8 -29   22.72    6.44
 -12   4  29    8.73    4.23
   4   8  29   14.93    4.67
  -7  -8 -29    0.52    4.20
  -8  15 -29   -0.59    3.71
  -8  15 -29    2.09    3.97
 -15   7  29   -1.49    3.68
   7   8  29   -1.12    3.19
  -9  -4 -29    2.25    4.15
  -4  13 -29   -2.42    3.21
  -4  13 -29    1.30    5.02
  -9  -4 -29    0.25    2.97
  -4  13 -29    1.41    2.88
   9   4  29   -4.08    2.35
 -13   9  29    1.47    3.16
  -9  -1 -29    4.31    4.12
  -1  10 -29    0.47    2.44
  -1  10 -29    0.72    2.81
  -9  -1 -29    2.12    3.17
 -10   9  29    2.15    3.00
   2   7 -29   26.58    6.06
  -9   2 -29   28.68    7.14
   2   7 -29   32.11    5.77
  -7   9  29   37.30    6.66
  -7   9  29   39.98    6.55
  -2  -7  29   36.15    6.23
  -9   5 -29   -0.53    1.67
  -9   5 -29    0.57    2.82
  -5  -4  29   -2.72    2.09
  -4   9  29   -4.28    1.66
  -9   8 -29    8.47    4.14
  -9   8 -29    7.09    3.33
  -8  -1  29    8.37    3.84
  -2  -9 -29   -0.15    5.03
  -9  11 -29   -0.03    3.63
  -9  11 -29    3.03    3.41
 -11   2  29    2.65    2.95
   2   9  29    4.56    3.22
  -9  14 -29    1.08    3.65
  -9  14 -29   -3.39    3.23
  -5  -9 -29    7.21    4.51
 -14   5  29    1.06    3.62
   5   9  29    2.50    3.17
  -2  12 -29   53.89    7.93
  -2  12 -29   48.82    8.44
 -10  -2 -29   47.58    9.22
  -2  12 -29   44.14    9.73
 -12  10  29   36.42    7.82
   1   9 -29    2.24    3.41
   1   9 -29    3.95    2.67
 -10   1 -29    9.13    4.24
  -9  10  29    0.57    2.68
  -1  -9  29    4.73    2.73
  -9  10  29    1.73    2.67
 -10   4 -29   30.58    7.38
  -4  -6  29   39.02    6.74
  -6  10  29   38.19    6.54
 -10   7 -29   -2.70    2.72
 -10   7 -29   -1.01    2.39
  -3  10  29    2.31    2.12
  -7  -3  29    1.00    2.79
 -10  10 -29   -2.53    3.27
 -10  10 -29    4.58    3.37
 -10   0  29    1.33    2.92
  -3 -10 -29   -0.99    4.23
 -10  13 -29    4.61    3.76
 -10  13 -29    0.77    3.72
 -13   3  29   -1.82    3.26
   3  10  29   -1.48    2.97
  -3  14 -29    3.15    6.26
  -3  14 -29   -1.66    3.02
 -11  -3 -29    0.76    3.42
  -3  14 -29    2.29    3.94
 -14  11  29    3.35    4.08
 -11   0 -29    4.17    3.98
   0  11 -29    1.63    2.72
   0  11 -29   -5.82    3.18
 -11  11  29   -3.57    2.47
 -11  11  29   -0.81    2.57
   3   8 -29    1.13    3.17
   3   8 -29    1.50    2.68
 -11   3 -29    9.17    4.69
  -8  11  29    7.92    3.35
  -3  -8  29    9.38    3.63
  -8  11  29    7.13    3.67
 -11   6 -29    7.65    4.57
 -11   6 -29    6.57    2.90
  -5  11  29    8.91    3.19
  -6  -5  29    6.29    3.42
 -11   9 -29   -6.17    2.29
 -11   9 -29    0.85    3.18
  -9  -2  29   -4.32    2.89
 -11  12 -29   -5.06    2.83
 -11  12 -29   -1.81    3.52
  -1 -11 -29   -1.72    6.31
   1  11  29   -1.61    3.33
 -12   1  29   -2.17    3.37
  -1  13 -29    8.84    4.98
 -12  -1 -29    7.77    4.53
  -1  13 -29    1.29    3.59
 -13  12  29    2.19    3.37
   2  10 -29   39.73    7.96
 -12   2 -29   44.99    9.42
   2  10 -29   40.31    7.27
 -10  12  29   41.31    7.97
 -10  12  29   40.64    7.22
   5   7 -29    2.36    2.73
   5   7 -29    4.19    3.63
 -12   5 -29    1.44    3.33
  -7  12  29   -0.26    2.66
  -5  -7  29    2.26    2.99
  -7  12  29    0.05    3.03
 -12   8 -29   16.35    5.62
 -12   8 -29    7.99    4.00
  -8  -4  29    8.55    4.44
 -12  11 -29   -0.33    3.49
 -12  11 -29    4.76    3.73
 -11  -1  29    2.94    4.07
 -12  14 -29    2.09    3.91
  -2 -12 -29    3.24    5.12
 -12  14 -29    5.64    4.59
 -14   2  29    7.74    4.88
   2  12  29   -1.20    3.85
   1  12 -29    2.95    4.65
   1  12 -29    1.64    3.26
 -13   1 -29   -4.10    3.53
 -12  13  29    5.45    3.96
 -13   4 -29    0.52    3.89
   4   9 -29    2.27    3.85
   4   9 -29   -1.39    2.81
  -9  13  29    0.54    2.82
  -4  -9  29   -3.09    2.62
 -13   7 -29   15.44    5.96
   7   6 -29   14.56    4.71
  -7  -6  29   13.04    4.95
  -6  13  29   19.41    4.78
 -13  10 -29    4.86    3.91
 -13  10 -29    7.40    4.43
 -10  -3  29   -2.84    3.07
 -13  13 -29    0.14    3.48
 -13  13 -29   -2.04    3.99
   0 -13 -29   -1.06    6.41
   0  13  29   -1.67    3.72
 -13   0  29   -0.22    3.77
   3  11 -29    1.91    4.36
 -14   3 -29   -2.02    4.17
   3  11 -29    2.82    3.48
 -11  14  29   -0.20    3.42
   6   8 -29    3.52    4.06
 -14   6 -29    3.62    4.50
   6   8 -29    4.24    3.56
  -8  14  29   -4.51    2.76
  -6  -8  29    2.75    3.29
 -14   9 -29    7.53    3.89
   9   5 -29    0.64    3.40
 -14   9 -29    9.33    5.14
  -9  -5  29    7.11    4.29
  12   2 -29   -1.43    3.01
 -14  12 -29    2.49    3.90
 -14  12 -29    1.74    4.25
 -12  -2  29   -3.88    3.77
   8   7 -29    1.41    3.59
 -15   8 -29   -0.12    4.67
   8   7 -29    4.41    3.63
  -8  -7  29    1.94    3.66
  -1  -1 -30   -0.69    2.80
  -1   2 -30    1.59    1.93
  -1   2 -30    3.48    2.70
  -1  -1 -30    0.51    2.59
  -2   1 -30    1.11    1.68
  -2   1 -30    0.96    3.06
  -2   1 -30    2.13    2.82
  -2   4 -30   63.96    7.53
  -2   4 -30   60.43    8.42
  -2  -2 -30   35.27    7.98
  -2  -2 -30   43.33    5.53
  -2  -2 -30   43.29    7.78
   0   3 -30    4.91    2.83
  -3   0 -30    4.10    1.70
  -3   0 -30    6.56    3.47
  -3   0 -30    6.07    3.53
   0  -3 -30   85.36   12.25
  -3   3 -30  106.16   12.80
  -3   3 -30   82.87   10.82
  -3   3 -30   87.61   12.75
  -3  -3 -30    8.26    3.09
  -3  -3 -30   10.54    4.27
  -3   6 -30   11.97    3.77
  -3   6 -30    7.37    4.01
  -3   6 -30   14.69    4.04
  -6   3  30    8.37    4.02
  -4  -1 -30   22.77    5.19
  -1   5 -30   21.72    4.71
  -4  -1 -30   20.28    5.50
  -1   5 -30   20.42    4.51
  -4   2 -30   48.28    6.24
  -4   2 -30   51.49    9.02
  -4   2 -30   43.28    8.16
  -4   5 -30   14.74    4.20
  -4   5 -30   14.03    3.72
  -4   5 -30   18.73    5.49
  -1  -4 -30   14.36    4.08
  -5   1  30   15.08    4.14
  -4  -4 -30   14.22    4.38
  -4  -4 -30   11.72    5.20
  -4   8 -30   21.02    3.59
  -4   8 -30   18.66    4.93
  -4   8 -30   31.34    7.48
  -8   4  30   17.32    4.79
  -2   7 -30    1.29    3.19
  -5  -2 -30    5.88    3.86
  -5  -2 -30    5.02    3.12
  -7   5  30    8.42    3.60
  -5   1 -30   25.03    6.27
  -5   1 -30   19.62    5.63
   1   4 -30   26.00    5.11
  -5   1 -30   28.29    3.90
  -5   4 -30   13.59    3.23
  -5   4 -30    6.45    3.57
  -5   4 -30   13.74    4.16
   1  -5 -30   14.13    4.22
  -4  -1  30   11.63    3.82
  -2  -5 -30   17.71    4.15
  -2  -5 -30   17.19    5.51
  -5   7 -30   16.16    4.27
  -5   7 -30   26.45    6.15
  -7   2  30   16.87    4.59
  -5  10 -30    6.47    4.10
  -5  -5 -30    5.02    4.17
  -5  -5 -30    5.43    2.93
  -5  10 -30    1.52    3.15
  -5  10 -30    2.60    2.12
   5   5  30    7.57    3.13
 -10   5  30    2.54    3.15
  -3   9 -30   59.86    9.78
  -3   9 -30   39.91    8.16
  -6  -3 -30   46.34    9.50
  -6  -3 -30   57.31    9.07
  -3   9 -30   61.43    7.18
   3  -9  30   38.03    7.17
  -9   6  30   44.63    8.12
   0   6 -30  101.27   15.25
  -6   0 -30  112.21   16.55
   0   6 -30  131.49   14.84
  -6   0 -30  119.02   15.89
   0  -6  30  138.53   14.75
  -6   3 -30    0.01    3.39
  -6   3 -30    9.59    2.47
  -6   3 -30   11.96    4.27
  -3  -3  30    8.73    3.79
   0  -6 -30   55.10   10.07
  -6   6 -30   77.47   12.16
  -6   6 -30   79.08    9.73
  -6   0  30   99.82   10.77
  -3  -6 -30    5.95    4.64
  -6   9 -30    1.60    3.31
  -6   9 -30    5.04    4.57
  -3  -6 -30   10.76    3.25
  -6   9 -30    8.55    2.10
  -9   3  30    9.34    3.80
  -6  -6 -30    4.86    2.96
  -6  -6 -30    9.22    4.63
  -6  12 -30   13.41    4.76
  -6  12 -30    4.51    3.92
 -12   6  30    2.68    3.27
   6   6  30    7.37    3.52
  -4  11 -30    4.36    2.71
  -4  11 -30   -0.58    3.58
  -7  -4 -30    0.61    3.48
  -4  11 -30   15.68    6.00
  -7  -4 -30    8.25    3.74
   7   4  30    1.23    2.49
 -11   7  30   -3.46    2.75
  -7  -1 -30   -1.98    2.76
  -7  -1 -30   -2.55    2.64
  -1   8 -30   -0.77    3.21
  -1   8 -30    0.31    2.25
  -8   7  30   -4.91    2.40
   1  -8  30    1.11    2.35
  -7   2 -30    5.09    1.84
  -7   2 -30   12.43    4.29
  -7   2 -30    7.84    3.99
   2   5 -30   13.69    2.88
  -2  -5  30    1.20    2.43
   2  -7 -30   20.15    4.37
  -7   5 -30   24.05    4.33
  -7   5 -30   20.02    5.50
  -5  -2  30   14.65    4.52
  -7   8 -30   14.94    4.64
  -1  -7 -30   39.36    7.44
  -7   8 -30   27.35    6.47
  -1  -7 -30   22.79    4.25
  -8   1  30   15.07    4.97
  -7  11 -30   -0.57    3.43
  -7  11 -30    4.00    4.51
  -4  -7 -30    9.04    5.12
   4   7  30    9.76    3.74
 -11   4  30    0.87    2.74
  -7  -7 -30   -1.03    4.05
  -7  14 -30    0.25    3.78
  -7  14 -30    6.08    4.25
 -14   7  30    2.32    3.67
   7   7  30    0.49    3.26
  -5  13 -30    3.67    4.18
  -8  -5 -30    2.48    3.12
  -5  13 -30    4.63    3.24
  -5  13 -30    4.59    4.83
  -8  -5 -30   10.37    4.94
 -13   8  30    5.13    4.03
   8   5  30    4.41    3.12
  -2  10 -30    6.35    3.84
  -8  -2 -30    1.12    2.91
  -8  -2 -30    3.10    3.42
  -2  10 -30   -0.74    2.21
 -10   8  30    6.34    3.49
   1   7 -30   -0.13    3.09
  -8   1 -30    3.67    3.03
  -8   1 -30   -0.54    2.70
  -7   8  30    1.08    3.32
  -1  -7  30    4.22    2.55
  -8   4 -30   25.95    4.41
  -8   4 -30   32.29    6.69
  -4  -4  30   16.95    4.81
  -8   7 -30   25.56    4.96
  -8   7 -30   14.65    5.27
  -7  -1  30   21.66    5.32
  -8  10 -30    2.20    3.48
  -2  -8 -30    3.76    4.38
  -8  10 -30   -1.54    2.40
   2   8  30   -2.26    2.71
 -10   2  30    0.50    2.77
  -5  -8 -30   19.97    6.79
  -8  13 -30   14.20    5.22
  -8  13 -30   20.22    5.87
   5   8  30   27.97    5.74
 -13   5  30   15.41    5.38
  -3  12 -30   -2.89    3.16
  -9  -3 -30   -0.96    2.76
  -3  12 -30   -8.07    4.38
  -3  12 -30   -1.42    2.61
  -9  -3 -30    0.41    3.40
 -12   9  30    1.33    2.84
   9   3  30    0.43    2.41
  -9   0 -30    5.71    3.68
   0   9 -30    2.46    3.29
   0   9 -30    1.94    2.51
  -9   0 -30    4.46    3.46
  -9   9  30    1.61    2.72
   0  -9  30    2.28    2.63
  -9   3 -30   37.97    7.85
   3   6 -30   39.47    7.02
  -3  -6  30   38.36    6.96
  -9   6 -30    4.40    2.70
  -9   6 -30    4.82    3.81
  -6  -3  30    4.05    3.24
  -9   9 -30   69.07   11.13
  -9   9 -30   57.64    9.20
  -9   0  30   52.79    9.34
  -9  12 -30   -1.43    2.76
  -9  12 -30    5.41    4.10
  -3  -9 -30    0.40    4.44
 -12   3  30   10.83    4.54
   3   9  30    7.89    3.62
  -4  14 -30    7.12    4.54
 -10  -4 -30    8.02    4.14
  -4  14 -30    1.54    4.74
  -4  14 -30    1.94    3.23
  10   4  30    7.02    4.11
 -14  10  30    4.90    4.11
  -1  11 -30    6.13    3.25
  -1  11 -30   -4.03    2.91
 -10  -1 -30    1.05    3.42
 -11  10  30    3.86    3.02
   2   8 -30    1.19    3.18
 -10   2 -30    0.97    3.49
   2   8 -30    3.71    2.83
  -2  -8  30    4.35    2.81
  -8  10  30    0.04    2.87
  -8  10  30   -0.08    2.63
 -10   5 -30    0.54    3.48
 -10   5 -30    6.67    2.52
  -5  -5  30    4.22    3.21
  -5  10  30    6.31    2.78
 -10   8 -30   -1.00    2.25
 -10   8 -30   -1.96    2.90
  -8  -2  30   -0.48    3.04
 -10  11 -30    9.12    4.19
 -10  11 -30    2.32    3.86
  -1 -10 -30    9.06    5.44
   1  10  30    7.67    3.80
 -11   1  30    3.78    3.59
 -10  14 -30    4.77    4.38
 -10  14 -30   -0.44    3.74
  -4 -10 -30   -2.25    4.62
 -14   4  30    0.31    3.96
   4  10  30    0.24    3.41
  -2  13 -30    9.53    6.40
  -2  13 -30   -0.60    3.28
  -2  13 -30    0.50    3.04
 -11  -2 -30    0.48    3.64
 -13  11  30    2.59    3.42
 -11   1 -30    2.06    4.06
   1  10 -30   -0.85    2.86
   1  10 -30   -0.18    2.63
 -10  11  30    3.59    3.30
 -10  11  30   -2.74    2.71
   4   7 -30    3.66    3.04
   4   7 -30    4.78    3.73
 -11   4 -30    1.37    3.53
  -7  11  30   11.24    4.32
  -7  11  30   -0.36    2.54
  -4  -7  30    3.98    3.09
 -11   7 -30   12.75    5.37
 -11   7 -30    9.69    3.77
  -7  -4  30    8.68    4.08
  -4  11  30    7.17    2.95
 -11  10 -30    5.55    4.29
 -11  10 -30    5.28    3.67
 -10  -1  30    5.66    4.01
  -2 -11 -30    0.42    4.86
 -11  13 -30    6.18    4.46
 -11  13 -30   11.40    5.05
   2  11  30    1.64    3.21
 -13   2  30    1.70    3.70
 -12   0 -30   -0.02    4.02
   0  12 -30   -0.04    4.20
   0  12 -30    3.83    3.40
 -12  12  30    4.72    3.44
   3   9 -30    1.16    3.67
   3   9 -30   -2.31    2.40
 -12   3 -30   -2.46    2.98
  -3  -9  30   -1.56    2.70
  -9  12  30   -0.40    2.93
  -9  12  30   -2.43    2.40
 -12   6 -30   12.14    5.00
   6   6 -30    0.04    2.82
  -6  -6  30    3.89    3.72
  -6  12  30    4.15    2.95
 -12   9 -30   -1.38    3.35
 -12   9 -30   -1.23    2.95
  -9  -3  30    3.65    4.00
   0 -12 -30    3.31    6.42
 -12  12 -30   -3.49    3.77
 -12  12 -30   -0.13    3.48
 -12   0  30   -3.85    3.07
 -13   2 -30   -0.55    3.78
   2  11 -30   -5.29    3.83
   2  11 -30    0.13    2.85
 -11  13  30    1.90    3.52
   5   8 -30    1.70    3.94
 -13   5 -30   11.62    5.38
   5   8 -30    5.42    3.49
  -5  -8  30    3.79    3.45
  -8  13  30    3.49    3.31
 -13   8 -30   20.73    5.39
   8   5 -30   20.34    5.32
 -13   8 -30   18.96    6.44
  -8  -5  30   28.38    6.53
 -13  11 -30    8.01    4.91
 -13  11 -30    5.83    4.29
 -11  -2  30    5.41    4.28
 -14   4 -30   11.55    6.13
   4  10 -30    2.02    3.65
   4  10 -30    5.20    3.80
 -10  14  30    1.11    3.47
   7   7 -30   -3.54    3.56
   7   7 -30   -1.45    3.14
 -14   7 -30   -3.19    4.12
  -7  14  30   -0.16    2.84
  -7  -7  30    2.28    3.50
 -14  10 -30    1.11    4.52
  10   4 -30   -2.03    3.26
 -14  10 -30    1.63    3.76
 -10  -4  30    5.87    4.08
   0   1 -31    0.11    2.39
  -1   0 -31   -1.04    2.79
  -2  -1 -31   36.02    7.08
  -1   3 -31   33.41    5.52
  -2  -1 -31   30.78    6.76
  -2  -1 -31   35.36    4.64
  -1   3 -31   32.05    6.43
  -2   2 -31   -1.94    1.71
  -2   2 -31    4.02    3.41
  -2   2 -31    0.02    2.54
  -3  -2 -31   -0.63    2.23
  -2   5 -31    3.88    2.51
  -3  -2 -31   -1.06    2.90
  -2   5 -31    0.86    2.31
  -3   1 -31   40.48    7.30
   1   2 -31   38.38    6.95
  -3   1 -31   32.89    5.08
  -3   1 -31   33.84    7.22
  -1  -3 -31   45.55    7.92
  -3   4 -31   41.93    8.14
  -3   4 -31   52.15    7.22
  -3   4 -31   38.45    7.78
  -1  -3 -31   46.74    8.30
  -3   7 -31   57.70    9.88
  -3   7 -31   77.78   11.93
  -4  -3 -31   73.01   12.29
  -4  -3 -31   80.72   10.54
  -7   4  31   72.36   10.76
   0   4 -31    2.44    2.40
  -4   0 -31    3.11    2.70
   0   4 -31    4.21    2.75
  -4   0 -31    1.11    2.64
  -4   0 -31    1.30    1.13
  -4   3 -31   54.44    6.78
  -4   3 -31   39.23    7.90
  -4   3 -31   35.82    7.93
  -4   6 -31   33.44    7.90
  -4   6 -31   25.36    5.67
  -2  -4 -31   27.59    7.25
  -4   6 -31   19.46    5.36
  -2  -4 -31   27.69    5.62
  -6   2  31   24.12    5.88
  -4   9 -31    9.26    5.18
  -5  -4 -31   -2.72    3.33
  -4   9 -31    5.26    2.19
  -4   9 -31    6.08    3.93
  -5  -4 -31    2.36    2.77
  -9   5  31    5.24    3.25
  -1   6 -31   39.05    7.02
  -1   6 -31   54.37    7.66
  -5  -1 -31   35.65    8.56
  -5  -1 -31   45.71    8.02
  -6   5  31   40.76    7.41
   2   3 -31   -1.61    2.50
  -5   2 -31   -0.95    2.67
  -5   2 -31   -2.24    2.40
  -5   2 -31    3.22    1.70
  -2  -3  31    3.80    3.15
   0  -5 -31    0.36    3.37
  -5   5 -31   -0.96    2.59
  -5   5 -31   -7.28    2.73
  -5   5 -31   -9.21    4.17
  -5   0  31    4.26    4.19
  -5   8 -31    0.70    1.57
  -5   8 -31   -1.16    2.72
  -5   8 -31   -1.77    3.50
  -3  -5 -31   -0.53    2.09
  -3  -5 -31   -3.04    3.16
  -8   3  31    5.33    2.89
  -5  11 -31   10.38    5.79
  -6  -5 -31   12.44    4.31
  -6  -5 -31   13.93    5.66
  -5  11 -31    9.51    4.58
  -5  11 -31   11.26    3.23
 -11   6  31   10.22    4.31
   6   5  31    5.83    3.29
  -2   8 -31   -0.17    2.80
  -6  -2 -31    2.40    3.08
  -6  -2 -31   -1.25    2.98
  -2   8 -31   -0.55    1.84
   2  -8  31   -1.93    2.63
  -8   6  31    1.83    2.81
   1   5 -31   41.07    6.77
  -6   1 -31   41.50    7.68
   1   5 -31   49.03    7.26
  -6   1 -31   35.99    8.26
  -1  -5  31   35.01    6.77
  -6   4 -31    7.57    5.37
   2  -6 -31   45.13    6.20
  -6   4 -31   21.99    5.74
  -6   4 -31   29.30    4.73
  -4  -2  31   23.26    5.42
  -6   7 -31   12.58    2.62
  -1  -6 -31   50.61    7.43
  -1  -6 -31   15.63    3.62
  -6   7 -31   12.68    4.00
  -6   7 -31    6.55    4.62
  -7   1  31   14.34    4.54
  -4  -6 -31   16.11    5.71
  -6  10 -31   19.75    5.07
  -4  -6 -31   19.43    4.37
  -6  10 -31   16.42    5.33
 -10   4  31   14.90    4.88
  -7  -6 -31   -5.04    3.17
  -6  13 -31    4.36    4.27
  -6  13 -31    2.85    4.38
   7   6  31   -1.60    2.76
 -13   7  31   -0.46    3.08
  -7  -3 -31   42.30    9.32
  -3  10 -31   59.23    9.08
  -3  10 -31   43.35    6.91
  -7  -3 -31   56.13    9.06
  -3  10 -31   47.83    9.28
 -10   7  31   44.43    7.99
  -7   0 -31    0.07    2.75
  -7   0 -31   -1.14    2.66
   0   7 -31   -2.46    2.52
   0   7 -31   -1.25    1.73
   0  -7  31   -3.33    2.01
  -7   7  31   -0.45    3.16
  -7   3 -31   84.32   12.57
   3   4 -31   60.88    9.59
  -7   3 -31   66.56    8.40
  -7   3 -31   78.30   11.67
  -3  -4  31   62.39    9.79
   1  -7 -31   14.30    3.40
  -7   6 -31    1.66    3.62
  -7   6 -31   14.80    3.82
  -6  -1  31   10.18    4.05
  -7   9 -31   13.15    4.62
  -7   9 -31   19.55    4.66
  -2  -7 -31   15.64    4.03
  -2  -7 -31    8.21    5.17
  -9   2  31   11.90    4.21
  -5  -7 -31   18.51    6.51
  -7  12 -31   25.00    6.35
  -7  12 -31   23.49    5.81
   5   7  31   18.43    4.98
 -12   5  31   17.54    5.38
  -4  12 -31   -2.17    4.02
  -4  12 -31    0.35    3.50
  -8  -4 -31    3.67    3.85
  -8  -4 -31    0.36    2.73
  -4  12 -31    3.07    2.68
 -12   8  31    4.33    3.64
   8   4  31    2.43    2.73
  -8  -1 -31   -2.07    3.14
  -1   9 -31   -2.80    2.15
  -8  -1 -31    2.29    3.30
  -1   9 -31   -2.27    2.79
   1  -9  31   -0.75    2.10
  -9   8  31    0.23    2.62
  -8   2 -31    6.31    3.41
   2   6 -31   -0.26    2.40
  -8   2 -31    3.06    3.13
  -2  -6  31   -1.35    2.29
   3  -8 -31   -1.86    2.41
  -8   5 -31   -1.65    1.88
  -8   5 -31    2.81    3.41
  -5  -3  31    0.95    2.50
  -8   8 -31    1.16    2.61
  -8   8 -31    0.51    2.84
  -8   0  31    0.40    2.77
  -8  11 -31    1.14    3.33
  -3  -8 -31    0.67    3.92
  -8  11 -31    1.10    3.26
 -11   3  31    4.22    3.71
   3   8  31    0.88    2.94
  -6  -8 -31    4.05    4.30
  -8  14 -31   -0.33    4.17
  -8  14 -31    0.79    3.71
   6   8  31    2.65    3.36
 -14   6  31   -3.57    3.28
  -5  14 -31    0.02    3.48
  -9  -5 -31    3.36    3.59
  -5  14 -31    1.69    4.04
  -9  -5 -31    1.69    3.88
 -14   9  31    0.03    3.31
   9   5  31    3.08    3.01
  -9  -2 -31   17.61    5.66
  -9  -2 -31   19.20    6.15
  -2  11 -31   14.16    4.00
  -2  11 -31   19.61    5.67
 -11   9  31   18.76    5.22
  -9   1 -31   -1.51    2.65
   1   8 -31    2.59    2.59
   1   8 -31   -0.48    3.20
  -9   1 -31    4.92    3.74
  -8   9  31    4.90    3.16
  -1  -8  31    3.30    2.62
  -9   4 -31    1.90    3.34
  -9   4 -31    1.57    1.92
  -4  -5  31    1.88    2.65
  -9   7 -31    3.88    2.73
  -9   7 -31    5.16    3.83
  -7  -2  31    2.22    3.48
  -1  -9 -31   15.30    6.06
  -9  10 -31    7.19    4.47
  -9  10 -31    5.48    3.72
 -10   1  31   10.26    4.39
  -9  13 -31   -2.64    3.03
  -4  -9 -31   -2.01    4.37
  -9  13 -31   -3.50    3.27
 -13   4  31   -3.32    3.34
   4   9  31    3.61    3.32
  -3  13 -31   -1.71    3.90
  -3  13 -31   -2.71    5.53
  -3  13 -31    6.21    3.53
 -10  -3 -31    9.41    4.47
 -13  10  31    4.38    3.75
   0  10 -31   -1.35    3.01
 -10   0 -31    8.12    4.12
   0  10 -31    0.24    2.55
 -10  10  31    1.91    2.83
   3   7 -31   40.77    8.19
 -10   3 -31   59.80   10.23
   3   7 -31   54.90    8.08
  -7  10  31   48.71    8.41
  -3  -7  31   54.43    8.43
  -7  10  31   46.18    7.94
 -10   6 -31   13.51    3.79
 -10   6 -31   12.03    5.12
  -4  10  31   17.11    4.09
  -6  -4  31   25.82    5.54
 -10   9 -31    6.98    3.54
 -10   9 -31    5.66    4.01
  -9  -1  31    5.63    3.72
 -10  12 -31   10.58    4.90
  -2 -10 -31   15.08    7.10
 -10  12 -31   16.40    5.88
   2  10  31    8.81    4.24
 -12   2  31   16.46    5.35
  -1  12 -31   14.62    5.56
  -1  12 -31   28.60    5.75
 -11  -1 -31   22.41    6.62
 -12  11  31   24.71    5.61
   2   9 -31   22.81    5.69
 -11   2 -31   25.28    6.71
   2   9 -31   19.52    4.52
  -9  11  31   16.12    4.77
  -9  11  31   16.31    4.46
  -2  -9  31    8.78    3.69
 -11   5 -31   17.29    5.13
   5   6 -31    9.02    3.43
  -5  -6  31    3.32    3.13
  -6  11  31   18.11    4.05
 -11   8 -31    8.76    3.69
 -11   8 -31   -0.46    3.35
  -8  -3  31    3.00    3.60
 -11  11 -31   -2.84    3.16
 -11  11 -31   -0.65    3.31
   0 -11 -31    7.09    6.00
 -11   0  31    0.60    3.26
  -3 -11 -31    2.52    4.82
 -11  14 -31   -0.65    3.89
 -11  14 -31    2.55    4.46
   3  11  31   -0.16    3.77
 -14   3  31    1.16    4.21
   1  11 -31   18.64    4.82
   1  11 -31   15.52    6.06
 -12   1 -31   24.03    6.95
 -11  12  31   20.97    5.32
 -12   4 -31    4.61    4.10
   4   8 -31    2.29    3.91
   4   8 -31   -0.74    2.76
  -8  12  31    2.39    2.84
  -8  12  31    1.68    3.11
  -4  -8  31    3.30    3.10
 -12   7 -31   16.20    5.77
  -5  12  31   20.49    4.94
  -7  -5  31   23.73    5.69
 -12  10 -31    6.75    4.37
 -12  10 -31    8.21    3.94
 -10  -2  31   16.46    5.54
 -12  13 -31    1.57    4.40
 -12  13 -31    4.34    4.16
  -1 -12 -31   -1.53    6.31
 -13   1  31    4.95    4.33
   1  12  31   -2.09    3.66
   3  10 -31    7.29    4.38
 -13   3 -31   10.74    5.50
   3  10 -31    5.44    4.08
 -10  13  31   10.76    4.64
 -13   6 -31    2.60    4.21
   6   7 -31   -2.21    2.81
   6   7 -31   -2.23    3.57
  -6  -7  31    0.70    3.45
  -7  13  31   -1.78    2.79
 -13   9 -31    2.71    3.41
 -13   9 -31   -1.48    3.88
   9   4 -31   -2.50    2.91
  -9  -4  31    3.22    3.85
 -13  12 -31   -1.54    3.82
 -13  12 -31    1.40    4.44
   1 -13 -31   23.42    8.07
 -12  -1  31    3.16    4.32
   5   9 -31   -0.50    3.83
 -14   5 -31   -3.33    3.91
   5   9 -31    0.31    3.22
  -9  14  31    1.81    3.28
  -5  -9  31   -4.60    2.86
 -14   8 -31   -3.02    3.67
   8   6 -31   -0.84    3.28
  -8  -6  31   -2.55    3.32
  11   3 -31    4.35    3.72
 -14  11 -31   -3.14    4.23
 -14  11 -31    3.60    3.99
 -11  -3  31    0.53    4.50
  -1   1 -32  150.68   15.77
  -1   1 -32  118.52   18.22
  -2   0 -32    1.91    1.71
   0   2 -32    2.35    3.11
  -2   0 -32   -0.09    3.34
  -2   0 -32    0.35    3.02
  -1  -2 -32   54.91    9.27
  -2   3 -32   47.34    7.44
  -2   3 -32   41.98    8.61
  -1  -2 -32   63.54    9.19
  -3  -1 -32    3.26    3.36
  -3  -1 -32    8.50    3.52
  -3  -1 -32   12.49    2.02
  -1   4 -32    8.62    3.23
  -1   4 -32    5.82    3.06
  -3   2 -32   47.79    9.51
  -3   2 -32   61.00    7.93
  -3   2 -32   63.02   10.48
  -3   5 -32    3.08    3.23
  -2  -3 -32   -3.28    3.02
  -3   5 -32    4.12    2.97
  -2  -3 -32    2.47    4.15
  -4  -2 -32   -0.19    3.04
  -4  -2 -32    1.19    2.53
  -2   6 -32   -0.01    2.25
  -2   6 -32   -0.21    2.92
  -6   4  32    0.77    3.42
  -4   1 -32    8.46    2.07
   1   3 -32    5.03    3.17
  -4   1 -32    6.06    3.83
  -4   1 -32    7.49    3.63
  -4   4 -32    0.55    2.49
  -4   4 -32    4.92    4.35
  -4   4 -32    0.29    2.24
   0  -4 -32    4.93    3.41
  -4   0  32    5.92    3.33
  -4   7 -32   12.92    6.29
  -3  -4 -32    5.29    3.12
  -4   7 -32    9.93    4.24
  -3  -4 -32    8.70    5.25
  -7   3  32    1.54    3.63
  -3   8 -32   25.09    5.78
  -3   8 -32   31.16    6.85
  -5  -3 -32   24.75    5.53
  -3   8 -32   23.11    3.86
  -5  -3 -32   12.74    5.49
  -8   5  32   10.60    4.54
   0   5 -32  157.42   22.14
  -5   0 -32  175.50   22.14
  -5   0 -32  189.26   23.56
   0   5 -32  173.17   20.42
  -5   3 -32   -3.15    3.80
  -5   3 -32    2.60    3.39
  -5   3 -32   -0.26    2.13
  -5   6 -32  111.42   13.13
  -1  -5 -32  117.65   14.03
  -1  -5 -32   91.00   14.89
  -5   6 -32   99.52   14.66
  -5   6 -32  107.28   14.98
  -6   1  32  101.12   14.24
  -5   9 -32    1.84    3.02
  -4  -5 -32    3.68    2.65
  -5   9 -32   -0.02    3.50
  -4  -5 -32   -0.34    3.46
  -5   9 -32    1.28    1.81
  -9   4  32   -4.53    2.32
  -4  10 -32    4.13    2.46
  -4  10 -32    7.51    3.67
  -6  -4 -32    1.71    2.76
  -6  -4 -32    5.04    4.22
  -4  10 -32    3.60    4.87
 -10   6  32    4.79    3.85
  -1   7 -32   15.95    3.70
  -6  -1 -32    9.59    4.31
  -6  -1 -32   16.55    5.18
  -1   7 -32   18.09    5.04
   1  -7  32   10.43    4.01
  -7   6  32   10.20    4.18
  -6   2 -32   -0.19    3.00
   2   4 -32   -2.92    2.17
  -6   2 -32    1.30    1.46
  -6   2 -32    3.35    3.26
  -2  -4  32   -1.90    2.70
   1  -6 -32  108.89   15.03
  -6   5 -32  119.59   13.99
  -6   5 -32  123.30   16.41
  -6   5 -32  112.65   16.01
  -5  -1  32  113.16   14.81
  -2  -6 -32   -1.86    4.37
  -2  -6 -32   -1.82    1.75
  -6   8 -32   -3.64    2.49
  -6   8 -32   -5.98    3.22
  -8   2  32   -0.63    2.91
  -6  11 -32   30.69    6.76
  -5  -6 -32   34.90    8.04
  -5  -6 -32   26.95    5.77
  -6  11 -32   20.94    6.82
 -11   5  32   22.15    6.03
  -5  12 -32    5.15    2.96
  -7  -5 -32    5.34    4.35
  -5  12 -32   12.69    5.44
  -7  -5 -32    6.83    3.99
  -5  12 -32   12.26    4.49
 -12   7  32    3.01    3.46
   7   5  32    6.30    3.46
  -7  -2 -32    9.94    4.23
  -2   9 -32    3.73    3.58
  -2   9 -32   10.77    3.14
  -7  -2 -32   10.92    4.61
   2  -9  32    7.81    3.04
  -9   7  32   12.38    4.22
   1   6 -32   21.97    3.88
  -7   1 -32   12.79    4.48
   1   6 -32   16.01    4.57
  -7   1 -32    9.81    4.53
  -1  -6  32   10.59    3.99
  -7   4 -32    6.78    2.45
  -7   4 -32    8.82    3.97
  -7   4 -32    5.84    3.99
  -4  -3  32    9.23    3.81
  -7   7 -32   -1.20    2.85
  -7   7 -32    1.52    2.39
   0  -7 -32    0.69    1.73
  -7   0  32   -1.97    2.51
  -7  10 -32    6.05    3.98
  -7  10 -32    0.03    2.68
  -3  -7 -32    4.44    4.18
 -10   3  32   -0.81    3.23
  -7  13 -32   -1.64    3.50
  -7  13 -32    8.43    4.65
  -6  -7 -32   -2.12    3.56
   6   7  32   -0.01    3.34
 -13   6  32   12.65    4.40
  -6  14 -32    1.19    4.05
  -6  14 -32    3.87    4.68
  -8  -6 -32    0.27    3.92
 -14   8  32   -5.37    2.75
   8   6  32    0.66    2.99
  -3  11 -32    2.16    2.77
  -8  -3 -32    0.75    3.96
  -8  -3 -32    2.32    3.46
  -3  11 -32   -0.47    4.96
  -3  11 -32   -0.23    3.27
 -11   8  32    1.39    3.04
  -8   0 -32   -1.47    3.31
   0   8 -32   -0.64    2.13
  -8   0 -32   -0.88    3.03
   0   8 -32    0.82    3.26
  -8   8  32   -0.53    2.95
   0  -8  32    0.42    2.28
  -8   3 -32   19.50    5.92
  -8   3 -32   21.30    6.24
  -3  -5  32   21.38    4.98
  -8   6 -32   -1.22    2.07
  -8   6 -32   -3.87    2.86
  -6  -2  32    0.26    2.99
  -8   9 -32   38.20    6.77
  -1  -8 -32   33.56    7.80
  -8   9 -32   32.24    7.05
  -9   1  32   18.86    5.81
  -8  12 -32   -1.78    3.01
  -4  -8 -32   -4.55    3.27
  -8  12 -32   -1.69    3.20
   4   8  32   -0.13    2.86
 -12   4  32   -1.22    2.97
  -9  -4 -32   -1.16    3.21
  -4  13 -32   -5.68    4.94
  -4  13 -32   -3.25    3.11
  -9  -4 -32    7.00    4.25
  -4  13 -32    0.30    2.77
 -13   9  32    3.90    3.79
  -1  10 -32    1.58    2.67
  -1  10 -32    4.13    4.28
  -9  -1 -32   -1.23    2.90
  -9  -1 -32   -2.39    3.35
 -10   9  32    2.37    3.00
  -9   2 -32   10.06    5.09
   2   7 -32   12.44    4.49
  -2  -7  32   21.43    4.63
  -7   9  32    9.60    4.25
  -9   5 -32    4.35    2.52
  -9   5 -32    0.72    3.34
  -5  -4  32    2.51    2.91
  -9   8 -32   35.64    6.67
  -9   8 -32   32.98    7.55
  -8  -1  32   34.19    6.86
  -2  -9 -32    2.20    4.74
  -9  11 -32   12.49    5.11
  -9  11 -32    6.29    3.86
 -11   2  32   -0.02    3.46
  -9  14 -32   19.86    6.54
  -9  14 -32   21.60    6.40
  -5  -9 -32   17.33    7.10
 -14   5  32   11.63    5.78
   5   9  32   21.39    5.81
  -2  12 -32   -8.95    3.09
 -10  -2 -32    2.98    4.01
  -2  12 -32   -0.67    2.83
  -2  12 -32   14.54    6.93
 -12  10  32    4.49    3.41
 -10   1 -32   -0.09    2.90
   1   9 -32   -2.63    3.84
   1   9 -32   -1.91    2.21
  -1  -9  32   -1.14    2.62
  -9  10  32   -1.85    2.65
 -10   4 -32    3.10    3.40
  -4  -6  32   -1.58    2.61
 -10   7 -32    4.45    2.98
 -10   7 -32    3.82    3.84
  -7  -3  32   -0.79    2.80
 -10  10 -32   -1.03    2.55
 -10  10 -32    6.04    4.14
   0 -10 -32    0.75    4.92
 -10   0  32    0.34    3.37
  -3 -10 -32   -0.04    4.54
 -10  13 -32    1.94    4.01
 -10  13 -32    6.70    3.99
 -13   3  32    0.53    3.81
   3  10  32    3.40    3.75
 -11   0 -32    2.04    3.87
   0  11 -32   11.48    4.14
   0  11 -32    8.28    4.53
 -11  11  32    5.38    3.84
 -11   3 -32   12.38    4.73
   3   8 -32    0.09    3.69
   3   8 -32    4.41    3.03
  -8  11  32   -2.45    2.64
  -8  11  32   -1.75    2.72
  -3  -8  32    3.50    2.85
 -11   6 -32   27.77    7.55
  -5  11  32   30.76    5.92
  -6  -5  32   38.69    7.13
 -11   9 -32    5.28    3.71
 -11   9 -32    7.75    4.02
  -9  -2  32    6.84    3.84
 -11  12 -32    3.49    4.33
 -11  12 -32    0.36    3.49
  -1 -11 -32   -4.09    5.92
 -12   1  32    7.45    4.79
  -1  13 -32   -5.82    3.06
 -12  -1 -32   -1.95    3.51
  -1  13 -32   -0.25    4.37
 -13  12  32   -0.30    3.41
   2  10 -32   -0.01    3.93
 -12   2 -32    2.92    4.12
   2  10 -32   -0.90    2.85
 -10  12  32    3.44    3.06
 -12   5 -32    3.53    3.92
   5   7 -32    3.16    4.00
   5   7 -32    9.10    3.79
  -7  12  32   10.23    3.72
  -5  -7  32    6.00    3.68
  -7  12  32    4.57    4.05
 -12   8 -32   -0.47    4.06
 -12   8 -32   -1.70    2.95
  -8  -4  32   -4.38    2.65
 -12  11 -32   11.42    4.92
 -12  11 -32    6.97    4.33
 -11  -1  32   -4.91    3.14
   1  12 -32   -2.13    3.01
 -13   1 -32   -2.24    3.77
   1  12 -32    0.52    4.15
   4   9 -32    7.38    4.78
   4   9 -32   -1.64    2.88
 -13   4 -32    2.77    4.55
  -9  13  32   -2.91    2.93
  -4  -9  32    0.59    3.25
   7   6 -32    3.70    3.29
 -13   7 -32   -1.85    3.80
  -7  -6  32    7.14    4.24
 -13  10 -32    0.18    3.26
 -13  10 -32    3.32    4.18
 -10  -3  32    4.93    4.29
   6   8 -32   -1.60    3.42
   6   8 -32   -4.79    2.73
 -14   6 -32   -0.51    4.59
  -6  -8  32   -1.30    3.30
  -8  14  32    0.06    3.11
 -14   9 -32   12.64    6.23
   9   5 -32   10.35    4.61
  -9  -5  32   13.56    5.19
   0   0 -33    7.03    3.64
  -1   2 -33   -0.12    3.39
  -1   2 -33   10.88    3.13
  -1  -1 -33    9.93    4.47
  -1  -1 -33   13.73    4.81
  -2   1 -33    1.70    3.55
  -2   1 -33   11.16    4.83
  -2   1 -33   10.63    2.99
  -2   4 -33   12.22    3.48
  -2   4 -33    8.88    3.84
  -2  -2 -33    7.56    4.38
  -2  -2 -33   11.95    4.31
  -2  -2 -33   10.90    2.19
   0   3 -33   -0.89    2.34
  -3   0 -33   -2.72    2.21
  -3   0 -33   -2.88    2.74
   0   3 -33    3.92    2.49
  -3   0 -33   -3.86    1.21
  -3   3 -33   -0.43    2.49
  -3   3 -33    2.97    3.29
   0  -3 -33   -5.21    2.68
  -3   3 -33   -1.00    2.08
  -3   6 -33    0.47    2.79
  -3  -3 -33   -1.54    2.83
  -3   6 -33   -0.15    2.50
  -3   6 -33   -0.95    3.35
  -3  -3 -33    0.72    2.40
  -6   3  33    7.65    3.83
  -1   5 -33   16.34    4.21
  -4  -1 -33   17.90    5.49
  -4  -1 -33   15.36    4.47
  -1   5 -33   13.02    3.92
  -4   2 -33    9.54    2.75
  -4   2 -33    6.10    4.33
  -4   2 -33   10.81    4.29
  -4   5 -33   22.38    6.95
  -4   5 -33   34.86    6.57
  -1  -4 -33   24.81    6.14
  -1  -4 -33   29.22    5.91
  -4   5 -33   27.07    5.43
  -5   1  33   22.36    5.57
  -4  -4 -33    0.10    2.60
  -4   8 -33    2.49    1.90
  -4   8 -33    6.36    5.42
  -4  -4 -33    0.96    3.82
  -4   8 -33   -5.19    3.03
  -8   4  33    3.04    3.32
  -5  -2 -33   44.37    9.12
  -2   7 -33   42.96    7.78
  -5  -2 -33   34.78    7.48
  -2   7 -33   53.31    7.81
  -7   5  33   40.87    7.69
  -5   1 -33   15.55    2.85
  -5   1 -33   15.17    5.15
   1   4 -33   18.80    4.34
  -5   1 -33   10.19    4.43
  -5   4 -33   24.18    6.13
   1  -5 -33   37.37    6.54
  -5   4 -33   34.19    5.29
  -5   4 -33   21.76    6.01
  -4  -1  33   22.65    5.70
  -2  -5 -33   25.68    5.12
  -2  -5 -33   24.40    6.42
  -5   7 -33   20.80    4.83
  -5   7 -33   20.40    5.92
  -7   2  33   18.17    5.27
  -5  10 -33   -3.30    2.97
  -5  -5 -33   -1.03    2.39
  -5  10 -33    1.88    1.99
  -5  10 -33    7.29    4.62
  -5  -5 -33   -1.93    3.50
 -10   5  33    2.93    3.34
  -3   9 -33   14.41    3.34
  -3   9 -33    7.70    4.34
  -3   9 -33   15.99    5.90
  -6  -3 -33   20.06    4.91
  -6  -3 -33   12.04    5.04
  -9   6  33    5.55    3.68
  -6   0 -33   -1.18    2.95
   0   6 -33    8.29    4.37
   0   6 -33   -1.10    1.86
  -6   0 -33   -0.27    2.98
   0  -6  33   -1.89    2.65
  -6   3 -33   -2.75    2.55
  -6   3 -33   -1.42    2.83
  -6   3 -33   -0.01    1.56
  -3  -3  33   -4.18    2.69
  -6   6 -33    1.77    3.80
   0  -6 -33   -0.06    2.09
  -6   6 -33   -2.34    1.93
  -6   0  33   -0.81    2.77
  -6   9 -33    5.31    4.38
  -3  -6 -33    8.06    3.05
  -3  -6 -33    1.82    4.08
  -6   9 -33    7.15    3.47
  -9   3  33    8.90    3.94
  -6  12 -33   -2.15    3.46
  -6  12 -33   -1.70    3.18
  -6  -6 -33    0.83    4.07
 -12   6  33   -4.02    2.65
  -4  11 -33   33.64    8.30
  -4  11 -33   42.36    8.15
  -7  -4 -33   39.35    8.94
  -4  11 -33   33.98    6.14
  -7  -4 -33   45.51    8.20
 -11   7  33   40.20    7.68
  -1   8 -33   -0.81    2.25
  -7  -1 -33    5.23    3.58
  -1   8 -33    1.37    3.31
  -7  -1 -33    1.76    3.72
   1  -8  33   -4.31    2.09
  -8   7  33   -1.62    2.70
  -7   2 -33   40.79    8.72
   2   5 -33   57.84    6.85
  -7   2 -33   26.02    7.16
  -2  -5  33   30.73    6.58
   2  -7 -33   26.33    5.19
  -7   5 -33   20.24    4.46
  -7   5 -33   22.54    5.85
  -7   5 -33   21.53    5.78
  -5  -2  33   23.05    5.08
  -1  -7 -33    3.94    4.07
  -1  -7 -33    5.84    2.57
  -7   8 -33    6.84    3.29
  -7   8 -33    2.55    3.20
  -8   1  33    2.64    3.55
  -7  11 -33   32.94    7.71
  -4  -7 -33   42.92    9.27
  -7  11 -33   37.18    7.48
 -11   4  33   42.17    7.77
  -7  14 -33   -5.80    4.00
  -7  -7 -33   -1.97    3.86
  -7  14 -33   -4.31    3.56
   7   7  33   -1.65    3.00
 -14   7  33    5.88    4.35
  -8  -5 -33    2.09    3.30
  -5  13 -33   -8.30    4.19
  -8  -5 -33    0.65    3.63
  -5  13 -33   -2.25    3.64
 -13   8  33    1.42    3.38
  -2  10 -33    0.16    3.71
  -8  -2 -33    0.72    3.55
  -8  -2 -33    0.68    3.45
  -2  10 -33    0.06    2.53
 -10   8  33    0.58    2.94
  -8   1 -33    3.45    3.54
   1   7 -33   -3.71    2.73
  -8   1 -33    1.74    2.82
  -1  -7  33    0.75    2.42
  -7   8  33   -3.12    3.12
  -8   4 -33    1.89    2.94
  -8   4 -33    0.94    1.82
   4   4 -33   -4.03    2.73
  -8   4 -33    1.12    3.50
  -4  -4  33    3.54    3.13
  -8   7 -33    4.55    2.84
  -8   7 -33   -1.47    2.92
  -7  -1  33    8.67    3.94
  -8  10 -33   -3.65    2.71
  -8  10 -33   -5.13    3.07
  -2  -8 -33   -1.79    4.84
 -10   2  33   -3.40    2.61
  -8  13 -33    8.28    4.85
  -8  13 -33    5.50    4.49
  -5  -8 -33    5.70    5.03
 -13   5  33    0.09    3.58
   5   8  33    7.48    3.99
  -9  -3 -33    5.67    4.69
  -3  12 -33    5.77    4.84
  -3  12 -33   11.01    6.69
  -9  -3 -33    5.01    4.20
  -3  12 -33    2.91    2.97
 -12   9  33    7.09    3.85
  -9   0 -33   -2.06    2.68
  -9   0 -33   -0.71    3.17
   0   9 -33   -0.45    2.33
   0   9 -33    0.76    3.81
  -9   9  33   -6.85    2.92
   0  -9  33    1.27    2.78
  -9   3 -33   12.63    4.85
   3   6 -33    8.58    3.75
  -3  -6  33   15.98    4.37
  -9   6 -33    2.53    3.24
  -9   6 -33    9.70    3.39
  -6  -3  33   10.22    4.16
  -9   9 -33    7.03    4.19
  -9   9 -33   -0.58    2.83
  -9   0  33   -6.11    2.74
  -3  -9 -33   -7.22    4.61
  -9  12 -33    4.71    4.37
  -9  12 -33    4.57    4.24
 -12   3  33   -1.87    2.43
  -1  11 -33   33.30    5.82
  -1  11 -33   14.34    5.39
 -10  -1 -33   27.26    7.07
 -11  10  33   22.87    5.77
 -10   2 -33   -0.32    3.12
   2   8 -33   -3.82    3.10
   2   8 -33    0.58    2.47
  -2  -8  33    1.81    2.81
  -8  10  33    1.98    3.65
 -10   5 -33   -0.45    3.14
  -5  -5  33    2.80    3.21
 -10   8 -33   -2.25    3.14
 -10   8 -33    5.87    3.34
  -8  -2  33    1.22    3.13
 -10  11 -33   15.70    5.46
 -10  11 -33   10.55    4.55
  -1 -10 -33   21.99    7.50
 -11   1  33   17.44    5.16
   4  10  33   -4.34    2.94
  -2  13 -33   17.97    8.18
  -2  13 -33   -5.96    4.18
 -11  -2 -33    3.52    4.28
  -2  13 -33    8.19    3.88
 -13  11  33   14.40    4.96
   1  10 -33   18.71    5.57
   1  10 -33   32.48    5.89
 -11   1 -33   19.57    6.48
 -10  11  33   19.53    5.27
   4   7 -33   42.09    6.71
 -11   4 -33   28.04    7.60
   4   7 -33   30.86    6.92
  -7  11  33   28.44    6.59
  -4  -7  33   33.25    6.48
 -11   7 -33   51.94    9.63
 -11   7 -33   38.84    7.01
  -7  -4  33   31.15    7.07
 -11  10 -33   19.98    5.81
 -11  10 -33   20.54    6.22
 -10  -1  33   17.71    5.85
 -11  13 -33    4.93    4.69
 -11  13 -33   14.09    5.16
  -2 -11 -33    1.37    6.17
 -13   2  33    4.55    4.80
   0  12 -33    0.46    4.00
   0  12 -33   -2.45    3.36
 -12   0 -33   -2.74    3.43
 -12  12  33    1.18    3.54
   3   9 -33   12.28    4.86
 -12   3 -33    5.23    4.36
   3   9 -33    5.13    3.53
  -3  -9  33    6.52    3.64
  -9  12  33    5.43    3.76
 -12   6 -33    1.35    3.78
   6   6 -33    4.51    3.40
  -6  12  33   -0.33    2.66
  -6  -6  33   -2.62    2.92
 -12   9 -33    2.55    3.53
 -12   9 -33   10.64    5.25
  -9  -3  33    2.79    3.84
 -12  12 -33    2.33    4.46
   0 -12 -33    1.29    6.52
 -12  12 -33    2.62    3.60
 -12   0  33   -7.06    3.54
   2  11 -33   16.76    6.55
 -13   2 -33   10.32    5.99
   2  11 -33    5.90    4.16
   5   8 -33    6.29    4.65
   5   8 -33    4.89    3.51
 -13   5 -33    6.00    5.14
  -5  -8  33    3.22    3.41
  -8  13  33    1.55    3.19
 -13   8 -33    6.42    4.69
   8   5 -33    4.35    3.55
  -8  -5  33    1.57    3.86
 -13  11 -33   -0.88    4.10
 -13  11 -33    5.44    4.55
 -11  -2  33    5.80    5.18
   7   7 -33   -7.70    3.71
   7   7 -33   -1.27    3.30
 -14   7 -33    5.28    4.96
  -7  -7  33    5.59    4.11
   0   1 -34   96.14   13.75
  -1   0 -34   94.99   13.86
  -2  -1 -34   56.98    9.88
  -1   3 -34   44.64    7.41
  -2  -1 -34   49.59    9.30
  -1   3 -34   58.54    9.19
  -2  -1 -34   52.22    6.57
  -2   2 -34    4.32    3.87
  -2   2 -34    7.38    2.63
  -2   2 -34    2.03    2.73
  -3  -2 -34   12.74    4.33
  -2   5 -34   13.57    3.92
  -3  -2 -34   14.91    5.05
  -2   5 -34   13.69    4.15
  -3   1 -34   67.61   10.51
  -3   1 -34   58.16   10.18
   1   2 -34   59.67    9.84
  -3   1 -34   56.84    7.60
  -3   4 -34   38.35    7.35
  -3   4 -34   20.37    5.31
  -3   4 -34   15.57    5.12
  -1  -3 -34   17.93    6.01
  -1  -3 -34   32.62    6.95
  -3   7 -34   22.09    4.84
  -4  -3 -34   15.41    4.83
  -4  -3 -34   13.99    5.59
  -3   7 -34   26.98    5.52
  -3   7 -34   19.90    5.76
  -7   4  34   10.21    4.48
  -4   0 -34    1.18    2.82
  -4   0 -34    3.69    1.47
   0   4 -34    2.36    2.56
   0   4 -34    0.73    2.81
  -4   0 -34    1.47    3.12
  -4   3 -34   13.61    4.58
  -4   3 -34   14.71    5.77
  -4   3 -34   15.24    4.18
  -2  -4 -34    0.95    2.46
  -4   6 -34   -4.19    3.16
  -4   6 -34    2.70    5.51
  -4   6 -34   -0.03    2.58
  -2  -4 -34   -5.03    4.76
  -6   2  34    2.48    3.69
  -4   9 -34    1.72    2.08
  -5  -4 -34    1.17    3.17
  -5  -4 -34    3.93    3.56
  -4   9 -34    7.57    5.30
  -4   9 -34   -1.66    2.73
  -9   5  34    2.71    2.73
  -1   6 -34   58.76    9.55
  -1   6 -34   73.07    9.95
  -5  -1 -34   62.26   11.17
  -5  -1 -34   56.92   10.08
  -6   5  34   55.19    9.36
   2   3 -34    5.82    3.64
  -5   2 -34    8.40    4.23
  -5   2 -34   13.54    2.83
  -5   2 -34   13.94    4.76
  -5   5 -34   88.34   15.69
  -5   5 -34  138.93   16.09
   0  -5 -34  101.01   14.57
  -5   5 -34  100.43   13.36
  -5   0  34  126.11   14.66
  -3  -5 -34    9.77    3.64
  -5   8 -34    7.86    2.28
  -5   8 -34   12.42    5.20
  -5   8 -34   12.79    4.35
  -3  -5 -34    8.03    4.89
  -8   3  34    7.08    4.00
  -5  11 -34   10.32    4.43
  -5  11 -34   12.93    5.63
  -5  11 -34   12.41    3.67
  -6  -5 -34    3.75    4.26
  -6  -5 -34   19.32    4.89
 -11   6  34   10.45    4.34
  -6  -2 -34   12.34    3.83
  -6  -2 -34    2.08    3.76
  -2   8 -34    3.70    3.17
  -2   8 -34    4.02    2.56
  -8   6  34    3.50    3.45
   1   5 -34   62.55    9.03
   1   5 -34   58.70    9.02
  -6   1 -34   51.78   10.35
  -6   1 -34   47.32    9.23
  -1  -5  34   54.26    8.73
  -6   4 -34   -1.53    1.90
  -6   4 -34   -1.73    2.66
  -6   4 -34   -4.23    2.98
   2  -6 -34    1.89    3.78
  -4  -2  34    1.52    3.12
  -1  -6 -34    7.75    2.75
  -1  -6 -34   11.35    5.24
  -6   7 -34    8.07    3.59
  -6   7 -34    4.42    4.40
  -7   1  34   -2.17    3.24
  -6  10 -34   -4.11    4.52
  -6  10 -34   -1.03    3.38
  -4  -6 -34   -2.19    2.99
  -4  -6 -34    0.86    2.26
 -10   4  34   -0.82    3.08
  -7  -6 -34    1.18    4.02
  -6  13 -34    2.00    4.02
  -6  13 -34   -1.08    3.90
 -13   7  34    3.14    3.63
  -7  -3 -34    2.50    3.11
  -3  10 -34   -1.38    2.10
  -3  10 -34   -2.83    3.40
  -7  -3 -34   -2.41    2.96
  -3  10 -34    3.45    5.59
 -10   7  34   -1.66    2.67
  -7   0 -34   -1.97    2.46
   0   7 -34    1.11    3.16
  -7   0 -34   -2.55    3.04
  -7   7  34    3.84    3.71
   0  -7  34    0.66    2.85
   3   4 -34   22.98    5.08
  -7   3 -34   25.62    6.35
  -7   3 -34   17.20    5.61
  -7   3 -34   25.48    4.17
  -3  -4  34   21.12    5.18
  -7   6 -34    0.89    3.94
   1  -7 -34   11.93    3.32
  -7   6 -34   11.16    3.39
  -6  -1  34    2.82    3.55
  -7   9 -34   11.08    4.65
  -7   9 -34    5.86    3.56
  -2  -7 -34   14.16    5.90
  -9   2  34    6.07    4.20
  -5  -7 -34   -4.25    3.94
  -7  12 -34   -1.18    3.62
  -7  12 -34   -1.84    3.24
 -12   5  34    0.75    3.47
  -4  12 -34   -6.23    3.61
  -4  12 -34    3.23    5.97
  -4  12 -34   -1.72    2.52
  -8  -4 -34   -2.87    3.67
  -8  -4 -34    2.74    3.60
 -12   8  34   -3.07    2.78
  -1   9 -34   22.48    5.72
  -8  -1 -34   14.59    5.69
  -1   9 -34   26.35    4.68
  -8  -1 -34   24.13    6.80
  -9   8  34   21.50    5.68
   1  -9  34   26.37    5.09
  -8   2 -34    0.38    3.20
   2   6 -34    4.69    3.42
  -8   2 -34    6.69    3.96
  -2  -6  34    0.33    2.58
  -8   5 -34   11.20    4.79
   3  -8 -34    7.90    3.73
  -8   5 -34   11.24    3.26
  -5  -3  34   14.72    4.24
  -8   8 -34   13.78    4.92
  -8   8 -34   14.58    4.30
  -8   0  34    6.95    4.07
  -8  11 -34    5.77    4.13
  -8  11 -34    4.59    3.50
  -3  -8 -34   -2.15    3.98
 -11   3  34   -4.66    2.79
  -6  -8 -34    9.00    5.41
  -8  14 -34    1.71    4.30
  -8  14 -34    4.32    4.82
 -14   6  34   -1.74    3.50
   6   8  34    2.63    3.62
  -2  11 -34   -6.08    2.49
  -2  11 -34    0.55    2.51
  -2  11 -34    3.88    5.49
  -9  -2 -34   -0.86    3.14
  -9  -2 -34    2.27    3.74
 -11   9  34    1.96    2.96
  -9   1 -34   19.08    6.08
   1   8 -34   20.41    5.46
   1   8 -34   25.34    5.04
  -9   1 -34   21.93    6.34
  -8   9  34   26.37    5.98
  -1  -8  34   15.82    4.57
  -9   4 -34    1.80    3.50
  -4  -5  34    5.03    3.22
  -9   7 -34   12.36    4.00
  -9   7 -34   10.59    4.94
  -7  -2  34   13.32    4.64
  -1  -9 -34   -1.95    4.58
  -9  10 -34    1.78    3.19
  -9  10 -34    0.58    3.50
 -10   1  34   -2.37    3.35
  -9  13 -34    4.35    3.92
  -9  13 -34    0.89    3.99
  -4  -9 -34    5.38    5.14
 -13   4  34    2.65    3.95
  -3  13 -34   -3.23    3.97
  -3  13 -34    1.33    3.34
 -10  -3 -34   -2.00    3.22
  -3  13 -34   -8.00    5.68
 -13  10  34   -3.64    3.16
   0  10 -34    3.67    3.66
   0  10 -34   -0.53    2.60
 -10   0 -34    0.03    3.74
 -10  10  34    0.01    2.81
 -10   3 -34   -3.36    2.76
   3   7 -34    0.64    3.60
   3   7 -34    1.31    2.93
  -3  -7  34    0.22    3.06
  -7  10  34    8.30    4.37
 -10   6 -34   -1.94    3.41
 -10   6 -34   -1.72    2.03
  -6  -4  34   -1.86    3.09
 -10   9 -34   -4.40    2.54
 -10   9 -34    3.83    3.40
  -9  -1  34    4.06    3.83
 -10  12 -34   -4.02    3.63
 -10  12 -34   -1.26    3.13
  -2 -10 -34   -5.22    4.90
 -12   2  34    3.48    4.18
  -1  12 -34    0.62    2.82
  -1  12 -34   -2.66    3.88
 -11  -1 -34   -0.32    3.93
 -12  11  34    1.75    3.54
 -11   2 -34    6.79    4.77
   2   9 -34   -4.29    2.41
   2   9 -34    3.66    3.50
  -9  11  34    6.12    3.81
  -2  -9  34    0.95    2.76
 -11   5 -34    6.90    5.00
  -5  -6  34   11.18    4.16
 -11   8 -34    0.92    3.03
 -11   8 -34    4.52    4.15
  -8  -3  34   -0.01    3.39
 -11  11 -34   -2.32    3.54
   0 -11 -34   12.32    6.91
 -11  11 -34   -5.59    3.15
 -11   0  34    0.66    4.11
 -12   1 -34    4.21    4.80
   1  11 -34    1.77    4.13
   1  11 -34    4.74    3.71
 -11  12  34    6.02    3.82
   4   8 -34   -0.51    4.20
 -12   4 -34   -0.06    3.82
   4   8 -34    1.06    3.01
  -4  -8  34    1.51    3.22
  -8  12  34    3.83    3.96
 -12   7 -34   -1.48    4.01
  -7  -5  34   -1.84    2.77
 -12  10 -34   -2.07    4.04
 -12  10 -34    2.07    3.24
 -10  -2  34    3.37    3.97
   3  10 -34    1.24    3.34
 -13   3 -34    0.60    4.55
   3  10 -34    2.97    4.88
   6   7 -34    1.45    3.37
   6   7 -34    0.28    3.87
 -13   6 -34    1.21    3.82
  -7  13  34   -0.08    3.03
  -6  -7  34   -1.73    3.63
 -13   9 -34   -1.42    3.67
  -9  -4  34    8.32    4.83
 -14   8 -34    5.40    4.44
   8   6 -34    5.55    4.14
  -8  -6  34    8.22    4.60
  -1   1 -35    3.73    3.40
  -1   1 -35   -0.82    1.90
  -2   0 -35   10.97    5.45
  -2   0 -35    4.31    4.28
   0   2 -35    0.22    3.44
  -2   0 -35    0.78    2.27
  -1  -2 -35   11.43    4.89
  -2   3 -35   11.26    4.25
  -2   3 -35   -3.10    3.11
  -1  -2 -35   19.43    6.14
  -1   4 -35   15.94    4.03
  -3  -1 -35    7.47    3.83
  -1   4 -35   11.65    4.02
  -3  -1 -35    6.83    3.83
  -3   2 -35   -0.67    3.04
  -3   2 -35    3.31    3.62
  -3   2 -35   12.09    6.56
  -3   5 -35    4.13    3.22
  -2  -3 -35    0.11    2.78
  -3   5 -35    4.17    4.52
  -3   5 -35    4.88    3.11
  -2  -3 -35    7.54    4.66
  -5   2  35    7.05    4.12
  -2   6 -35   23.26    5.30
  -2   6 -35   28.09    5.56
  -4  -2 -35   20.50    5.79
  -4  -2 -35   23.37    5.43
  -6   4  35   16.97    5.44
  -4   1 -35    9.86    4.33
  -4   1 -35    8.02    4.19
  -4   1 -35    8.56    2.30
   1   3 -35    9.20    3.77
   0  -4 -35   -0.81    2.94
  -4   4 -35    2.20    2.69
  -4   4 -35   -2.09    4.12
  -4   4 -35   -2.87    2.15
  -4   0  35   -0.95    2.88
  -4   7 -35    7.52    4.18
  -3  -4 -35   21.58    4.69
  -3  -4 -35   12.81    5.59
  -4   7 -35   18.84    6.20
  -7   3  35    0.50    3.99
  -3   8 -35   -2.54    1.79
  -3   8 -35    0.02    3.28
  -3   8 -35   -0.81    4.54
  -5  -3 -35   -0.34    3.11
  -5  -3 -35    0.76    2.71
  -8   5  35   -2.63    2.85
  -5   0 -35    0.62    2.91
   0   5 -35   20.17    4.79
   0   5 -35    1.67    2.58
  -5   0 -35   -0.55    3.38
  -5   3 -35   -2.78    3.08
  -5   3 -35    6.27    3.78
  -5   3 -35    7.06    2.43
  -3  -2  35    3.36    3.81
  -5   6 -35   24.95    6.91
  -1  -5 -35   26.74    5.31
  -5   6 -35   19.99    4.90
  -5   6 -35   33.93    6.52
  -1  -5 -35   28.74    6.88
  -6   1  35   15.52    5.47
  -4  -5 -35   11.64    3.71
  -4  -5 -35    1.09    3.93
  -5   9 -35   12.40    4.53
  -5   9 -35    6.11    4.58
  -5   9 -35    8.90    2.59
  -9   4  35   13.59    4.56
  -4  10 -35   14.52    5.71
  -6  -4 -35   18.06    6.11
  -4  10 -35   23.25    4.29
  -6  -4 -35   17.28    4.86
  -4  10 -35   12.20    6.52
 -10   6  35   12.16    4.40
  -6  -1 -35    5.76    3.59
  -1   7 -35    1.05    3.64
  -6  -1 -35    4.32    3.98
  -1   7 -35    3.66    2.54
   1  -7  35   -1.22    3.14
  -7   6  35    4.72    3.90
   2   4 -35   24.81    5.43
  -6   2 -35   31.13    6.85
  -6   2 -35   29.83    7.21
  -2  -4  35   25.38    5.88
  -6   5 -35   23.86    6.05
  -6   5 -35   21.45    4.76
   1  -6 -35   24.79    5.42
  -6   5 -35   28.20    6.69
  -5  -1  35   26.74    6.04
  -2  -6 -35    0.21    3.73
  -2  -6 -35   -0.66    1.99
  -6   8 -35   -2.69    2.41
  -6   8 -35   -1.50    3.45
  -8   2  35    3.73    3.19
  -5  -6 -35    4.96    4.58
  -6  11 -35    5.73    4.03
  -6  11 -35   15.20    5.36
 -11   5  35    1.10    3.57
  -5  12 -35   17.21    6.43
  -7  -5 -35    7.80    4.91
  -7  -5 -35   19.74    5.14
  -5  12 -35    6.06    4.67
 -12   7  35    1.56    3.81
  -7  -2 -35   -1.64    2.85
  -2   9 -35   -1.55    2.10
  -7  -2 -35   -2.02    2.89
  -2   9 -35   -0.88    3.09
  -9   7  35    0.04    3.30
   2  -9  35   -2.41    2.55
  -7   1 -35   -1.57    3.03
   1   6 -35    4.54    3.90
   1   6 -35    1.35    2.37
  -7   1 -35    4.23    3.68
  -1  -6  35    5.98    3.28
  -7   4 -35   12.50    3.16
  -7   4 -35   10.59    4.42
  -7   4 -35    6.64    4.55
  -4  -3  35    6.76    3.82
   0  -7 -35    1.75    1.82
  -7   7 -35    3.73    3.32
  -7   7 -35    0.93    2.60
  -7   0  35    0.87    3.25
  -7  10 -35   22.04    5.07
  -7  10 -35   20.44    5.75
  -3  -7 -35    1.01    4.31
 -10   3  35    6.96    4.09
  -7  13 -35    0.21    3.95
  -6  -7 -35   -3.39    3.73
  -7  13 -35   -1.07    3.07
 -13   6  35   -1.09    3.50
  -8  -3 -35    0.98    3.22
  -3  11 -35   -7.10    4.86
  -3  11 -35   -2.99    3.48
  -8  -3 -35    0.37    4.28
  -3  11 -35    6.84    3.17
 -11   8  35    2.86    3.44
   0   8 -35   -0.11    2.43
  -8   0 -35    2.85    3.51
  -8   0 -35   -6.20    2.84
   0   8 -35   -1.98    2.94
   0  -8  35    1.54    2.46
  -8   8  35    2.31    3.41
  -8   3 -35   -0.65    2.92
  -8   3 -35    1.63    3.43
  -3  -5  35    3.05    3.00
  -8   6 -35   -1.20    1.96
  -8   6 -35   -0.03    2.63
  -6  -2  35    0.82    2.73
  -8   9 -35    1.01    2.79
  -8   9 -35    1.52    3.94
  -1  -8 -35    8.55    6.14
  -9   1  35    1.76    3.49
  -8  12 -35    5.43    4.22
  -4  -8 -35    0.16    4.56
  -8  12 -35    1.18    3.87
 -12   4  35    6.01    4.32
  -4  13 -35    0.99    3.18
  -9  -4 -35    7.86    4.41
  -4  13 -35   -4.03    3.92
  -4  13 -35    0.58    5.74
  -9  -4 -35    2.35    4.48
 -13   9  35    5.36    4.17
  -9  -1 -35    5.62    4.25
  -9  -1 -35    1.94    3.56
  -1  10 -35    2.84    4.04
  -1  10 -35    5.17    3.02
 -10   9  35    5.27    3.65
   2   7 -35    2.25    3.69
  -9   2 -35    0.64    3.61
  -9   2 -35   -2.43    3.54
  -2  -7  35    3.72    3.15
  -7   9  35    7.27    4.16
  -9   5 -35    1.60    3.25
  -5  -4  35    9.72    4.06
  -9   8 -35   -1.54    3.10
  -9   8 -35    0.96    2.64
  -8  -1  35   -3.61    2.80
  -9  11 -35   19.51    5.93
  -9  11 -35   23.09    6.75
  -2  -9 -35   14.01    6.73
 -11   2  35   12.25    5.21
  -2  12 -35   21.10    4.99
  -2  12 -35   28.28    8.33
  -2  12 -35    4.44    4.36
 -10  -2 -35   14.79    5.58
 -12  10  35   16.19    4.98
   1   9 -35    4.78    3.79
   1   9 -35    1.25    2.95
 -10   1 -35    3.04    3.96
  -9  10  35    7.25    3.82
  -1  -9  35    4.12    3.01
   4   6 -35   12.95    4.68
 -10   4 -35   17.07    6.41
  -4  -6  35   26.58    5.72
 -10   7 -35   16.85    4.46
 -10   7 -35   10.94    4.97
  -7  -3  35   16.72    5.29
   0 -10 -35   11.89    5.97
 -10  10 -35   -0.75    3.53
 -10  10 -35    0.17    2.96
 -10   0  35   -3.74    3.24
 -10  13 -35   -1.85    3.63
 -10  13 -35    2.57    4.53
  -3 -10 -35   -4.53    4.89
 -13   3  35   -0.80    3.76
   0  11 -35    0.84    3.08
   0  11 -35   -3.69    3.47
 -11   0 -35    3.21    4.51
 -11  11  35   -0.80    3.31
   3   8 -35   -2.60    3.25
 -11   3 -35    3.50    4.30
   3   8 -35    2.09    2.93
  -3  -8  35    0.67    2.83
  -8  11  35    2.73    3.84
 -11   6 -35    5.39    4.15
  -6  -5  35    7.31    3.78
 -11   9 -35   15.86    4.67
 -11   9 -35    9.94    5.29
  -9  -2  35    6.25    4.10
 -11  12 -35   19.08    6.61
 -11  12 -35   15.87    5.41
  -1 -11 -35   14.21    7.38
 -12   1  35    5.29    5.12
   2  10 -35   20.60    5.11
   2  10 -35    7.28    4.75
 -12   2 -35   17.06    6.32
 -10  12  35   15.23    4.82
 -12   5 -35   25.97    6.81
   5   7 -35   17.61    5.75
   5   7 -35   14.36    4.74
  -5  -7  35   10.74    4.43
  -7  12  35   19.99    5.86
 -12   8 -35   -2.45    3.57
  -8  -4  35   -0.13    3.75
 -12  11 -35    9.42    4.78
   1 -12 -35   26.44    8.33
 -12  11 -35   12.27    5.85
 -11  -1  35   10.99    5.53
   4   9 -35   -5.26    2.67
 -13   4 -35   -0.01    4.44
   4   9 -35   -2.81    3.91
  -4  -9  35   -5.47    3.09
   7   6 -35    1.98    3.50
 -13   7 -35    4.86    4.41
  -7  -6  35    3.25    4.30
 -13  10 -35   -4.61    3.87
 -13  10 -35   -2.93    3.00
 -10  -3  35   -0.05    4.17
   0   0 -36  141.54   19.60
  -1   2 -36    3.13    3.93
  -1  -1 -36   10.14    4.85
  -1  -1 -36    6.69    4.66
  -2   1 -36   12.46    5.14
   1   1 -36   12.78    4.40
  -2   1 -36   -4.96    2.94
  -2   1 -36    4.79    2.97
  -2   4 -36   13.61    4.60
  -2   4 -36   15.62    4.09
  -2  -2 -36   20.21    5.44
  -2  -2 -36   14.29    5.36
   0   3 -36   27.22    5.06
   0   3 -36   21.61    5.61
  -3   0 -36   27.75    6.45
  -3   0 -36   30.63    4.34
  -3   0 -36   20.08    5.84
  -3   3 -36    2.78    3.66
  -3   3 -36    1.70    2.79
  -3   3 -36   -1.45    2.48
   0  -3 -36    0.87    3.50
  -3  -3 -36   -0.07    3.72
  -3   6 -36    0.69    3.58
  -3   6 -36   -3.10    2.34
  -3   6 -36    0.47    4.67
  -3  -3 -36    0.77    2.70
  -6   3  36    9.47    4.35
  -1   5 -36   26.33    5.54
  -4  -1 -36   22.28    5.62
  -4  -1 -36   16.40    5.56
  -1   5 -36   19.33    5.33
  -4   2 -36   22.53    6.00
  -4   2 -36    9.95    4.65
  -4   2 -36   15.30    3.35
  -4   5 -36    6.25    6.05
  -4   5 -36   14.57    4.33
  -1  -4 -36   17.16    5.73
  -1  -4 -36   13.85    4.58
  -4   5 -36   16.68    4.65
  -5   1  36   15.99    5.19
  -4   8 -36   10.74    5.14
  -4  -4 -36    6.85    3.82
  -4   8 -36    4.15    2.33
  -4   8 -36    8.08    3.58
  -4  -4 -36    3.17    3.37
  -8   4  36    3.62    3.36
  -5  -2 -36   -0.30    3.01
  -5  -2 -36    4.96    3.86
  -2   7 -36    4.83    3.03
  -2   7 -36   10.68    4.35
  -7   5  36    1.90    3.70
   1   4 -36   29.05    5.37
  -5   1 -36   22.14    6.47
  -5   1 -36   21.41    6.21
   1   4 -36   25.09    5.47
  -5   4 -36    5.90    4.54
  -5   4 -36   23.84    4.31
   1  -5 -36   19.69    5.45
  -5   4 -36   19.78    5.21
  -4  -1  36   10.82    4.62
  -5   7 -36    4.01    4.11
  -5   7 -36    6.50    3.38
  -2  -5 -36    0.45    3.62
  -2  -5 -36    7.75    2.98
  -7   2  36    1.63    3.21
  -5  10 -36   11.02    5.57
  -5  -5 -36   10.32    5.37
  -5  10 -36   10.99    4.33
  -5  -5 -36   14.66    4.43
 -10   5  36   -0.41    3.13
  -3   9 -36    5.25    2.56
  -6  -3 -36   -1.83    2.90
  -3   9 -36    5.37    5.70
  -3   9 -36   -5.08    3.45
  -6  -3 -36   -0.05    2.83
  -9   6  36   -0.02    3.72
  -6   0 -36   20.46    6.57
   0   6 -36   34.90    5.93
  -6   0 -36   27.98    6.76
   0   6 -36   28.86    6.28
   0  -6  36   28.56    5.90
  -6   3 -36    3.56    1.99
  -6   3 -36   -3.61    3.11
  -6   3 -36    8.97    4.22
   3   3 -36   -3.61    3.11
  -3  -3  36   -0.59    2.98
  -6   6 -36   28.63    6.04
  -6   6 -36   22.66    7.19
  -6   6 -36   42.11    8.05
   0  -6 -36   50.69    7.28
  -6   0  36   42.43    7.92
  -3  -6 -36    8.91    4.93
  -3  -6 -36    5.68    3.20
  -6   9 -36   11.00    4.43
  -6   9 -36    7.23    4.82
  -9   3  36    5.16    3.60
  -6  12 -36    0.44    3.54
  -6  -6 -36    0.14    4.16
  -6  12 -36   -0.63    4.31
 -12   6  36    5.50    3.98
  -4  11 -36   -4.30    4.80
  -7  -4 -36    0.52    3.25
  -7  -4 -36    0.62    4.16
  -4  11 -36    5.86    3.10
  -4  11 -36    4.40    4.24
 -11   7  36    7.81    3.89
  -7  -1 -36   16.99    6.21
  -7  -1 -36   13.37    5.15
  -1   8 -36   11.17    3.53
  -1   8 -36   14.03    4.65
  -8   7  36    8.59    4.58
   1  -8  36   11.76    4.08
  -7   2 -36   15.86    5.20
   2   5 -36    9.03    3.23
   2   5 -36    6.86    3.71
  -7   2 -36    4.67    4.07
  -2  -5  36    8.71    3.85
  -7   5 -36    2.72    3.72
  -7   5 -36    5.70    2.76
  -7   5 -36    5.19    3.98
   2  -7 -36    4.39    3.17
  -5  -2  36    2.88    3.38
  -7   8 -36    0.74    2.60
  -7   8 -36    1.47    3.66
  -1  -7 -36    5.51    4.96
  -8   1  36   -0.50    3.12
  -7  11 -36   -1.04    3.27
  -7  11 -36    6.32    4.31
  -4  -7 -36    5.73    4.96
 -11   4  36    3.59    3.69
  -5  13 -36   -2.88    3.80
  -8  -5 -36   10.15    5.55
  -5  13 -36    6.42    6.21
 -13   8  36   14.38    5.18
  -2  10 -36   -1.29    2.48
  -8  -2 -36    0.06    3.36
  -2  10 -36   -1.63    3.19
  -8  -2 -36   -0.23    3.25
 -10   8  36    2.90    3.22
   1   7 -36   13.17    4.87
  -8   1 -36   15.45    5.71
  -8   1 -36   17.80    5.75
  -1  -7  36   11.15    3.99
  -7   8  36    9.56    4.77
  -8   4 -36    7.30    4.26
  -8   4 -36    3.38    3.96
   4   4 -36    4.18    3.47
  -4  -4  36    3.31    3.35
  -8   7 -36    3.41    3.62
  -8   7 -36    1.10    2.71
  -7  -1  36    3.49    3.71
  -2  -8 -36   -4.96    4.02
  -8  10 -36    3.83    3.41
  -8  10 -36    1.40    3.93
 -10   2  36    0.48    3.45
  -8  13 -36   -4.73    3.75
  -5  -8 -36   -2.33    4.16
  -8  13 -36   -3.15    3.40
 -13   5  36    5.70    4.69
  -3  12 -36   -6.89    2.76
  -9  -3 -36    1.92    4.39
  -9  -3 -36   -3.11    2.91
  -3  12 -36   -1.89    5.84
  -3  12 -36   -1.52    2.90
 -12   9  36    1.84    3.60
   0   9 -36    9.29    3.69
  -9   0 -36   13.91    5.86
  -9   0 -36    9.57    4.57
   0   9 -36    8.07    4.57
   0  -9  36   11.92    3.70
  -9   9  36   11.20    4.39
   3   6 -36    0.34    3.42
  -9   3 -36   -0.65    3.41
  -3  -6  36    4.22    3.05
  -9   6 -36    4.97    4.19
  -9   6 -36    6.22    3.19
  -6  -3  36    3.86    3.61
  -9   9 -36   -0.62    2.62
  -9   9 -36    4.77    3.61
   0  -9 -36    5.39    5.41
  -9   0  36   -1.33    3.27
  -9  12 -36   -1.19    3.37
  -9  12 -36    0.87    4.18
  -3  -9 -36   -4.14    4.03
 -12   3  36    0.06    3.45
  -1  11 -36    6.09    3.46
 -10  -1 -36   11.36    5.02
  -1  11 -36   12.96    5.49
 -11  10  36    7.78    4.49
   2   8 -36   -0.28    3.00
   2   8 -36   -3.80    2.84
 -10   2 -36   -1.57    3.45
  -2  -8  36   -0.36    3.01
  -8  10  36   -1.47    3.25
 -10   5 -36   12.56    4.91
  -5  -5  36    5.58    3.37
 -10   8 -36    0.90    3.22
 -10   8 -36   -1.73    3.74
  -8  -2  36    1.05    3.23
  -1 -10 -36    1.32    6.45
 -10  11 -36   -3.13    2.82
 -10  11 -36   -0.55    3.82
 -11   1  36    0.41    3.82
 -11   1 -36   13.48    6.01
   1  10 -36   15.21    4.46
   1  10 -36   11.72    5.49
 -10  11  36    7.38    4.54
   4   7 -36    0.36    3.33
 -11   4 -36    6.32    4.15
   4   7 -36   -0.19    2.85
  -4  -7  36    4.94    3.69
  -7  11  36    4.27    4.37
 -11   7 -36   -0.54    3.68
  -7  -4  36    4.65    3.74
 -11  10 -36   -2.88    3.19
 -11  10 -36   -1.89    3.39
 -10  -1  36   -6.24    3.27
   3   9 -36    0.35    2.99
 -12   3 -36    0.38    3.91
   3   9 -36    5.11    4.44
  -3  -9  36    5.12    3.58
  -9  12  36    3.52    3.74
 -12   6 -36   -1.56    3.49
   6   6 -36    2.08    3.31
  -6  -6  36    5.10    3.82
 -12   9 -36   -3.15    2.93
 -12   9 -36   -3.69    3.86
  -9  -3  36   -2.38    3.41
   5   8 -36    2.77    4.52
 -13   5 -36    8.50    5.02
   5   8 -36   11.71    4.54
  -5  -8  36   15.85    5.26
 -13   8 -36   -3.15    4.30
   8   5 -36    2.06    3.83
  -8  -5  36   -0.07    3.65
   0   1 -37    1.43    3.34
  -1   0 -37    2.34    3.87
  -1   0 -37   -1.10    3.19
  -1   0 -37    2.33    2.05
  -2  -1 -37   16.68    5.64
  -1   3 -37   12.93    4.00
  -1   3 -37   21.08    5.10
  -2  -1 -37   16.10    5.59
  -2  -1 -37   15.03    3.12
  -2   2 -37    2.43    2.59
  -2   2 -37    2.38    4.17
  -2   2 -37   -0.53    2.58
  -2   5 -37    8.01    3.75
  -2   5 -37    4.94    3.09
  -3  -2 -37    1.14    3.45
  -3  -2 -37    5.65    3.36
  -3   1 -37   16.45    3.51
  -3   1 -37   17.56    5.24
   1   2 -37   16.65    5.24
  -3   1 -37   19.04    5.98
  -3   4 -37    1.41    3.77
  -3   4 -37    1.77    3.10
  -3   4 -37   12.73    6.40
  -1  -3 -37   15.47    5.87
  -1  -3 -37    1.48    4.77
  -4  -3 -37    5.71    3.43
  -3   7 -37    3.14    3.04
  -3   7 -37   -0.61    3.14
  -4  -3 -37    4.74    3.99
  -3   7 -37    4.09    4.95
  -7   4  37    3.50    3.80
   0   4 -37    1.50    3.31
  -4   0 -37   -3.31    2.87
   0   4 -37    2.95    2.85
  -4   0 -37   -5.87    2.62
  -4   3 -37   -6.89    2.70
  -4   3 -37   -0.05    5.10
   1  -4 -37   26.55    5.61
  -4   3 -37   -2.22    2.95
  -4   6 -37   14.09    4.99
  -2  -4 -37   14.81    4.89
  -4   6 -37   20.74    5.14
  -2  -4 -37   21.44    6.78
  -4   6 -37   24.91    7.25
  -6   2  37   28.11    6.38
  -4   9 -37    3.38    2.36
  -5  -4 -37    1.95    4.22
  -5  -4 -37   -3.09    2.54
  -4   9 -37    1.45    6.47
  -4   9 -37   -6.96    3.53
  -9   5  37   -1.56    2.95
  -5  -1 -37   -2.19    2.65
  -5  -1 -37   -4.29    3.11
  -1   6 -37    2.20    2.72
  -1   6 -37    0.34    3.56
  -6   5  37    7.78    4.24
  -5   2 -37   -0.42    3.06
  -5   2 -37    5.56    2.05
   2   3 -37    1.81    3.44
  -5   2 -37    1.17    3.04
   0  -5 -37   -3.55    2.86
  -5   5 -37   -6.77    3.05
  -5   5 -37   -3.72    2.30
  -5   5 -37    1.30    2.95
  -5   0  37    4.60    4.18
  -5   8 -37   -0.11    2.74
  -5   8 -37    1.85    4.20
  -3  -5 -37   -0.10    2.38
  -3  -5 -37   -1.58    3.75
  -5   8 -37    2.43    1.91
  -8   3  37   -4.48    2.83
  -6  -5 -37    1.37    3.14
  -5  11 -37   -0.84    4.61
  -5  11 -37    3.02    3.63
  -6  -5 -37   -1.74    3.82
 -11   6  37    0.48    3.31
  -2   8 -37    3.14    3.75
  -6  -2 -37    2.22    4.01
  -6  -2 -37    3.09    3.43
  -8   6  37    0.82    3.91
   1   5 -37    4.83    3.49
   1   5 -37    2.11    2.50
  -6   1 -37    0.64    3.47
  -6   1 -37    0.24    3.20
  -1  -5  37    5.10    3.76
   2  -6 -37   19.14    5.77
  -6   4 -37   11.38    5.45
  -6   4 -37   24.26    6.25
  -6   4 -37   17.93    4.13
  -4  -2  37   22.02    5.52
  -1  -6 -37    3.79    2.40
  -1  -6 -37    7.56    4.75
  -6   7 -37    0.15    3.02
  -6   7 -37    7.55    3.23
  -7   1  37   -4.66    2.20
  -6  10 -37    6.95    5.06
  -6  10 -37   13.02    4.52
  -4  -6 -37   11.03    5.29
  -4  -6 -37   16.12    4.70
 -10   4  37    1.10    3.55
  -6  13 -37   -3.17    4.62
  -6  13 -37   -2.73    3.58
  -7  -6 -37   -2.86    4.23
 -13   7  37    1.66    3.78
  -7  -3 -37   -1.55    3.61
  -3  10 -37    4.23    3.59
  -3  10 -37    5.67    3.01
  -7  -3 -37    5.44    3.51
  -3  10 -37    7.08    5.79
 -10   7  37    4.31    3.28
  -7   0 -37    1.04    3.53
   0   7 -37   -3.38    2.62
  -7   0 -37    0.99    3.58
   0  -7  37   -1.87    2.69
  -7   7  37    0.04    3.48
   3   4 -37    6.76    3.34
  -7   3 -37    7.71    3.86
  -7   3 -37    7.59    4.58
  -3  -4  37    3.05    3.44
  -7   6 -37    4.43    2.78
   1  -7 -37    4.18    2.45
  -7   6 -37   -3.88    2.52
  -6  -1  37   -4.39    2.68
  -7   9 -37    7.57    3.72
  -2  -7 -37    4.22    4.87
  -7   9 -37    4.34    3.88
  -9   2  37   -2.97    3.16
  -5  -7 -37   -1.08    4.31
  -7  12 -37    6.32    4.40
  -7  12 -37    0.32    3.99
 -12   5  37    0.71    3.56
  -4  12 -37    2.42    5.65
  -4  12 -37    3.50    4.35
  -8  -4 -37    1.30    3.78
  -4  12 -37    0.27    3.15
  -8  -4 -37    3.07    4.52
 -12   8  37   -1.57    3.16
  -1   9 -37    2.37    2.64
  -8  -1 -37    7.68    4.38
  -8  -1 -37    0.25    3.59
  -1   9 -37    0.61    3.98
   1  -9  37    5.98    3.20
  -9   8  37    6.06    3.79
   2   6 -37    8.54    3.70
  -8   2 -37    0.93    3.41
  -8   2 -37   -1.43    3.29
  -2  -6  37    5.05    3.13
  -8   5 -37    2.02    3.36
  -8   5 -37   -0.35    1.94
  -5  -3  37    2.49    3.52
   0  -8 -37   19.67    5.69
  -8   8 -37   -0.30    3.28
  -8   8 -37    1.30    3.15
  -8   0  37    0.02    2.89
  -8  11 -37    1.24    3.60
  -3  -8 -37  -12.15    3.92
  -8  11 -37   -5.61    3.54
 -11   3  37   -0.54    3.09
  -9  -2 -37   -4.59    3.63
  -2  11 -37   -4.24    3.36
  -2  11 -37   13.42    7.20
  -2  11 -37   -3.72    2.52
  -9  -2 -37   -0.73    3.45
 -11   9  37    2.33    3.67
   1   8 -37   -5.11    2.89
   1   8 -37    2.43    3.11
  -9   1 -37    0.82    3.80
  -9   1 -37    5.17    3.99
  -1  -8  37    3.17    3.01
  -8   9  37   -1.38    3.37
  -9   4 -37    2.16    3.93
  -4  -5  37   -2.60    2.79
  -9   7 -37    1.40    3.24
  -9   7 -37    1.43    2.85
  -7  -2  37    3.08    3.70
  -9  10 -37    4.09    3.47
  -1  -9 -37    3.71    6.11
  -9  10 -37    2.93    4.15
 -10   1  37    4.57    4.13
  -9  13 -37    4.08    4.41
  -4  -9 -37   -4.86    3.63
  -9  13 -37   -0.18    4.09
 -13   4  37   -2.48    4.04
   0  10 -37    3.01    2.99
 -10   0 -37    2.04    3.85
   0  10 -37   -4.49    4.06
 -10  10  37   -3.36    3.12
 -10   3 -37   -4.17    3.58
   3   7 -37   -0.52    3.58
  -7  10  37    0.98    4.20
  -3  -7  37    1.71    3.32
 -10   6 -37    9.23    4.73
  -6  -4  37   12.30    4.45
 -10   9 -37   10.31    4.33
 -10   9 -37   10.74    5.00
  -9  -1  37   -1.32    3.75
 -10  12 -37    8.47    5.72
  -2 -10 -37   10.96    7.06
 -10  12 -37   14.85    5.33
 -12   2  37   11.65    5.70
  -1  12 -37    4.16    3.67
 -11  -1 -37    2.68    4.30
  -1  12 -37   -0.79    4.55
 -12  11  37   11.49    4.62
   2   9 -37    3.94    3.42
 -11   2 -37    1.43    3.92
   2   9 -37    6.60    4.10
  -9  11  37   -4.95    3.06
  -2  -9  37    4.02    3.40
 -11   5 -37    3.45    4.34
  -5  -6  37    1.07    3.39
 -11   8 -37   -4.80    3.81
  -8  -3  37    0.02    3.32
 -11  11 -37   -4.58    3.74
   0 -11 -37   -2.61    5.48
 -11  11 -37    4.27    3.78
 -11   0  37   -4.01    3.61
   1  11 -37    1.19    4.58
 -12   1 -37    4.23    4.78
   1  11 -37    2.51    3.46
 -11  12  37    4.68    3.66
 -12   4 -37    7.79    4.98
   4   8 -37    1.46    4.08
   4   8 -37    3.35    3.58
  -8  12  37    0.97    3.81
  -4  -8  37    1.44    3.41
 -12   7 -37    0.13    4.26
  -7  -5  37   -1.22    3.34
 -12  10 -37   11.87    5.68
 -12  10 -37    9.93    4.73
 -10  -2  37    5.98    4.79
 -13   6 -37   -3.95    3.86
   6   7 -37    3.44    3.79
   6   7 -37    0.46    4.75
  -6  -7  37    3.41    4.15
 -13   9 -37    1.86    4.97
  -9  -4  37   -3.43    4.10
  -1   1 -38    5.41    2.70
  -1   1 -38    1.79    3.60
   0  -1 -38    5.31    3.77
   0   2 -38    8.76    4.43
  -2   0 -38    6.38    4.65
  -2   0 -38    6.77    4.29
  -2   0 -38    7.56    2.91
  -2   3 -38   18.07    5.54
  -1  -2 -38    8.88    5.37
  -2   3 -38   -6.19    2.81
  -2   3 -38    1.35    3.92
  -1  -2 -38   -1.95    5.23
  -3  -1 -38   -1.78    3.26
  -3  -1 -38    4.91    4.04
  -1   4 -38    1.53    2.98
  -1   4 -38    1.18    3.09
  -3   2 -38   -2.30    5.75
  -3   2 -38   -3.09    3.45
  -3   2 -38   -4.92    2.90
  -2  -3 -38   -4.73    2.92
  -3   5 -38    2.59    4.63
  -3   5 -38   -2.07    2.60
  -3   5 -38    0.19    3.22
  -2  -3 -38   -2.72    3.23
  -5   2  38    5.84    4.06
  -4  -2 -38   -1.22    3.01
  -2   6 -38   -1.86    2.88
  -2   6 -38    2.47    2.93
  -4  -2 -38    6.40    3.39
  -6   4  38    3.90    3.99
  -4   1 -38    3.01    3.37
  -4   1 -38   -3.29    3.14
  -4   1 -38    0.23    1.79
   1   3 -38    2.50    3.31
   0  -4 -38    8.42    4.40
  -4   4 -38    6.16    3.82
  -4   4 -38    3.83    3.08
  -4   4 -38    3.55    5.34
  -4   0  38    8.14    4.29
  -4   7 -38    0.19    4.39
  -4   7 -38    4.79    3.63
  -3  -4 -38    5.36    3.35
  -4   7 -38    3.34    3.07
  -3  -4 -38   -1.50    3.07
  -7   3  38    8.36    4.02
  -3   8 -38    0.62    4.19
  -5  -3 -38    2.92    4.29
  -3   8 -38    9.94    3.99
  -5  -3 -38    5.28    3.53
  -8   5  38    4.27    3.56
  -5   0 -38   -4.79    2.61
   0   5 -38    7.61    3.22
   0   5 -38    7.29    3.62
  -5   0 -38    9.89    4.61
  -5   3 -38    1.55    2.14
  -5   3 -38    3.99    3.48
  -5   3 -38   -3.19    3.65
  -3  -2  38    4.60    4.08
  -5   6 -38   -0.38    3.46
  -5   6 -38    2.26    2.65
  -1  -5 -38    0.95    2.42
  -1  -5 -38    0.14    4.09
  -5   6 -38   -1.60    2.63
  -6   1  38   -1.05    3.14
  -5   9 -38   -0.99    3.32
  -4  -5 -38    1.10    3.56
  -5   9 -38   -3.51    4.75
  -4  -5 -38    1.91    2.68
  -9   4  38    0.66    2.80
  -4  10 -38    1.95    2.66
  -6  -4 -38    3.20    4.25
  -4  10 -38    4.77    5.84
  -6  -4 -38    2.05    3.57
  -4  10 -38    5.25    4.26
 -10   6  38    1.19    3.43
  -1   7 -38   -1.05    3.34
  -6  -1 -38   -2.06    2.63
  -6  -1 -38    5.40    3.90
  -1   7 -38    1.55    2.68
   1  -7  38   -5.17    2.90
  -7   6  38    4.26    4.16
  -6   2 -38    2.00    3.56
  -6   2 -38   -0.46    3.19
   2   4 -38   -1.54    2.42
  -2  -4  38   -0.47    3.34
  -6   5 -38    0.35    2.04
  -6   5 -38    2.15    3.21
  -6   5 -38   -0.33    3.19
   1  -6 -38    2.03    2.80
  -5  -1  38   -1.18    3.34
  -2  -6 -38    5.64    4.61
  -2  -6 -38    4.11    2.67
  -6   8 -38   -3.61    2.51
  -6   8 -38    3.03    4.67
  -8   2  38    1.16    3.72
  -5  -6 -38    0.08    4.66
  -6  11 -38    1.98    4.53
  -6  11 -38   -2.99    3.19
 -11   5  38    1.27    3.45
  -5  12 -38    1.77    3.50
  -7  -5 -38    1.32    3.76
  -7  -5 -38    4.95    4.60
  -5  12 -38   -3.27    4.65
 -12   7  38   -0.58    3.52
  -2   9 -38   -2.59    3.33
  -2   9 -38    1.48    2.66
  -7  -2 -38    2.82    4.18
  -7  -2 -38    1.06    3.31
  -9   7  38   -1.61    3.16
   2  -9  38   -4.14    2.86
   1   6 -38    0.30    3.05
  -7   1 -38    1.75    3.46
  -7   1 -38    2.35    3.62
  -1  -6  38    1.34    3.19
  -7   4 -38   10.11    4.55
  -7   4 -38    6.09    4.55
   3  -7 -38    2.04    4.16
  -4  -3  38   11.09    4.25
  -7   7 -38    5.51    4.74
  -7   7 -38   15.84    4.21
  -7   0  38   14.52    4.96
  -7  10 -38    2.23    4.17
  -3  -7 -38   -0.70    4.32
  -7  10 -38    5.99    3.62
 -10   3  38   -0.02    3.73
  -7  13 -38   -4.54    3.67
  -7  13 -38    0.32    4.05
  -6  -7 -38    5.21    4.99
 -13   6  38   -7.59    2.88
  -8  -3 -38    6.61    4.17
  -3  11 -38    1.09    2.98
  -8  -3 -38   -4.46    3.38
  -3  11 -38    1.54    6.38
  -3  11 -38   -3.87    3.80
 -11   8  38    1.00    3.62
   0   8 -38   17.37    4.55
  -8   0 -38   26.13    6.56
   0   8 -38   17.49    5.28
  -8   0 -38   11.80    5.67
   0  -8  38   14.30    4.29
  -8   8  38   21.63    5.54
  -8   3 -38    6.35    4.08
  -8   3 -38    6.90    4.49
  -3  -5  38    5.05    3.50
  -8   6 -38    5.72    2.82
  -8   6 -38    1.83    3.59
  -6  -2  38    5.17    3.77
  -8   9 -38    2.05    3.17
  -8   9 -38    6.17    4.67
  -1  -8 -38    4.95    5.35
  -9   1  38   -1.80    3.41
  -8  12 -38    4.09    3.87
  -8  12 -38   -0.25    3.96
  -4  -8 -38   -2.85    4.06
 -12   4  38    0.86    3.68
  -1  10 -38    6.22    3.13
  -9  -1 -38   -0.51    3.81
  -1  10 -38   -0.50    4.20
  -9  -1 -38    4.65    4.14
 -10   9  38   -4.91    3.04
  -9   2 -38   -1.91    3.27
  -9   2 -38   -3.49    3.41
   2   7 -38    3.22    3.69
  -2  -7  38    1.28    2.70
  -7   9  38    2.65    4.17
  -9   5 -38   10.01    4.70
  -5  -4  38   -2.95    3.31
  -9   8 -38    5.91    4.63
  -9   8 -38   -0.34    2.67
  -8  -1  38    5.35    3.99
  -2  -9 -38   -8.20    5.02
  -9  11 -38    1.38    3.50
  -9  11 -38    8.90    5.24
 -11   2  38    4.64    4.24
  -2  12 -38   -5.16    3.99
 -10  -2 -38   -1.39    3.80
  -2  12 -38   13.08    7.79
  -2  12 -38    0.32    3.21
 -12  10  38   -0.36    3.82
   1   9 -38    2.32    4.73
 -10   1 -38    1.44    3.96
   1   9 -38    2.51    3.26
  -9  10  38    1.94    3.76
  -1  -9  38   -0.10    2.64
 -10   4 -38   12.02    5.56
   4   6 -38    6.26    3.82
  -4  -6  38    4.24    3.81
 -10   7 -38   -1.45    3.77
  -7  -3  38    0.29    3.41
   0 -10 -38   11.64    7.17
 -10  10 -38   -1.78    3.09
 -10  10 -38   -2.98    3.45
 -10   0  38   -0.51    3.30
   0  11 -38    4.94    5.81
 -11   0 -38    1.43    4.58
   0  11 -38    5.83    3.60
 -11  11  38   -0.93    3.86
   3   8 -38    0.09    2.91
   3   8 -38    0.64    4.31
 -11   3 -38   -0.06    3.49
  -8  11  38   -5.13    3.23
  -3  -8  38   -0.42    3.12
 -11   6 -38    2.76    4.49
  -6  -5  38    0.20    3.35
 -11   9 -38    3.66    4.65
 -11   9 -38   -2.75    3.08
  -9  -2  38    1.93    4.12
 -12   2 -38   -1.87    3.89
   2  10 -38    4.36    3.92
   2  10 -38   -0.62    4.80
 -10  12  38   -1.31    3.45
 -12   5 -38    3.92    4.68
   5   7 -38   -0.28    4.03
   5   7 -38    1.89    3.69
  -5  -7  38    4.96    3.81
  -7  12  38    4.06    5.03
 -12   8 -38   -5.66    3.58
  -8  -4  38    7.24    4.24
 -13   7 -38   10.91    5.77
   7   6 -38    1.53    3.65
  -7  -6  38    1.02    4.06
   0   0 -39   11.28    5.59
  -1  -1 -39    8.76    4.81
  -1  -1 -39   12.08    5.64
  -1   2 -39   13.96    4.12
  -1   2 -39   -1.77    3.66
  -2   1 -39    1.82    4.09
  -2   1 -39    8.82    3.45
   1   1 -39    4.46    4.30
  -2   1 -39   15.57    6.03
  -2  -2 -39   10.25    5.11
  -2   4 -39   40.41    7.55
  -2   4 -39   14.51    4.87
  -2  -2 -39   18.53    5.82
  -2   4 -39   18.00    4.80
   0   3 -39    3.42    3.14
  -3   0 -39   -2.39    3.68
  -3   0 -39   -2.83    2.93
   0   3 -39   -0.52    2.65
  -3   3 -39    1.54    2.76
   0  -3 -39    2.41    3.59
   0  -3 -39   -3.00    3.66
  -3   3 -39   -1.00    4.53
  -3   3 -39    1.24    3.25
  -3   6 -39    8.34    3.89
  -3  -3 -39    3.15    3.62
  -3   6 -39    8.60    3.72
  -3  -3 -39    2.69    3.15
  -3   6 -39    0.26    4.62
  -6   3  39    6.87    4.06
  -1   5 -39    2.72    2.97
  -1   5 -39    1.03    3.26
  -4  -1 -39    4.97    3.72
  -4  -1 -39   -0.07    3.14
  -4   2 -39   10.31    5.62
   2   2 -39   14.37    5.01
  -4   2 -39   15.96    5.48
  -4   2 -39   15.35    3.66
  -4   5 -39   -6.07    4.45
  -1  -4 -39    8.67    4.77
  -4   5 -39   -5.81    2.41
  -4   5 -39   -1.63    2.44
  -1  -4 -39   -0.65    3.01
  -5   1  39    9.53    4.36
  -4   8 -39   -2.06    3.80
  -4  -4 -39   -0.33    2.95
  -4  -4 -39    0.46    4.03
  -4   8 -39    0.78    5.90
  -8   4  39   -4.35    3.31
  -2   7 -39    8.65    3.55
  -5  -2 -39    6.41    3.79
  -2   7 -39   -0.05    3.60
  -5  -2 -39    8.33    4.89
  -7   5  39    2.63    3.82
  -5   1 -39   -0.02    3.37
   1   4 -39    1.62    3.30
   1   4 -39    1.85    2.78
  -5   1 -39    5.36    4.41
   1  -5 -39    2.19    3.97
  -5   4 -39   -0.43    2.01
  -5   4 -39   -3.62    2.37
  -5   4 -39   -3.25    2.84
  -4  -1  39    2.35    3.82
  -5   7 -39    1.15    2.82
  -5   7 -39    6.76    4.55
  -2  -5 -39   -0.36    2.52
  -2  -5 -39    4.42    4.23
  -7   2  39   -1.40    3.26
  -5  -5 -39   -0.80    3.70
  -5  10 -39    0.83    2.99
  -5  -5 -39    0.36    2.73
  -5  10 -39    0.66    5.01
 -10   5  39   -3.58    3.07
  -3   9 -39    2.36    3.65
  -3   9 -39    7.47    5.86
  -3   9 -39    0.79    2.55
  -6  -3 -39    1.61    3.34
  -6  -3 -39    2.12    3.68
  -9   6  39    0.98    3.41
   0   6 -39   -0.86    3.25
  -6   0 -39   -2.24    2.85
  -6   0 -39   -3.07    2.64
   0   6 -39    0.97    2.54
   0  -6  39   -7.04    2.83
  -6   3 -39    9.55    4.06
   3   3 -39    7.02    4.13
  -6   3 -39    6.20    4.18
  -3  -3  39    1.69    3.68
  -6   6 -39   -2.17    3.20
  -6   6 -39    0.27    2.27
   0  -6 -39    1.40    2.50
  -6   6 -39   -0.33    2.81
  -6   0  39    2.11    3.70
  -3  -6 -39    4.17    4.79
  -6   9 -39   -0.75    3.09
  -6   9 -39    6.84    4.52
  -3  -6 -39    8.46    3.47
  -9   3  39    2.23    3.48
  -6  12 -39    4.11    5.19
  -6  -6 -39    1.68    4.16
  -6  12 -39    1.47    3.62
 -12   6  39    1.61    4.05
  -7  -4 -39   -0.20    4.24
  -4  11 -39   -8.59    5.59
  -7  -4 -39   -0.78    2.97
  -4  11 -39   -1.09    3.98
 -11   7  39   -0.98    3.58
  -1   8 -39    8.18    4.49
  -7  -1 -39    7.09    4.07
  -7  -1 -39    1.27    4.10
  -8   7  39   -1.81    3.53
   1  -8  39    2.74    3.41
   2   5 -39    5.56    3.70
   2   5 -39   13.96    3.88
  -7   2 -39    5.97    4.06
  -7   2 -39    1.20    4.05
  -2  -5  39    8.36    4.06
  -7   5 -39   -2.21    2.46
   2  -7 -39    0.02    2.95
  -7   5 -39    0.45    2.22
  -7   5 -39   -0.26    2.85
  -5  -2  39   -1.75    3.34
  -1  -7 -39    3.70    4.74
  -7   8 -39   -0.45    3.72
  -7   8 -39   -2.58    2.33
  -8   1  39   11.93    4.58
  -7  11 -39    1.26    3.56
  -4  -7 -39   -6.41    4.08
  -7  11 -39    3.68    4.74
 -11   4  39    0.71    3.59
  -8  -2 -39    0.47    3.29
  -2  10 -39    1.31    4.76
  -8  -2 -39   -2.24    4.03
  -2  10 -39    5.05    3.06
  -2  10 -39   25.29    7.53
 -10   8  39   -1.82    3.43
  -8   1 -39    1.23    3.29
   1   7 -39    3.48    4.01
  -8   1 -39    2.37    3.88
  -1  -7  39   -2.36    2.38
  -7   8  39   -0.58    3.64
  -8   4 -39   -1.45    3.19
  -8   4 -39   -0.45    3.22
  -4  -4  39    0.46    3.63
  -8   7 -39   -2.04    3.36
  -8   7 -39    0.43    2.78
  -7  -1  39    4.65    3.57
  -8  10 -39    2.94    4.35
  -8  10 -39    0.00    3.05
  -2  -8 -39   -6.94    5.29
 -10   2  39   -0.73    3.19
  -3  12 -39   -1.49    3.07
  -9  -3 -39   -0.42    4.37
  -9  -3 -39    4.84    4.37
  -3  12 -39   -0.47    7.10
  -3  12 -39   -1.77    4.33
 -12   9  39    5.21    4.36
   0   9 -39    3.97    4.73
   0   9 -39   -2.75    2.68
  -9   0 -39    0.40    3.65
  -9   0 -39    6.68    4.70
   0  -9  39   -2.78    2.34
  -9   9  39   -4.36    2.99
  -9   3 -39    4.15    4.05
   3   6 -39    3.52    4.04
  -9   3 -39    5.77    4.43
  -3  -6  39   -0.08    2.81
  -9   6 -39    3.21    3.66
  -6  -3  39    2.38    3.47
  -9   9 -39    1.49    3.62
  -9   9 -39   -2.87    2.87
   0  -9 -39   14.68    6.29
  -9   0  39    0.98    4.00
  -3  -9 -39   -2.53    4.89
  -9  12 -39    1.15    3.67
  -9  12 -39   -1.72    4.16
 -12   3  39    0.84    3.70
  -1  11 -39   -2.94    2.98
  -1  11 -39   -5.54    4.57
 -10  -1 -39   -2.99    3.75
 -11  10  39   -3.83    3.57
   2   8 -39    0.17    2.88
 -10   2 -39    0.16    3.96
   2   8 -39    1.65    4.53
  -8  10  39   -4.69    3.47
  -2  -8  39    1.72    3.03
 -10   5 -39    1.29    3.98
  -5  -5  39    1.82    3.61
 -10   8 -39   -0.24    3.51
 -10   8 -39    0.32    3.08
  -8  -2  39   -2.79    3.14
 -10  11 -39    0.14    4.36
  -1 -10 -39    4.78    6.62
 -10  11 -39   -1.81    3.55
 -11   1  39   -0.02    4.12
   1  10 -39   -0.06    3.26
 -11   1 -39   -2.78    3.69
   1  10 -39    1.98    5.04
 -10  11  39   -0.19    3.71
   4   7 -39   -4.63    2.84
 -11   4 -39    0.74    3.87
   4   7 -39    1.56    3.98
  -4  -7  39    2.48    3.61
  -7  11  39   10.02    5.18
 -11   7 -39   -2.63    3.77
  -7  -4  39   -1.45    3.19
 -11  10 -39   -7.76    3.80
   1 -11 -39   11.47    6.35
 -11  10 -39    2.87    3.95
 -10  -1  39   -0.31    4.21
   3   9 -39    4.91    3.87
 -12   3 -39    3.45    4.69
   3   9 -39    2.42    4.70
  -9  12  39    2.82    4.29
 -12   6 -39    3.87    4.55
  -6  -6  39    0.02    3.38
 -12   9 -39    0.44    4.78
  -9  -3  39   -0.52    3.99
  -1   0 -40    2.84    2.38
  -1   0 -40    7.98    4.28
   0   1 -40    3.33    4.05
  -1   0 -40   17.59    5.63
  -2  -1 -40    0.15    3.84
  -2  -1 -40   -1.12    4.58
  -1   3 -40    2.91    3.06
  -1   3 -40    3.70    3.36
   0  -2 -40    3.30    3.60
  -2   2 -40    9.82    5.37
  -2   2 -40    4.82    2.92
   0  -2 -40    2.80    4.47
  -2   2 -40    2.40    3.17
  -3  -2 -40   -2.62    3.25
  -2   5 -40   -3.06    2.85
  -3  -2 -40    1.15    3.31
  -2   5 -40    0.69    2.59
  -3   1 -40   -3.89    4.55
  -3   1 -40   -1.90    2.37
   1   2 -40   -2.09    3.51
  -3   1 -40   -9.06    2.40
  -3   4 -40   -1.67    2.88
  -3   4 -40   -3.61    2.80
  -3   4 -40    2.67    4.53
  -1  -3 -40    1.08    4.18
  -1  -3 -40   -2.22    4.03
  -4  -3 -40   -3.12    3.11
  -3   7 -40    7.25    3.49
  -3   7 -40   -9.05    4.25
  -4  -3 -40    0.78    3.26
  -3   7 -40    0.77    3.60
  -7   4  40   -0.74    3.27
  -4   0 -40   -2.33    3.35
   0   4 -40    2.63    3.22
   0   4 -40    6.18    3.38
  -4   0 -40    4.75    3.95
  -4   3 -40    1.43    2.67
  -4   3 -40    1.08    3.19
  -4   3 -40    0.98    4.33
   1  -4 -40    2.38    4.53
  -2  -4 -40    6.11    4.84
  -4   6 -40    6.03    3.34
  -4   6 -40    2.37    4.42
  -2  -4 -40    7.43    3.48
  -4   6 -40   -1.04    3.12
  -6   2  40    7.80    4.19
  -4   9 -40   -1.26    2.11
  -5  -4 -40    5.55    4.28
  -4   9 -40   -5.43    4.98
  -4   9 -40    0.35    3.56
  -5  -4 -40    1.42    3.02
  -9   5  40   -0.40    3.33
  -1   6 -40   -1.81    3.23
  -5  -1 -40    0.78    3.21
  -1   6 -40    3.27    2.97
  -5  -1 -40    3.24    3.06
  -6   5  40   -0.78    3.85
  -5   2 -40    3.72    3.74
  -5   2 -40   -2.23    2.72
   2   3 -40   -1.21    3.06
  -5   5 -40    2.57    3.57
  -5   5 -40    5.20    4.43
   0  -5 -40    6.22    4.55
  -5   5 -40    4.28    3.00
   0  -5 -40    5.16    3.51
  -5   0  40    9.28    4.18
  -5   8 -40   -3.29    3.03
  -3  -5 -40   -0.70    4.21
  -3  -5 -40    2.39    2.80
  -5   8 -40   -5.66    4.11
  -8   3  40    1.78    3.52
  -6  -5 -40   -0.14    3.76
  -6  -5 -40    3.57    3.52
  -5  11 -40   -1.16    5.65
  -5  11 -40    2.31    3.78
 -11   6  40   -3.07    3.51
  -6  -2 -40    5.19    3.72
  -6  -2 -40   -1.79    3.56
  -2   8 -40   -1.99    3.62
  -8   6  40   -2.37    3.49
  -6   1 -40    1.11    3.71
  -6   1 -40    1.73    3.45
   1   5 -40    0.45    3.18
   1   5 -40    3.91    2.78
  -1  -5  40    0.02    3.36
  -6   4 -40   -0.29    2.03
   2  -6 -40   -1.46    3.77
  -6   4 -40    8.13    3.97
  -6   4 -40    5.24    4.12
  -4  -2  40    4.34    3.95
  -1  -6 -40    7.91    5.34
  -6   7 -40    3.51    4.39
  -1  -6 -40    0.54    2.48
  -6   7 -40   -1.17    3.21
  -7   1  40   -5.44    3.63
  -4  -6 -40    0.36    5.05
  -6  10 -40    4.66    5.17
  -6  10 -40    1.20    3.09
 -10   4  40   -0.10    3.06
  -3  10 -40   -9.36    3.77
  -3  10 -40   -7.10    6.01
  -7  -3 -40    4.07    3.87
  -3  10 -40    3.35    2.85
  -7  -3 -40   -2.86    3.62
 -10   7  40   -2.15    3.52
  -7   0 -40    7.21    4.70
  -7   0 -40    2.03    3.67
   0   7 -40   18.72    5.60
   0  -7  40    3.27    3.70
  -7   7  40    7.60    4.91
   3   4 -40    1.42    3.04
  -7   3 -40   -2.57    3.06
  -7   3 -40   -1.09    2.99
  -3  -4  40    1.45    3.36
  -7   6 -40   -2.87    2.50
   1  -7 -40    4.27    3.01
  -7   6 -40   -2.29    3.85
  -6  -1  40   -3.07    3.64
  -7   9 -40   -1.20    3.02
  -2  -7 -40    4.22    5.21
  -7   9 -40   -0.32    2.92
  -9   2  40   -0.88    3.57
  -7  12 -40   -1.41    3.61
  -7  12 -40  -11.02    3.59
  -5  -7 -40    3.99    4.90
 -12   5  40   -2.61    4.00
  -4  12 -40    0.44    7.37
  -8  -4 -40    4.99    5.11
  -8  -4 -40   11.02    4.83
  -4  12 -40    1.89    5.26
 -12   8  40    5.40    4.41
  -8  -1 -40   -0.18    4.03
  -1   9 -40   -2.05    4.30
  -8  -1 -40    0.90    3.56
  -1   9 -40    5.31    3.01
  -9   8  40   -8.27    3.24
   1  -9  40    5.25    3.18
   2   6 -40    1.01    3.67
  -8   2 -40    4.86    4.34
  -8   2 -40    7.08    4.37
  -2  -6  40    0.26    2.91
  -8   5 -40   -5.96    2.92
  -5  -3  40    2.01    3.63
  -8   8 -40    4.83    4.99
  -8   8 -40   17.19    4.48
   0  -8 -40   12.26    5.59
  -8   0  40   15.74    5.34
  -8  11 -40    5.81    4.75
  -8  11 -40    5.35    4.12
  -3  -8 -40    4.16    4.97
 -11   3  40   -0.89    3.28
  -9  -2 -40    2.41    4.53
  -9  -2 -40    1.41    3.73
  -2  11 -40    4.13    6.70
  -2  11 -40   -5.09    4.66
  -2  11 -40    3.13    3.30
 -11   9  40   -5.00    3.15
  -9   1 -40   -0.87    3.46
  -9   1 -40   -0.36    3.32
   1   8 -40    4.10    3.18
   1   8 -40    3.73    4.22
  -8   9  40    6.31    4.51
  -1  -8  40    0.32    2.79
  -9   4 -40    3.26    3.99
  -4  -5  40    2.78    3.40
  -9   7 -40    0.47    2.59
  -9   7 -40    2.89    3.78
  -7  -2  40   -2.29    3.01
  -9  10 -40    1.38    3.43
  -9  10 -40   -1.22    3.28
  -1  -9 -40   -0.82    6.40
 -10   1  40   -0.79    3.73
 -10   0 -40   -2.11    3.86
   0  10 -40   -0.52    2.92
   0  10 -40   -2.76    4.17
 -10  10  40   -1.05    3.54
 -10   3 -40   -3.42    3.34
   3   7 -40    9.69    4.78
  -3  -7  40    4.50    3.64
  -7  10  40    8.35    5.18
 -10   6 -40    0.97    4.03
  -6  -4  40    0.51    3.82
 -10   9 -40   -0.39    3.65
 -10   9 -40   -1.49    2.97
  -9  -1  40   -0.41    4.01
 -11   2 -40    5.16    4.69
   2   9 -40    3.16    4.17
   2   9 -40    2.03    3.38
  -2  -9  40    0.04    3.21
  -9  11  40    0.01    3.88
 -11   5 -40    1.75    4.86
   5   6 -40    2.26    4.20
  -5  -6  40    0.97    3.85
 -11   8 -40    3.95    4.18
  -8  -3  40    0.88    3.61
   4   8 -40    5.86    4.02
 -12   4 -40   -1.68    3.76
   4   8 -40   13.76    6.06
  -8  12  40    7.44    5.16
  -4  -8  40    9.88    4.40
 -12   7 -40    3.87    5.31
  -7  -5  40    2.87    4.04
  -1   1 -41   -2.15    3.15
  -1   1 -41   16.34    5.53
   0  -1 -41   -1.34    4.00
   1   0 -41   -4.87    3.33
  -1   1 -41    3.28    2.72
   0   2 -41   -2.24    3.32
  -2   0 -41    4.43    2.85
  -2   0 -41    2.05    5.53
   0   2 -41    4.62    3.05
  -2   0 -41   -1.94    3.57
  -2   3 -41   12.86    5.72
  -1  -2 -41   13.82    5.63
  -1  -2 -41   12.21    5.64
  -2   3 -41    6.06    3.74
  -2   3 -41    7.34    4.14
  -3  -1 -41    4.92    3.77
  -3  -1 -41   -2.58    2.80
  -1   4 -41    1.08    3.11
  -1   4 -41    1.87    3.29
   2   1 -41    8.44    4.83
  -3   2 -41   19.26    6.66
  -3   2 -41   11.66    3.48
  -3   2 -41    6.38    3.95
  -2  -3 -41    2.32    3.28
  -3   5 -41    4.06    3.32
  -3   5 -41   -0.94    2.85
  -2  -3 -41   -2.67    3.07
  -3   5 -41   -1.27    4.35
  -5   2  41    4.26    3.68
  -2   6 -41    7.22    3.66
  -4  -2 -41    3.91    4.07
  -2   6 -41   10.10    4.27
  -4  -2 -41    5.02    3.65
  -6   4  41    6.02    4.34
   1   3 -41    1.76    2.94
   1   3 -41    1.12    3.05
  -4   1 -41   -3.35    2.87
  -4   1 -41    0.53    3.23
   0  -4 -41   -0.99    3.97
  -4   4 -41   -0.88    4.31
  -4   4 -41   -0.96    3.19
  -4   4 -41   -1.98    2.34
   0  -4 -41   -4.94    3.15
  -4   0  41   -0.05    3.92
  -4   7 -41   -0.14    4.13
  -3  -4 -41    3.57    3.47
  -3  -4 -41   -3.49    4.52
  -4   7 -41    4.17    3.41
  -4   7 -41    7.34    7.26
  -7   3  41    0.37    4.34
  -5  -3 -41    5.37    4.74
  -3   8 -41    0.44    5.14
  -3   8 -41   -2.77    3.15
  -5  -3 -41   -4.54    2.44
  -8   5  41    6.13    4.15
  -5   0 -41   -1.85    3.20
  -5   0 -41   -2.60    2.87
   0   5 -41    0.44    3.18
   0   5 -41    0.47    2.72
  -5   3 -41   -0.47    3.33
  -5   3 -41    9.64    4.48
   3   2 -41   -5.14    3.38
  -5   3 -41    2.48    1.98
  -3  -2  41   -0.14    4.05
  -1  -5 -41    4.18    5.10
  -5   6 -41   -4.20    3.95
  -5   6 -41    5.70    4.19
  -1  -5 -41    5.80    3.45
  -5   6 -41   -0.60    2.86
  -6   1  41    1.60    3.93
  -4  -5 -41   -1.04    4.07
  -5   9 -41   -3.26    4.27
  -5   9 -41   -1.64    3.30
  -4  -5 -41   -0.28    2.86
  -9   4  41    0.85    3.76
  -4  10 -41    5.51    4.02
  -6  -4 -41    2.28    4.74
  -4  10 -41    6.53    6.73
  -6  -4 -41    0.02    3.33
 -10   6  41    2.20    3.68
  -6  -1 -41    0.52    3.37
  -1   7 -41    4.91    3.55
  -1   7 -41    4.80    4.55
  -6  -1 -41    2.48    3.85
   1  -7  41   -4.89    3.21
  -7   6  41    3.48    3.99
  -6   2 -41    8.31    4.84
   2   4 -41    9.48    3.99
  -6   2 -41   15.05    5.22
  -2  -4  41    5.65    4.27
  -6   5 -41    5.21    2.77
   1  -6 -41    7.89    3.79
  -6   5 -41    3.86    3.94
  -6   5 -41    2.69    3.86
  -5  -1  41    3.44    4.03
  -6   8 -41   -0.19    2.58
  -6   8 -41   -1.26    3.46
  -2  -6 -41    4.45    3.19
  -2  -6 -41    7.91    5.14
  -8   2  41    6.39    4.03
  -6  11 -41    4.20    4.83
  -6  11 -41   -0.80    3.43
  -5  -6 -41    3.66    4.84
 -11   5  41    2.36    4.18
  -5  12 -41   -0.08    5.44
  -5  12 -41   -3.63    3.66
  -7  -5 -41   -4.76    4.18
 -12   7  41   -2.24    3.74
  -7  -2 -41   -1.82    4.38
  -2   9 -41   13.23    6.43
  -7  -2 -41    4.98    4.25
  -2   9 -41    3.10    4.65
  -2   9 -41    2.84    2.85
  -9   7  41    5.30    4.39
   2  -9  41    2.28    3.73
  -7   1 -41    3.45    4.18
   1   6 -41    7.18    4.12
  -7   1 -41    7.91    4.65
  -1  -6  41    1.35    3.64
  -7   4 -41   -0.81    3.40
   3  -7 -41    3.53    4.56
  -7   4 -41   -0.45    3.58
   4   3 -41   -1.04    3.76
  -4  -3  41    1.37    4.21
  -7   7 -41   -4.67    2.54
  -7   7 -41   -1.92    3.35
   0  -7 -41    4.18    5.27
  -7   0  41    2.18    4.03
  -7  10 -41    7.74    5.36
  -3  -7 -41   -3.00    4.59
  -7  10 -41    7.04    4.16
 -10   3  41   -3.32    3.27
  -8  -3 -41   -0.35    4.29
  -3  11 -41   -2.08    6.11
  -3  11 -41   -1.90    2.78
  -8  -3 -41    1.54    3.61
  -3  11 -41   -7.04    3.81
 -11   8  41   -4.10    3.52
  -8   0 -41    4.09    3.79
  -8   0 -41    1.54    4.01
   0   8 -41   -7.21    3.48
   0  -8  41    1.26    3.03
  -8   8  41    2.20    4.04
  -8   3 -41   -4.54    2.99
  -8   3 -41   -3.27    3.32
   3   5 -41    5.33    3.63
  -3  -5  41    2.98    3.14
  -8   6 -41   -0.55    3.39
  -6  -2  41    1.02    3.48
  -1  -8 -41    7.26    7.51
  -8   9 -41   -3.78    3.79
  -8   9 -41    0.22    3.15
  -9   1  41   -0.99    3.45
  -1  10 -41   -5.14    3.90
  -9  -1 -41    7.39    4.36
  -9  -1 -41   -0.83    4.21
  -1  10 -41    4.14    3.34
 -10   9  41   -3.06    3.59
   2   7 -41    2.51    3.83
  -9   2 -41   10.11    4.52
  -9   2 -41    1.21    3.98
  -7   9  41    8.84    5.15
  -2  -7  41    0.98    3.20
  -9   5 -41    4.46    4.29
  -5  -4  41    3.96    3.54
  -9   8 -41    4.34    4.10
  -9   8 -41    0.63    3.03
  -8  -1  41    2.37    4.07
  -9  11 -41   -0.18    3.62
  -9  11 -41   -2.82    4.32
  -2  -9 -41   -3.70    5.73
 -11   2  41   -4.44    3.93
   1   9 -41   -3.07    2.70
 -10   1 -41    1.18    4.54
   1   9 -41   -0.27    4.17
  -9  10  41    3.96    4.29
  -1  -9  41    4.91    3.35
 -10   4 -41   -2.30    3.18
   4   6 -41   10.67    4.54
  -4  -6  41   -2.35    3.17
 -10   7 -41    3.56    4.89
  -7  -3  41    6.04    4.10
 -10  10 -41   -5.15    4.17
   0 -10 -41    5.76    7.02
 -10  10 -41    4.13    3.55
 -10   0  41    4.15    4.42
 -11   3 -41    8.96    5.67
   3   8 -41   -3.18    3.91
   3   8 -41    1.22    3.42
  -3  -8  41    1.17    3.43
  -8  11  41    3.00    4.97
 -11   6 -41   -0.94    3.94
  -6  -5  41    3.55    3.79
 -11   9 -41   -2.80    3.80
  -9  -2  41   -1.63    4.11
   5   7 -41    5.04    4.45
 -12   5 -41    3.66    5.50
   5   7 -41   -0.36    3.55
  -7  12  41   12.96    5.94
  -5  -7  41    0.87    3.66
   0   0 -42   61.09   11.07
  -1  -1 -42   -1.88    4.03
  -1  -1 -42    4.77    4.01
  -1   2 -42    0.43    3.37
  -1   2 -42   -0.88    2.53
  -1  -1 -42    1.35    2.24
  -2   1 -42    0.45    4.73
  -2   1 -42    1.56    2.43
   1   1 -42    7.16    4.28
  -2   1 -42   -2.41    3.10
  -2   4 -42   20.43    4.92
  -2   4 -42   11.80    5.48
  -2  -2 -42   17.83    5.76
  -2   4 -42   21.70    5.51
  -2  -2 -42   13.12    5.45
  -3   0 -42    3.05    3.99
   0   3 -42    8.31    4.15
   0   3 -42    5.20    3.38
  -3   0 -42    3.63    3.66
   0  -3 -42    6.49    4.94
  -3   3 -42   10.30    3.69
  -3   3 -42   22.47    6.40
   0  -3 -42    9.68    5.09
  -3   3 -42   10.12    4.69
  -3   6 -42   -0.92    3.58
  -3   6 -42    3.62    3.36
  -3  -3 -42    2.95    4.25
  -3   6 -42    2.68    4.86
  -3  -3 -42   -3.22    2.75
  -6   3  42   16.33    5.81
  -1   5 -42    1.55    2.99
  -4  -1 -42   -2.12    3.11
  -1   5 -42    3.58    3.60
  -4  -1 -42    1.03    3.41
  -4   2 -42   16.95    5.49
   2   2 -42   15.90    5.67
  -4   2 -42   14.68    6.05
  -4   5 -42    1.61    2.89
  -4   5 -42   -2.79    4.86
  -4   5 -42    3.77    3.59
  -1  -4 -42    3.25    3.57
  -1  -4 -42   -0.95    4.46
  -5   1  42    5.83    4.65
  -4  -4 -42    3.93    4.49
  -4  -4 -42    7.75    3.76
  -4   8 -42    0.42    3.26
  -4   8 -42    4.48    6.00
  -8   4  42   11.31    4.74
  -5  -2 -42    1.25    3.57
  -2   7 -42   11.28    6.07
  -2   7 -42   -2.28    3.90
  -2   7 -42    2.02    3.08
  -5  -2 -42   -0.95    3.43
  -7   5  42   -1.29    4.06
  -5   1 -42    5.92    4.23
  -5   1 -42   -0.86    3.17
   1   4 -42    1.47    3.09
   1   4 -42    4.05    3.10
  -5   4 -42    6.15    4.41
   1  -5 -42    3.97    4.17
  -5   4 -42   -5.11    3.51
  -5   4 -42    6.14    2.77
  -4  -1  42    2.61    4.14
  -2  -5 -42    0.16    2.89
  -2  -5 -42    2.44    4.65
  -5   7 -42    1.41    3.41
  -5   7 -42   -0.78    4.55
  -5   7 -42    3.03    3.11
  -7   2  42    2.81    3.92
  -5  10 -42   -2.93    3.42
  -5  -5 -42   -3.37    2.88
  -5  -5 -42   -5.86    3.12
  -5  10 -42   -8.73    4.76
 -10   5  42    1.43    3.64
  -3   9 -42    0.86    2.76
  -3   9 -42   10.80    6.78
  -3   9 -42   -6.59    3.70
  -6  -3 -42    1.37    3.75
  -6  -3 -42   -2.39    4.44
  -9   6  42    0.97    4.09
  -6   0 -42   16.86    6.31
  -6   0 -42    8.30    4.52
   0   6 -42   19.61    4.98
   0   6 -42   16.94    5.47
   0  -6  42   15.78    5.21
   3   3 -42   -0.93    3.60
  -6   3 -42    5.30    4.45
  -6   3 -42   -2.81    2.87
  -3  -3  42    5.01    4.43
   0  -6 -42    8.46    3.67
  -6   6 -42    0.97    3.97
   0  -6 -42   10.53    5.91
  -6   6 -42   12.71    3.80
  -6   6 -42    8.04    4.34
  -6   0  42   11.25    5.05
  -6   9 -42   -5.35    4.17
  -3  -6 -42   -3.15    4.67
  -6   9 -42   -4.03    2.94
  -9   3  42   -4.93    2.77
  -4  11 -42   -0.96    4.47
  -7  -4 -42    2.84    3.77
  -7  -4 -42    7.41    5.78
  -4  11 -42   -1.93    6.31
 -11   7  42    2.09    4.17
  -7  -1 -42    2.13    3.77
  -1   8 -42    1.85    3.85
  -7  -1 -42   -1.38    3.80
  -8   7  42   -3.08    3.42
   1  -8  42   -4.46    3.02
   2   5 -42    1.94    3.32
  -7   2 -42    4.64    4.40
  -7   2 -42    2.48    3.83
  -2  -5  42   -5.26    2.92
   2  -7 -42   -2.07    3.14
  -7   5 -42   -1.87    3.49
  -7   5 -42   -1.93    3.27
  -5  -2  42    3.25    3.95
  -7   8 -42    5.44    4.68
  -7   8 -42    3.71    3.14
  -1  -7 -42    1.72    5.51
  -8   1  42    4.24    4.17
  -7  11 -42   -1.86    3.61
  -7  11 -42   -3.03    4.21
  -4  -7 -42   -3.51    4.36
 -11   4  42   -1.43    4.22
  -2  10 -42   -4.50    3.62
  -8  -2 -42   -0.21    4.23
  -2  10 -42    0.24    2.92
  -2  10 -42    5.11    6.40
  -8  -2 -42   -0.01    3.73
 -10   8  42    5.43    4.34
  -8   1 -42   -5.64    3.04
   1   7 -42   -0.09    3.86
  -8   1 -42   -2.23    3.62
  -7   8  42    3.27    4.64
  -1  -7  42    6.11    3.67
  -8   4 -42    8.58    5.04
  -8   4 -42    6.71    4.57
  -4  -4  42    7.15    4.29
  -8   7 -42    7.74    3.64
  -8   7 -42   10.66    4.86
  -7  -1  42    1.30    3.93
  -8  10 -42   -1.12    4.25
  -8  10 -42   -0.31    3.30
  -2  -8 -42    1.51    5.16
 -10   2  42   -4.03    3.64
  -9   0 -42    8.67    4.89
  -9   0 -42    7.46    5.40
   0   9 -42    4.89    3.45
   0   9 -42   10.60    5.71
   0  -9  42    4.83    3.33
  -9   9  42    0.91    4.13
  -9   3 -42    2.61    4.46
  -9   3 -42    9.79    5.29
   3   6 -42   13.42    5.13
  -3  -6  42    3.85    3.76
  -9   6 -42   -3.28    2.83
  -6  -3  42   -0.64    3.44
   0  -9 -42   11.92    6.47
  -9   9 -42    3.93    3.38
  -9   9 -42    0.08    4.33
  -9   0  42    1.46    3.67
   2   8 -42   -3.40    4.08
 -10   2 -42   -1.68    3.70
   2   8 -42    0.67    3.25
  -2  -8  42   -5.37    2.42
  -8  10  42    0.68    4.44
 -10   5 -42    0.30    3.63
  -5  -5  42    1.46    3.84
 -10   8 -42    4.96    4.00
  -8  -2  42    0.43    3.90
 -11   4 -42    0.16    5.02
   4   7 -42   -4.51    4.08
  -4  -7  42   -2.04    3.30
  -7  11  42   18.72    6.51
 -11   7 -42    4.86    4.91
  -7  -4  42   -4.65    3.34
   0   1 -43   -1.01    2.20
  -1   0 -43   -1.57    3.71
  -1   0 -43    1.29    2.39
   0   1 -43    3.27    3.99
  -1   0 -43    0.51    3.61
   1  -1 -43   -1.00    3.61
  -1   3 -43    5.23    3.71
  -2  -1 -43   -2.17    2.90
  -1   3 -43   -3.16    2.66
  -2  -1 -43    1.46    3.84
  -2   2 -43    0.35    3.31
  -2   2 -43    0.49    2.77
  -2   2 -43    0.84    4.72
   0  -2 -43   -3.42    3.94
   0  -2 -43   -0.46    4.15
  -2   5 -43   13.28    4.80
  -3  -2 -43   13.70    5.02
  -2   5 -43   14.89    4.69
  -2   5 -43   18.10    6.38
  -3  -2 -43   10.58    5.53
   1   2 -43    3.20    3.79
  -3   1 -43   -1.06    2.99
  -3   1 -43    1.55    4.44
  -1  -3 -43    0.29    3.68
  -3   4 -43    5.55    3.83
  -3   4 -43    0.36    2.90
  -3   4 -43   -2.01    4.31
  -1  -3 -43   -2.02    3.85
  -3   7 -43    8.95    4.10
  -3   7 -43    4.91    5.70
  -4  -3 -43    3.36    4.19
  -4  -3 -43    5.01    3.69
  -3   7 -43    5.86    3.89
  -7   4  43    1.42    4.08
  -4   0 -43   -5.12    3.06
   0   4 -43    1.37    3.32
   0   4 -43   -1.61    2.65
  -4   0 -43    0.51    3.70
  -4   3 -43   -1.63    3.89
   1  -4 -43    3.77    4.54
  -4   3 -43   -2.75    2.07
  -4   3 -43   -4.78    2.87
  -4   6 -43    9.28    4.53
  -4   6 -43    3.37    6.62
  -2  -4 -43    4.73    3.94
  -2  -4 -43   12.20    5.70
  -4   6 -43   10.74    4.67
  -6   2  43    1.24    3.92
  -5  -4 -43   -2.29    4.27
  -4   9 -43   -5.87    6.58
  -5  -4 -43    6.29    4.36
  -4   9 -43   -8.13    3.49
  -9   5  43    3.01    4.11
  -1   6 -43   10.18    4.37
  -1   6 -43   13.05    4.98
  -5  -1 -43   10.96    4.83
  -5  -1 -43   18.32    5.81
  -6   5  43   20.41    5.88
  -5   2 -43    8.70    4.54
   2   3 -43   13.30    4.93
  -5   2 -43   10.01    5.10
   0  -5 -43    8.73    5.62
  -5   5 -43   -6.38    4.09
  -5   5 -43    0.48    3.34
   0  -5 -43    1.31    4.09
  -5   5 -43   -1.45    3.20
  -5   0  43    2.71    4.86
  -5   8 -43    9.50    5.66
  -5   8 -43   -0.58    3.61
  -3  -5 -43    4.32    4.65
  -3  -5 -43    7.39    3.82
  -8   3  43   -1.82    3.57
  -5  11 -43   -7.42    3.92
  -6  -5 -43   -2.12    4.72
  -5  11 -43   -4.24    6.32
 -11   6  43    5.03    4.67
  -2   8 -43    3.16    5.99
  -6  -2 -43   -2.17    3.28
  -2   8 -43   -1.01    4.04
  -6  -2 -43   -8.61    2.56
  -8   6  43   -8.71    3.10
   1   5 -43   19.92    4.81
   1   5 -43   12.36    5.01
  -6   1 -43    9.75    5.10
  -6   1 -43   12.28    4.83
  -1  -5  43    3.71    4.44
  -6   4 -43    5.89    4.80
   2  -6 -43    1.77    4.82
  -6   4 -43    6.15    4.23
  -4  -2  43    2.92    4.21
  -6   7 -43    2.76    4.41
  -6   7 -43   11.74    3.62
  -1  -6 -43    7.13    3.37
  -1  -6 -43   -1.89    4.68
  -7   1  43    6.13    4.14
  -6  10 -43    9.15    5.64
  -4  -6 -43    6.65    5.27
  -6  10 -43    8.10    4.49
 -10   4  43   11.19    5.46
  -3  10 -43    2.67    4.11
  -7  -3 -43    1.85    4.52
  -3  10 -43   -2.90    5.98
  -7  -3 -43    0.89    3.73
  -3  10 -43    7.23    3.53
 -10   7  43    0.52    3.55
  -7   0 -43    3.07    3.99
  -7   0 -43    2.24    4.42
   0   7 -43   -1.07    3.22
  -7   7  43    3.34    4.39
   0  -7  43   -2.17    3.31
   3   4 -43    3.30    3.11
  -7   3 -43    9.02    4.85
  -7   3 -43    3.37    4.42
  -3  -4  43    6.84    4.25
  -7   6 -43    5.23    3.24
  -7   6 -43    1.42    4.01
  -6  -1  43    7.40    4.20
  -7   9 -43   -1.39    2.97
  -2  -7 -43   -2.69    5.22
  -7   9 -43   -4.86    3.68
  -9   2  43   -3.47    3.79
  -1   9 -43    3.44    3.31
  -8  -1 -43   -3.11    3.96
  -1   9 -43   -5.01    4.50
  -8  -1 -43    1.22    4.24
  -9   8  43    4.90    4.68
   1  -9  43    3.54    3.37
  -8   2 -43    1.88    4.53
   2   6 -43   -0.15    3.50
  -8   2 -43    4.29    4.20
  -2  -6  43   -0.59    3.06
  -8   5 -43    0.10    3.52
  -5  -3  43   -1.09    3.29
  -8   8 -43    3.02    3.49
   0  -8 -43    8.29    6.34
  -8   8 -43    1.42    4.37
  -8   0  43    2.22    3.83
  -8  11 -43    7.15    4.59
  -3  -8 -43   -0.28    5.05
  -8  11 -43    1.75    4.85
 -11   3  43    5.28    4.87
   1   8 -43    3.23    3.35
  -9   1 -43   -2.13    3.88
   1   8 -43   -0.53    3.89
  -9   1 -43    6.22    4.83
  -1  -8  43    0.90    3.25
  -8   9  43   -6.76    3.90
   4   5 -43    8.82    4.24
  -9   4 -43    5.05    4.71
  -4  -5  43    1.77    3.60
  -9   7 -43    0.76    4.25
  -7  -2  43   -1.13    3.72
  -9  10 -43   -4.13    4.45
  -9  10 -43   -2.36    3.52
  -1  -9 -43   -1.02    6.19
 -10   1  43   -2.11    4.51
 -10   3 -43    7.20    5.20
   3   7 -43    5.47    4.36
  -3  -7  43    9.72    4.53
  -7  10  43    4.40    5.53
 -10   6 -43    8.17    5.23
  -6  -4  43    8.31    4.55
 -10   9 -43   -3.56    4.18
   1 -10 -43   26.80    8.36
  -9  -1  43   -1.30    4.23
 -11   5 -43   -4.60    4.22
   5   6 -43   -0.41    4.57
  -5  -6  43    5.14    4.21
 -11   8 -43    3.44    4.64
  -8  -3  43    4.62    4.75
   1   0 -44   22.46    6.67
   0  -1 -44   19.80    6.22
   0  -1 -44   17.34    6.10
  -1   1 -44   38.41    7.66
  -1   1 -44   23.65    4.89
  -1   1 -44   20.99    6.39
  -2   0 -44    1.28    4.89
   0   2 -44    0.36    2.88
   0   2 -44    7.56    4.26
  -2   0 -44    0.97    4.00
  -2   3 -44    7.71    3.62
  -1  -2 -44    6.11    5.28
  -1  -2 -44    6.96    4.86
  -2   3 -44    7.29    5.73
  -2   3 -44   14.75    4.97
  -1   4 -44    8.33    4.30
  -3  -1 -44    2.20    4.26
  -3  -1 -44   11.01    4.83
  -1   4 -44    4.81    3.86
  -3   2 -44   10.88    5.88
   2   1 -44    6.69    4.68
  -3   2 -44   13.10    5.06
  -3   2 -44    6.18    3.11
   1  -3 -44   -0.32    4.67
  -3   5 -44    2.59    6.22
  -3   5 -44   -3.02    4.17
  -3   5 -44   -1.41    3.25
  -2  -3 -44    2.70    5.22
  -2  -3 -44    1.02    4.06
  -5   2  44   13.83    5.84
  -4  -2 -44   -1.17    3.39
  -2   6 -44    1.13    3.19
  -2   6 -44    2.30    5.32
  -4  -2 -44   -2.26    3.65
  -2   6 -44   -3.02    3.37
  -6   4  44    3.71    4.79
  -4   1 -44    5.93    4.46
  -4   1 -44   10.02    4.96
   1   3 -44   10.54    4.09
   1   3 -44    5.93    3.77
   0  -4 -44    6.13    5.02
  -4   4 -44    5.38    4.20
  -4   4 -44    2.25    6.13
   0  -4 -44    4.86    4.70
  -4   4 -44    3.39    3.77
  -4   0  44   16.35    5.67
  -3  -4 -44    3.50    3.59
  -4   7 -44    4.33    3.85
  -3  -4 -44    6.95    4.98
  -4   7 -44    5.83    3.81
  -4   7 -44    9.94    5.75
  -7   3  44   -0.91    3.80
  -5  -3 -44   -1.40    4.21
  -3   8 -44   -1.27    3.93
  -3   8 -44    1.39    6.49
  -5  -3 -44    1.98    3.68
  -8   5  44   -2.80    4.21
   0   5 -44   43.36    7.50
  -5   0 -44   39.08    8.70
   0   5 -44   21.37    6.49
  -5   0 -44   28.82    7.49
   3   2 -44    3.42    4.57
  -5   3 -44    1.24    3.69
   2  -5 -44    2.14    5.07
  -5   3 -44   -6.99    3.81
  -3  -2  44    4.20    5.00
  -5   6 -44   12.97    5.93
  -5   6 -44   11.88    4.24
  -1  -5 -44   12.51    4.71
  -5   6 -44   13.84    5.41
  -1  -5 -44   16.11    6.66
  -6   1  44    8.69    5.16
  -4  -5 -44   -3.92    4.62
  -5   9 -44    0.17    3.69
  -5   9 -44   -6.96    5.48
  -4  -5 -44    8.55    4.03
  -9   4  44    2.50    4.01
  -6  -4 -44    1.35    4.60
  -4  10 -44    1.20    6.45
  -4  10 -44    8.97    5.09
  -6  -4 -44    3.49    3.89
 -10   6  44    8.98    5.23
  -6  -1 -44    1.02    4.18
  -6  -1 -44   -0.44    3.64
  -1   7 -44   -0.80    3.78
   1  -7  44   -8.32    3.19
  -7   6  44    1.97    4.25
  -6   2 -44   -1.70    3.23
  -6   2 -44    1.47    3.90
   2   4 -44    9.27    3.95
   2   4 -44    1.97    3.55
  -2  -4  44   -4.10    3.70
  -6   5 -44   11.75    5.04
  -6   5 -44    9.16    5.32
   1  -6 -44   20.51    5.46
  -6   5 -44   14.10    3.95
  -5  -1  44   15.87    5.63
  -2  -6 -44   -4.02    5.49
  -6   8 -44   -6.86    4.32
  -6   8 -44    2.44    3.71
  -8   2  44    5.43    4.27
  -6  11 -44    6.90    4.38
  -6  11 -44   -6.18    4.63
  -7  -2 -44    7.76    5.50
  -2   9 -44   20.48    8.15
  -2   9 -44    4.12    3.19
  -2   9 -44   -3.59    4.33
  -7  -2 -44   -4.09    3.62
  -9   7  44   -0.63    3.76
   2  -9  44   -4.37    3.17
   1   6 -44    9.48    4.66
  -7   1 -44   -0.87    3.54
  -7   1 -44    2.46    3.92
  -1  -6  44   -0.04    3.62
   3  -7 -44   -6.30    3.88
  -7   4 -44   -3.30    3.62
   4   3 -44    7.36    4.40
  -7   4 -44    4.28    3.91
  -4  -3  44    5.29    3.98
   0  -7 -44    9.93    6.49
  -7   7 -44    1.30    3.07
  -7   7 -44   -1.77    4.13
  -7   0  44   -6.36    3.52
  -7  10 -44    3.45    4.54
  -3  -7 -44   -0.20    5.07
  -7  10 -44   -0.39    3.36
 -10   3  44    0.81    3.90
  -8   0 -44   11.64    5.74
   0   8 -44    6.44    5.00
  -8   0 -44    5.03    5.03
  -8   8  44    0.86    4.69
   0  -8  44    1.06    3.32
  -8   3 -44    4.15    4.57
   3   5 -44   -4.79    3.13
  -8   3 -44   -4.62    2.82
  -3  -5  44   -3.62    3.43
  -8   6 -44   -0.43    3.55
  -6  -2  44   -0.83    4.12
  -8   9 -44    1.46    4.33
  -1  -8 -44    3.20    5.27
  -8   9 -44   -0.62    2.94
  -9   1  44    3.28    4.63
  -9  -1 -44    3.11    5.22
  -1  10 -44    2.74    4.94
  -9  -1 -44   -2.72    3.78
  -1  10 -44   -2.28    3.07
   2   7 -44    0.96    4.74
  -9   2 -44    1.02    3.89
  -9   2 -44    4.73    4.52
  -7   9  44    9.25    5.55
  -2  -7  44    6.68    3.88
  -9   5 -44    6.87    4.94
  -5  -4  44    5.93    4.22
  -9   8 -44    0.43    4.66
   1  -9 -44    3.41    5.98
  -8  -1  44    7.58    4.71
   1   9 -44    6.94    5.84
 -10   1 -44   -3.36    4.04
   1   9 -44    1.81    3.54
 -10   4 -44   -0.74    3.76
   4   6 -44    2.28    4.60
  -4  -6  44    6.51    4.21
 -10   7 -44    2.01    4.44
  -7  -3  44   -6.15    3.80
 -11   6 -44   -5.36    4.05
   0   0 -45    1.58    4.26
   0   0 -45    1.57    2.40
  -1   2 -45   -1.56    4.28
  -1   2 -45    4.16    3.29
  -1  -1 -45    1.77    4.88
  -1   2 -45   -1.03    3.09
  -1  -1 -45    4.22    4.26
  -2   1 -45    6.70    3.15
  -2   1 -45    1.99    3.98
   1  -2 -45   -0.82    4.03
  -2   1 -45    2.39    5.37
   1   1 -45   -1.67    3.82
  -2  -2 -45   -2.09    4.68
  -2  -2 -45   20.32    6.91
  -2   4 -45   13.54    5.22
  -2   4 -45   34.03    8.01
  -2   4 -45   18.28    5.67
  -3   0 -45   -4.61    4.24
   0   3 -45    6.57    4.20
  -3   0 -45   -4.06    3.18
   0   3 -45    5.35    3.76
   0  -3 -45    0.33    4.90
  -3   3 -45    0.28    3.31
  -3   3 -45   -1.09    3.85
  -3   3 -45    2.81    6.34
   0  -3 -45    0.73    4.95
  -3   6 -45   -5.53    4.71
  -3  -3 -45   -0.84    3.81
  -3   6 -45   -0.33    3.38
  -3   6 -45   -0.89    3.17
  -3  -3 -45   -0.49    3.25
  -6   3  45   10.14    4.85
  -1   5 -45   13.69    5.01
  -4  -1 -45    6.25    4.23
  -1   5 -45    5.89    4.08
  -4  -1 -45    7.34    5.17
   2   2 -45   16.70    5.97
  -4   2 -45   11.65    6.36
  -4   2 -45   15.91    6.00
  -1  -4 -45    9.71    4.10
  -4   5 -45    4.65    3.32
  -1  -4 -45    4.30    5.03
  -4   5 -45    2.57    4.74
  -4   5 -45   -0.56    3.23
  -5   1  45   -1.60    3.99
  -4  -4 -45    3.30    3.80
  -4   8 -45  -12.17    5.96
  -4  -4 -45    3.61    4.58
  -4   8 -45   -2.04    3.94
  -8   4  45    0.05    4.18
  -2   7 -45    8.19    5.77
  -2   7 -45    1.06    4.01
  -2   7 -45   -0.03    3.21
  -5  -2 -45   -3.19    3.82
  -5  -2 -45    0.99    3.48
  -7   5  45   -1.32    4.45
   1   4 -45    8.19    4.06
  -5   1 -45   12.50    4.99
  -5   1 -45    8.00    4.69
   1   4 -45    8.56    4.06
  -5   4 -45    7.75    4.51
   1  -5 -45    1.88    4.37
  -5   4 -45   -1.86    4.04
  -4  -1  45    3.01    4.46
  -2  -5 -45   19.53    4.87
  -5   7 -45    9.23    4.39
  -5   7 -45   10.48    4.96
  -2  -5 -45   17.15    6.69
  -5   7 -45   13.14    6.61
  -7   2  45    9.92    5.10
  -5  10 -45   -6.99    5.49
  -5  -5 -45   -7.20    3.73
  -5  10 -45   -6.85    3.33
 -10   5  45   -3.55    3.72
  -3   9 -45    0.35    6.09
  -6  -3 -45   -0.20    4.40
  -3   9 -45   -1.07    3.91
  -6  -3 -45    7.91    4.63
  -3   9 -45   -1.49    2.86
  -9   6  45    0.52    4.01
   3  -9  45  -10.88    3.25
   0   6 -45   -0.45    3.91
  -6   0 -45    0.91    3.91
  -6   0 -45    2.88    4.11
   0  -6  45   -1.95    4.08
  -6   3 -45   -2.49    3.36
   3   3 -45    0.06    3.67
  -6   3 -45    1.05    3.41
   3  -6 -45   -6.64    4.54
  -3  -3  45    3.67    4.20
  -6   6 -45   -1.00    2.51
   0  -6 -45    2.55    4.92
  -6   6 -45   -1.54    3.33
  -6   6 -45    1.11    4.22
   0  -6 -45    3.60    3.29
  -6   0  45   -1.83    3.86
  -6   9 -45    9.55    4.24
  -6   9 -45    4.19    5.34
  -3  -6 -45    5.88    5.32
  -9   3  45    2.86    4.01
  -1   8 -45    6.58    5.67
  -7  -1 -45    1.49    4.00
  -7  -1 -45   -2.32    4.08
   1  -8  45   -3.53    3.36
  -8   7  45   -1.61    4.13
   2   5 -45    1.55    3.79
  -7   2 -45   -1.27    3.47
  -7   2 -45    0.32    4.26
  -2  -5  45   -1.70    3.67
  -7   5 -45   18.51    5.99
  -7   5 -45   20.22    6.28
  -5  -2  45   19.35    5.84
  -1  -7 -45   -2.80    6.16
  -7   8 -45   -7.96    3.43
  -7   8 -45   -3.01    2.63
  -8   1  45    2.09    4.17
  -8  -2 -45    3.11    5.51
  -8  -2 -45    2.59    4.70
  -2  10 -45   -8.32    4.10
  -2  10 -45    7.99    3.68
  -2  10 -45   11.36    7.94
  -8   1 -45    4.91    5.29
  -8   1 -45    6.05    5.55
   1   7 -45    8.69    5.63
  -1  -7  45   -0.57    3.63
  -7   8  45   11.17    5.66
  -8   4 -45    3.70    4.03
  -8   4 -45    8.46    5.04
  -4  -4  45    5.79    4.63
   1  -8 -45   38.51    8.82
  -8   7 -45   -2.19    3.52
  -7  -1  45    2.94    4.13
  -8  10 -45   -4.18    2.83
  -8  10 -45    0.68    4.89
  -9   0 -45   -1.87    4.33
  -9   0 -45   -1.35    4.87
   0   9 -45   -0.55    3.04
   0   9 -45    1.70    5.71
  -9   9  45   -4.14    4.33
   3   6 -45    2.00    4.45
  -9   3 -45    9.61    5.53
  -9   3 -45    2.99    4.49
  -3  -6  45    5.93    3.73
  -9   6 -45    4.55    4.74
  -6  -3  45    7.49    4.58
  -9   9 -45   -2.72    3.26
   0  -9 -45    6.56    6.43
  -9   9 -45    1.68    4.96
  -9   0  45   -3.78    4.17
 -10   2 -45    5.34    5.33
   2   8 -45    0.50    5.09
   2   8 -45    8.10    4.43
 -10   5 -45   -1.50    4.53
  -5  -5  45    0.12    3.98
 -10   8 -45   -2.49    4.26
   1  -1 -46   18.38    6.62
  -1   0 -46   15.84    6.55
   0   1 -46   22.61    7.06
   0   1 -46   29.24    5.50
  -1   0 -46   27.94    7.90
  -1   0 -46   24.60    5.04
  -2  -1 -46    8.46    5.77
  -1   3 -46   17.69    5.06
  -1   3 -46    8.62    4.95
  -2  -1 -46    7.11    5.73
  -2   2 -46   10.83    5.82
   2   0 -46   -3.44    4.42
   0  -2 -46    0.23    4.61
   0  -2 -46   10.19    5.84
  -2   2 -46    0.50    3.82
  -2   2 -46   -0.80    3.97
  -3  -2 -46   -0.23    3.91
  -2   5 -46    2.81    3.67
  -2   5 -46    5.44    5.66
  -3  -2 -46    7.27    4.40
  -2   5 -46   -2.04    3.55
   1   2 -46   14.79    5.70
   1   2 -46   20.67    4.99
  -3   1 -46    8.71    5.73
  -3   1 -46   22.62    7.23
  -1  -3 -46    0.23    4.08
  -3   4 -46    5.59    3.81
  -3   4 -46   -1.51    3.10
  -1  -3 -46   -2.52    4.02
  -3   4 -46   -2.60    4.66
  -4  -3 -46   -4.50    3.41
  -3   7 -46   -0.43    6.67
  -3   7 -46   -0.43    3.38
  -4  -3 -46   -4.23    3.10
  -3   7 -46   -1.13    4.33
  -7   4  46   -1.33    4.49
   0   4 -46   -1.79    3.29
  -4   0 -46    2.63    4.19
   0   4 -46    9.96    4.32
  -4   0 -46    0.80    4.38
   3   1 -46   -3.12    4.27
  -4   3 -46    6.73    5.38
  -4   3 -46    6.45    4.60
   1  -4 -46   -5.23    4.22
   1  -4 -46    6.34    5.47
  -4   6 -46   -3.82    3.09
  -2  -4 -46    2.35    3.54
  -2  -4 -46    1.65    4.78
  -4   6 -46    1.29    3.25
  -4   6 -46    3.97    5.38
  -6   2  46   -0.70    4.21
  -4   9 -46   -1.94    5.58
  -4   9 -46   -3.85    3.27
  -5  -4 -46    3.15    4.71
  -5  -4 -46    4.24    3.65
  -9   5  46   -3.91    3.57
  -5  -1 -46   20.18    6.39
  -1   6 -46   18.17    5.74
  -1   6 -46   14.96    5.31
  -5  -1 -46   18.42    6.00
  -6   5  46   16.51    5.89
   2   3 -46    1.83    3.37
  -5   2 -46    4.34    4.33
   2   3 -46    2.82    3.72
  -5   2 -46    1.29    4.02
  -2  -3  46   -6.74    3.80
   0  -5 -46   28.42    8.03
  -5   5 -46   23.70    7.51
  -5   5 -46   36.46    6.21
  -5   5 -46   25.07    7.31
   0  -5 -46   31.09    7.16
  -5   0  46   25.83    7.01
  -3  -5 -46   11.38    4.56
  -5   8 -46   11.38    4.86
  -3  -5 -46    2.24    5.24
  -5   8 -46    1.59    6.17
  -8   3  46   11.20    5.54
  -6  -2 -46    2.65    4.17
  -6  -2 -46   -4.97    2.96
  -2   8 -46   -1.63    4.46
  -2   8 -46   15.41    7.80
  -8   6  46    3.04    4.59
   2  -8  46  -11.46    3.43
  -6   1 -46   12.93    5.89
   1   5 -46   30.37    6.70
  -6   1 -46   30.36    7.98
   1   5 -46   29.16    6.37
  -1  -5  46   21.48    6.53
   4   2 -46   -5.58    3.85
  -6   4 -46   -0.63    3.71
  -6   4 -46    1.16    3.58
   2  -6 -46    3.13    4.71
  -4  -2  46   -3.00    3.79
  -1  -6 -46    3.07    6.23
  -6   7 -46    0.73    2.90
  -6   7 -46   -3.31    4.58
  -7   1  46    4.64    4.47
  -6  10 -46    2.42    4.82
  -4  -6 -46   -0.01    5.23
  -6  10 -46   -3.40    3.25
 -10   4  46   -4.24    3.39
  -7   0 -46   -3.30    4.22
  -7   0 -46    1.50    4.34
   0   7 -46    2.57    4.71
  -7   7  46    0.54    5.36
   0  -7  46    1.27    4.21
   3   4 -46    4.27    4.07
  -7   3 -46   -3.30    3.81
  -7   3 -46   -1.93    4.04
  -3  -4  46   -3.58    3.76
   1  -7 -46   42.86    8.72
  -7   6 -46   -5.30    3.64
  -6  -1  46    5.05    4.29
  -7   9 -46   -4.90    4.57
  -7   9 -46    7.98    4.23
  -2  -7 -46    0.87    5.69
  -9   2  46   -3.30    4.43
  -1   9 -46    9.87    4.36
  -8  -1 -46   12.91    6.27
  -1   9 -46    7.30    5.57
  -8  -1 -46    6.78    5.62
  -9   8  46    5.94    5.04
  -8   2 -46   -1.97    4.31
  -8   2 -46    1.75    4.36
   2   6 -46    8.10    5.41
  -2  -6  46    0.68    3.79
  -8   5 -46    7.15    5.42
  -8   5 -46    9.33    5.32
  -5  -3  46    4.66    4.43
  -8   8 -46    4.40    5.33
  -8   8 -46    5.42    3.73
   0  -8 -46    3.75    6.25
  -8   0  46    0.38    4.30
   1   8 -46    7.71    6.15
  -9   1 -46    5.06    4.83
  -9   1 -46   11.23    6.14
  -8   9  46    6.87    5.62
  -1  -8  46    9.66    4.42
  -9   4 -46   -5.16    3.21
   4   5 -46    8.58    5.14
  -4  -5  46   -0.33    3.00
  -9   7 -46    1.85    4.88
  -7  -2  46    2.64    4.54
 -10   6 -46   -3.08    3.69
  -6  -4  46   -0.92    3.76
   0  -1 -47   10.14    5.87
   1   0 -47   -2.24    4.83
  -1   1 -47    9.66    5.74
   0  -1 -47    0.83    5.28
  -1   1 -47    0.71    3.64
  -1   1 -47   -2.67    3.94
  -2   0 -47    1.18    5.37
   0   2 -47    3.70    3.92
  -2   0 -47    5.26    4.37
   0   2 -47    4.84    3.90
  -2   3 -47   30.39    7.04
  -2   3 -47   17.73    6.87
  -1  -2 -47    9.79    6.01
  -2   3 -47   13.01    4.68
  -1  -2 -47   27.61    7.27
  -3  -1 -47    7.31    4.72
  -1   4 -47   13.83    4.73
  -3  -1 -47    2.30    4.07
  -1   4 -47   11.18    4.84
   1  -3 -47   14.08    5.98
  -3   2 -47   13.43    6.48
   2   1 -47   16.83    6.10
   1  -3 -47   17.65    6.74
  -3   2 -47   26.40    6.99
  -3   5 -47    3.97    3.92
  -2  -3 -47    5.59    4.97
  -3   5 -47    0.87    5.11
  -3   5 -47    3.59    3.84
  -2  -3 -47    6.76    4.08
  -5   2  47    4.35    5.15
  -4  -2 -47    2.97    3.88
  -4  -2 -47   10.91    5.73
  -2   6 -47   -0.81    4.03
  -2   6 -47    9.22    4.62
  -2   6 -47    6.64    5.90
  -6   4  47    9.94    5.65
   1   3 -47   22.67    5.95
   1   3 -47   23.20    5.70
  -4   1 -47   13.22    5.71
  -4   1 -47   22.08    7.10
  -4   4 -47   -3.29    2.52
   0  -4 -47   -3.55    3.89
  -4   4 -47    1.36    3.88
   0  -4 -47    1.59    5.20
  -4   4 -47   -3.13    4.56
  -4   0  47   -0.27    4.20
  -4   7 -47   14.07    8.05
  -3  -4 -47   16.54    6.68
  -4   7 -47    9.93    4.98
  -3  -4 -47   12.83    5.01
  -4   7 -47   23.85    6.30
  -7   3  47   17.92    6.27
  -5  -3 -47   -5.91    3.91
  -5  -3 -47    4.93    4.30
  -3   8 -47    2.24    4.65
  -3   8 -47   10.29    7.05
  -8   5  47    2.15    4.76
  -5   0 -47   -3.65    3.61
   0   5 -47   -0.11    2.98
   0   5 -47   -1.71    3.79
  -5   0 -47    0.22    3.86
   2  -5 -47   -2.95    4.49
  -5   3 -47    0.78    3.90
   3   2 -47   -4.75    3.99
  -5   3 -47    4.20    4.53
  -3  -2  47    1.99    4.61
  -1  -5 -47    6.07    4.39
  -5   6 -47    4.02    4.42
  -5   6 -47   -1.13    3.17
  -1  -5 -47    6.17    6.77
  -5   6 -47   -1.13    4.66
  -6   1  47    6.56    5.41
  -5   9 -47   -2.98    6.21
  -5   9 -47   -6.21    3.65
  -4  -5 -47   -3.61    4.88
  -9   4  47   -2.17    5.21
  -6  -1 -47   -0.51    3.57
  -6  -1 -47    0.95    4.35
  -1   7 -47   -5.81    4.79
  -7   6  47    8.91    5.51
   1  -7  47   -6.06    3.60
   2   4 -47    8.55    4.15
  -6   2 -47    0.71    4.30
  -6   2 -47    1.51    4.33
   2   4 -47    2.37    4.03
  -2  -4  47    7.92    5.33
  -6   5 -47    5.36    4.57
  -6   5 -47   -7.64    3.83
   1  -6 -47    1.24    4.46
   1  -6 -47   36.64    8.23
  -5  -1  47    5.62    5.01
  -2  -6 -47   -6.32    3.46
  -6   8 -47   -0.75    2.99
  -6   8 -47    2.13    5.04
  -8   2  47    0.38    4.01
  -7  -2 -47    1.21    4.34
  -2   9 -47    9.04    3.66
  -2   9 -47   15.02    8.49
  -2   9 -47    5.15    5.68
  -7  -2 -47   -0.98    4.64
  -9   7  47    1.13    4.80
   1   6 -47   11.15    5.53
  -7   1 -47   -3.48    4.36
  -7   1 -47   -0.66    4.01
  -1  -6  47   -1.77    3.69
  -7   4 -47   14.77    6.51
  -7   4 -47   22.69    7.08
  -4  -3  47   12.29    5.37
  -7   7 -47   -3.06    3.14
   0  -7 -47    2.30    5.60
  -7   0  47   -0.21    4.17
   0   8 -47   -1.30    5.38
  -8   0 -47    0.54    4.54
  -8   0 -47    2.50    5.12
  -8   8  47   -7.46    4.23
   0  -8  47   -2.10    3.58
   3   5 -47    7.48    4.85
  -8   3 -47    7.56    4.82
  -8   3 -47    7.55    5.26
  -3  -5  47    1.89    3.94
  -8   6 -47    0.67    4.22
  -6  -2  47   -0.80    3.72
  -9   2 -47    9.12    5.78
  -9   2 -47   -0.60    4.31
   2   7 -47    9.52    5.89
  -2  -7  47    1.17    3.90
  -7   9  47   19.11    7.01
  -9   5 -47   -1.83    4.58
  -5  -4  47    2.93    4.56
   0   0 -48   16.19    5.92
   0   0 -48    9.30    6.42
   0   0 -48   13.01    4.15
  -1  -1 -48   -4.97    4.17
   2  -1 -48   -3.73    4.19
  -1   2 -48    0.49    4.62
  -1   2 -48    1.73    3.38
  -1  -1 -48    3.09    4.39
  -1   2 -48    1.91    3.66
   1   1 -48   -2.79    3.78
   1   1 -48    6.42    3.48
  -2   1 -48   -7.54    4.60
  -2   1 -48    0.95    3.72
   1  -2 -48   -6.53    4.44
   1  -2 -48   -0.44    4.60
  -2   4 -48    7.21    4.63
  -2   4 -48   -3.21    3.37
  -2  -2 -48    9.50    4.95
  -2  -2 -48    5.01    5.05
  -2   4 -48    2.13    5.29
   0   3 -48   21.60    5.22
  -3   0 -48   15.30    5.77
   0   3 -48   22.04    5.92
  -3   0 -48    6.89    5.10
   0  -3 -48    0.34    5.18
   0  -3 -48   -2.90    4.49
  -3   3 -48    2.80    5.84
   3   0 -48   -7.43    4.43
  -3   3 -48   -1.74    3.00
  -3   3 -48   -2.05    4.00
  -3  -3 -48    2.19    3.82
  -3  -3 -48   -4.63    3.69
  -3   6 -48   -1.07    4.42
  -3   6 -48   -4.83    7.32
  -3   6 -48    4.74    3.94
  -6   3  48   -0.52    4.74
  -1   5 -48    8.77    4.32
  -4  -1 -48   -0.83    3.95
  -4  -1 -48    3.28    4.75
  -1   5 -48   -2.13    4.07
   2  -4 -48    1.46    5.63
  -4   2 -48   -0.68    4.31
   2   2 -48    3.94    4.15
  -4   2 -48    4.62    4.80
  -4   5 -48   -1.94    3.26
  -4   5 -48    5.36    5.72
  -1  -4 -48    1.98    5.62
  -1  -4 -48    0.96    4.11
  -4   5 -48    3.44    3.92
  -5   1  48    6.10    5.71
  -4  -4 -48   -0.77    4.33
  -4   8 -48    2.90    4.04
  -4   8 -48    6.52    6.31
  -4  -4 -48    5.28    3.98
  -8   4  48    6.64    5.28
  -5  -2 -48    4.54    4.85
  -5  -2 -48    5.59    5.18
  -2   7 -48   15.00    8.26
  -2   7 -48    5.12    5.05
  -7   5  48   -7.73    3.87
  -5   1 -48    1.24    4.13
   1   4 -48    4.51    3.85
   1   4 -48    1.81    4.13
  -5   1 -48   -3.65    3.73
  -5   4 -48    0.77    4.61
   1  -5 -48   -6.82    4.20
  -5   4 -48   -0.68    4.16
   4   1 -48   -9.34    4.20
   1  -5 -48    8.86    6.09
  -4  -1  48    5.78    5.62
  -5   7 -48    8.97    4.93
  -5   7 -48    5.08    3.89
  -2  -5 -48    3.20    3.86
  -5   7 -48   -0.13    5.10
  -2  -5 -48   -6.69    4.65
  -7   2  48    5.71    5.18
  -3   9 -48   12.21    5.63
  -3   9 -48   -5.08    7.06
  -6  -3 -48    6.09    4.51
  -6   0 -48   -4.67    3.80
  -6   0 -48    6.74    5.21
   0   6 -48    8.44    5.45
   0  -6  48    5.13    4.96
  -6   6  48    8.35    5.65
   3  -6 -48   14.22    6.79
  -6   3 -48    3.33    4.28
  -6   3 -48    0.59    4.49
   3   3 -48   -0.37    3.85
  -3  -3  48   -1.04    4.58
   0  -6 -48    9.01    7.43
  -6   6 -48   -0.08    3.95
  -6   6 -48   -0.51    4.64
  -6   0  48    1.27    4.57
  -6   9 -48    0.34    5.33
  -6   9 -48    4.85    3.91
  -1   8 -48   -2.14    5.70
  -7  -1 -48   17.43    7.18
  -7  -1 -48    4.80    5.01
  -8   7  48   13.29    6.08
   1  -8  48    0.52    4.37
  -7   2 -48   -3.92    3.42
   2   5 -48    9.70    5.66
  -7   2 -48    4.63    4.56
  -2  -5  48    5.35    4.40
  -7   5 -48    2.89    4.82
   5   2 -48   -3.46    4.68
  -7   5 -48    3.64    3.99
  -5  -2  48    3.39    4.17
  -7   8 -48   -0.69    3.51
  -7   8 -48   -1.09    4.20
  -1  -7 -48    3.09    6.85
  -8   1  48   -4.48    4.55
   1   7 -48    5.84    5.73
  -8   1 -48    6.43    5.31
  -8   1 -48    7.91    5.47
  -1  -7  48    9.52    5.14
  -7   8  48   13.47    6.86
  -8   4 -48    1.78    4.13
  -8   4 -48   -5.77    3.23
  -4  -4  48    1.40    4.04
  -8   7 -48   -6.17    4.23
   1  -8 -48   14.31    7.84
  -7  -1  48   -4.64    4.01
  -9   3 -48    4.36    5.10
   3   6 -48    7.88    5.65
  -9   3 -48    0.57    5.20
  -9   6 -48   19.03    7.13
   0   1 -49    1.09    3.95
   0   1 -49    1.66    3.26
   1  -1 -49    6.01    4.93
  -1   0 -49    5.91    4.68
  -1   0 -49   -3.99    4.94
  -1   3 -49   27.05    8.13
  -2  -1 -49   29.20    7.51
  -1   3 -49   16.57    5.15
  -2  -1 -49   17.63    6.59
  -1   3 -49   28.71    7.21
  -2   2 -49   -6.50    5.22
   0  -2 -49    3.27    5.05
   0  -2 -49    1.40    4.75
  -2   2 -49   -2.75    3.36
   2   0 -49   -4.38    4.12
  -2   5 -49    9.85    8.01
  -3  -2 -49    8.27    5.29
  -2   5 -49    6.48    5.37
  -3  -2 -49    0.50    4.56
  -2   5 -49   12.13    4.79
  -5   3  49   18.60    6.37
   1   2 -49   15.67    5.13
  -3   1 -49   20.16    6.64
  -3   1 -49   19.06    6.72
   1   2 -49   30.79    7.28
  -3   4 -49   13.60    5.51
  -3   4 -49   17.74    5.16
  -3   4 -49   14.79    7.45
  -1  -3 -49    2.67    4.98
  -1  -3 -49    3.70    5.36
  -4  -3 -49   10.14    5.88
  -3   7 -49    1.16    7.15
  -3   7 -49    7.61    4.88
  -3   7 -49   14.43    5.52
  -4  -3 -49   14.60    5.60
  -7   4  49   11.02    5.77
   0   4 -49    0.28    4.36
  -4   0 -49   -0.23    4.17
  -4   0 -49   -6.19    3.31
   0   4 -49    3.25    4.10
  -4   3 -49   11.40    6.33
   1  -4 -49   13.85    6.55
  -4   3 -49    8.92    4.97
   1  -4 -49   -2.50    4.98
   3   1 -49    8.48    6.01
  -2  -4 -49   -2.36    5.31
  -2  -4 -49   10.86    4.86
  -4   6 -49   -3.58    6.02
  -4   6 -49   -2.02    3.88
  -4   6 -49    2.97    4.42
  -6   2  49    8.77    5.87
  -5  -1 -49   -0.07    4.97
  -1   6 -49    8.54    4.32
  -5  -1 -49   -2.15    3.59
  -1   6 -49    7.88    5.50
  -6   5  49   11.39    5.85
   2   3 -49    5.46    4.73
   2   3 -49   14.15    4.98
  -5   2 -49    7.51    5.32
  -5   2 -49    8.33    5.67
  -2  -3  49   10.44    5.51
  -5   5 -49    3.55    4.45
   0  -5 -49    5.96    6.74
  -5   5 -49   -5.86    4.37
   0  -5 -49   -1.50    3.67
  -5   0  49   -6.29    4.36
  -5   8 -49   -3.67    5.37
  -3  -5 -49   -3.48    5.17
  -5   8 -49   -0.99    4.06
  -3  -5 -49   -1.91    3.74
  -8   3  49   -0.33    4.79
  -2   8 -49   -1.18    5.34
  -6  -2 -49   -0.50    3.97
  -6  -2 -49    2.22    4.78
  -2   8 -49   13.72    8.60
  -8   6  49   -8.03    4.74
   2  -8  49   -1.77    4.58
  -6   1 -49    0.62    4.47
   1   5 -49    0.56    4.90
  -6   1 -49    1.08    4.36
  -1  -5  49    0.79    4.70
  -6   4 -49   -4.23    3.80
  -6   4 -49    0.75    4.18
   2  -6 -49   -1.66    5.00
   4   2 -49    4.08    5.27
  -4  -2  49   11.08    5.51
  -6   7 -49   -2.86    4.65
  -6   7 -49    1.96    3.32
  -1  -6 -49   -1.09    5.60
  -7   1  49    1.19    5.04
  -7   0 -49    2.62    4.91
  -7   0 -49    3.86    4.86
   0   7 -49    2.71    5.67
  -7   7  49   11.55    6.50
   0  -7  49    2.69    4.82
   3   4 -49   10.84    4.68
  -7   3 -49    6.54    4.51
  -7   3 -49   12.23    6.58
  -3  -4  49   -0.28    4.08
   1  -7 -49   -1.08    5.99
  -7   6 -49   -2.61    4.04
  -6  -1  49   -4.79    3.82
   2   6 -49    2.20    5.48
  -8   2 -49   -7.72    3.91
  -8   2 -49   -4.22    4.35
  -2  -6  49    1.20    3.86
  -8   5 -49    1.39    4.36
  -5  -3  49   -4.19    3.94
   0  -1 -50   -2.06    3.74
   1   0 -50    1.75    3.16
  -1   1 -50   -0.61    5.44
   0  -1 -50   -5.22    4.90
  -1   1 -50    3.90    4.14
   1   0 -50    2.16    4.76
  -2   0 -50    0.72    4.48
   0   2 -50   -1.09    3.71
  -2   0 -50    0.74    5.40
   2  -2 -50   -0.78    4.75
   0   2 -50    5.53    4.45
  -1  -2 -50    1.65    5.05
  -1  -2 -50   -1.86    5.03
  -2   3 -50    0.28    4.32
   3  -1 -50   -0.18    5.06
  -2   3 -50    0.90    4.27
  -2   3 -50    2.43    6.34
  -3  -1 -50   -2.71    4.58
  -1   4 -50    0.26    4.91
  -1   4 -50    4.73    4.50
  -3  -1 -50   -1.90    4.32
  -3   2 -50   -0.08    4.01
  -3   2 -50    3.82    5.87
   1  -3 -50    1.68    5.77
   1  -3 -50    6.43    5.50
   2   1 -50    3.02    5.07
  -3   5 -50    5.01    4.61
  -3   5 -50   -1.79    6.95
  -3   5 -50   -5.88    3.62
  -2  -3 -50   -0.11    4.54
  -2  -3 -50   -3.26    3.70
  -5   2  50    4.19    5.81
  -2   6 -50    4.05    4.12
  -2   6 -50    2.48    4.47
  -2   6 -50    4.77    6.93
  -4  -2 -50    0.69    3.77
  -4  -2 -50   -1.48    4.65
  -6   4  50   -4.39    4.49
   1   3 -50   11.94    5.04
  -4   1 -50    1.06    4.83
  -4   1 -50   -4.43    4.25
   1   3 -50    1.71    4.04
   0  -4 -50    0.81    4.68
   0  -4 -50    1.71    5.65
  -4   4 -50   -3.07    5.16
  -4   4 -50    0.86    4.36
  -4   0  50    5.13    5.48
  -4   7 -50    5.47    4.63
  -4   7 -50    3.22    7.47
  -4   7 -50    0.40    4.14
  -3  -4 -50   -3.18    3.18
  -3  -4 -50   -1.96    4.69
  -7   3  50   -4.16    4.94
  -3   8 -50    7.74    5.04
  -5  -3 -50    5.56    4.91
  -5   0 -50   -3.01    4.15
  -5   0 -50    0.85    3.80
   0   5 -50    0.64    4.67
   0   5 -50   -0.77    3.43
  -5   3 -50   -6.05    3.79
   2  -5 -50   -0.62    5.39
  -5   3 -50    5.17    4.79
   3   2 -50    1.89    4.78
  -3  -2  50   -0.51    5.28
  -1  -5 -50   -2.14    5.05
  -5   6 -50   -4.48    3.52
  -5   6 -50   -4.18    4.21
  -1  -5 -50    6.81    3.93
  -5   6 -50    0.75    3.42
  -6   1  50   -0.87    4.46
  -1   7 -50   -1.77    5.78
  -1   7 -50   39.95    9.92
  -6  -1 -50   -1.63    4.84
  -6  -1 -50   -0.24    4.07
  -7   6  50   -2.58    5.69
   1  -7  50   -3.09    4.70
  -6   2 -50   -4.17    3.90
   2   4 -50    3.46    4.34
  -6   2 -50   -0.34    4.44
  -2  -4  50   -5.82    4.40
  -6   5 -50   -2.60    4.43
  -6   5 -50    0.32    4.42
   1  -6 -50    4.79    5.92
   5   1 -50  -11.93    4.18
   1  -6 -50    2.98    4.30
  -5  -1  50    0.48    4.26
  -7   1 -50   -2.22    4.33
   1   6 -50    3.47    5.47
  -7   1 -50    2.57    5.00
  -1  -6  50    0.51    4.37
  -7   4 -50    5.48    5.58
  -7   4 -50    2.11    4.49
  -4  -3  50   -0.49    4.59
   3   5 -50    5.40    5.30
  -8   3 -50    6.95    5.31
   0   0 -51   15.67    7.01
   0   0 -51   -0.42    4.78
  -1   2 -51   18.45    7.55
  -1   2 -51   -2.42    4.48
  -1  -1 -51   -2.53    4.28
  -1  -1 -51   -0.16    6.62
  -1   2 -51    1.49    4.68
   2  -1 -51    1.74    5.54
   1   1 -51   14.28    5.05
   1  -2 -51   17.81    7.58
   1   1 -51    9.61    6.07
   1  -2 -51   12.40    7.26
  -2   1 -51    2.43    7.59
  -2   1 -51    6.72    5.28
  -2   4 -51   16.77    8.25
  -2  -2 -51    8.06    5.46
  -2   4 -51   27.14    6.63
  -2  -2 -51   -0.84    5.15
  -2   4 -51   12.68    5.63
  -3   0 -51   -4.41    4.09
   0   3 -51    2.58    4.39
   0   3 -51    7.33    4.76
  -3   0 -51   -3.59    4.02
  -3   3 -51   -0.65    3.76
   0  -3 -51   -5.07    4.94
   0  -3 -51    3.34    5.85
   3   0 -51    3.25    5.31
  -3   3 -51   -7.80    4.64
  -3   6 -51    2.58    7.67
  -3   6 -51    6.04    4.45
  -3  -3 -51   -2.17    3.42
  -3  -3 -51    1.23    5.26
  -3   6 -51   -3.89    3.75
  -6   3  51   -4.61    5.40
  -1   5 -51   -0.90    4.35
  -1   5 -51   10.11    6.92
  -1   5 -51    3.96    3.95
  -4  -1 -51    1.76    4.34
  -4  -1 -51   -3.05    4.53
  -4   2 -51   29.56    7.88
   2  -4 -51   23.95    8.03
   2  -4 -51   35.25    9.11
   2   2 -51   22.59    6.94
   2   2 -51   20.21    5.68
  -4   2 -51    8.84    6.30
  -1  -4 -51    1.26    4.05
  -4   5 -51   -1.63    3.87
  -4   5 -51   -2.19    5.18
  -1  -4 -51    7.97    6.23
  -5   1  51   -2.82    5.31
  -5  -2 -51    5.96    5.17
  -5  -2 -51    2.40    5.14
  -2   7 -51    4.71    5.57
  -2   7 -51    3.74    8.13
  -7   5  51    3.56    5.45
   1   4 -51   -1.84    4.28
  -5   1 -51   -1.86    4.46
   1   4 -51    4.30    3.94
  -5   1 -51    0.57    3.43
  -1  -4  51   -1.06    4.87
   1  -5 -51    2.02    6.23
  -5   4 -51    2.09    4.91
  -5   4 -51    1.13    4.58
   1  -5 -51    3.47    4.97
   4   1 -51    8.09    6.02
  -4  -1  51   -0.72    4.97
  -5   7 -51    2.57    4.14
  -5   7 -51   -7.11    3.84
  -5   7 -51   -2.45    2.73
  -2  -5 -51   -8.96    4.12
  -2  -5 -51    5.30    4.03
  -7   2  51   -2.85    4.84
  -6   0 -51   -6.78    4.03
  -6   0 -51    2.13    4.50
   0   6 -51   10.43    6.17
   0  -6  51   -2.75    4.53
  -6   6  51    5.13    6.35
   3   3 -51    4.71    4.24
  -6   3 -51    9.29    5.63
  -6   3 -51    0.94    4.94
   3  -6 -51   -3.63    5.40
   3   3 -51    5.13    4.43
  -3  -3  51    4.34    5.27
   0  -6 -51    8.46    6.46
  -6   6 -51   -2.83    4.38
  -6   6 -51    0.50    4.22
  -6   0  51    1.48    5.06
  -7   2 -51   -0.47    4.38
  -7   2 -51    2.65    5.22
   2   5 -51    0.18    5.16
  -2  -5  51    3.53    4.36
  -7   5 -51   -1.67    4.22
  -7   5 -51    2.20    5.02
   2  -7 -51   14.54    7.71
  -5  -2  51    0.95    5.06
   0   1 -52    3.77    4.19
  -1   0 -52   -5.41    4.06
   0   1 -52    6.96    4.96
  -1   0 -52   -3.07    6.07
   1  -1 -52    2.68    4.99
   0   1 -52   25.10    7.78
  -2  -1 -52   -2.62    3.86
  -1   3 -52    3.40    4.39
  -1   3 -52   -5.10    4.44
  -2  -1 -52    0.65    4.79
   3  -2 -52   11.54    6.56
  -1   3 -52   20.18    8.29
   0  -2 -52   -4.68    5.51
   0  -2 -52    1.93    5.64
  -2   2 -52   -8.00    6.31
   2   0 -52   -0.34    5.36
  -2   2 -52    8.47    5.35
  -3  -2 -52   -0.72    4.86
  -3  -2 -52    3.18    4.66
  -2   5 -52   -3.83    3.46
  -2   5 -52   -4.11    6.65
  -2   5 -52   -2.98    3.90
  -5   3  52    0.65    5.61
   2  -3 -52    6.34    5.99
   1   2 -52   11.65    5.20
  -3   1 -52   -2.55    3.61
   2  -3 -52   23.56    7.75
   1   2 -52    2.72    4.15
  -3   1 -52   -7.63    4.75
  -1  -3 -52    3.14    4.78
  -3   4 -52   -8.61    6.14
  -1  -3 -52   -2.59    5.32
  -3   4 -52    1.12    3.95
  -4   1  52    2.77    5.70
   0   4 -52   -3.84    4.28
  -4   0 -52   -3.90    3.47
   0   4 -52    2.94    3.98
  -4   0 -52   -0.62    3.94
   1  -4 -52    2.23    6.19
  -4   3 -52   -2.10    4.15
   1  -4 -52   -1.86    5.46
   3   1 -52    0.49    4.96
  -4   3 -52   -3.57    4.61
  -3  -1  52   -4.46    4.65
  -2  -4 -52   -0.24    4.04
  -4   6 -52    4.68    4.70
  -4   6 -52   -6.56    5.71
  -2  -4 -52    0.72    5.42
  -4   6 -52   -0.84    3.96
  -6   2  52    3.65    5.94
  -5  -1 -52   -0.94    4.59
  -5  -1 -52   -2.73    3.93
  -1   6 -52   28.59    8.84
  -1   6 -52    1.22    5.29
  -6   5  52    1.06    5.99
  -5   2 -52   -1.76    3.82
   3  -5 -52    4.47    6.42
   2   3 -52    6.49    4.32
   2   3 -52   -2.72    3.72
  -5   2 -52    0.28    4.07
  -2  -3  52    0.70    5.41
  -5   5 -52   -7.95    5.17
   0  -5 -52   -5.76    4.47
  -5   5 -52    3.34    4.96
   0  -5 -52    3.63    6.07
  -5   0  52    2.30    5.66
  -6   1 -52   -3.22    4.29
  -6   1 -52   -1.29    4.70
   1   5 -52    0.98    5.36
  -1  -5  52    2.45    4.98
   2  -6 -52   14.35    8.09
  -6   4 -52   -3.10    4.50
   4   2 -52    5.27    5.73
  -6   4 -52  -10.50    3.67
   2  -6 -52    1.35    6.26
  -4  -2  52    0.98    4.56
   1   0 -53   -4.70    4.50
   0  -1 -53    5.62    6.69
  -1   1 -53    2.84    4.90
   0  -1 -53   -3.49    5.12
  -1   1 -53   -6.37    5.59
  -2   0 -53   -3.17    4.78
   0   2 -53   11.23    7.39
  -2   0 -53    1.32    4.76
   0   2 -53    9.71    4.94
   0   2 -53   -6.69    3.92
   2  -2 -53    0.28    5.73
  -2   3 -53    3.51    4.71
   3  -1 -53    2.93    6.09
  -2   3 -53   10.78    7.62
  -1  -2 -53    3.76    5.54
  -1  -2 -53    5.64    5.10
  -1   4 -53    1.10    4.07
  -3  -1 -53   -7.62    3.45
  -1   4 -53    4.85    7.42
  -3  -1 -53    3.02    5.20
  -1   4 -53    0.55    4.40
   1  -3 -53   -2.20    5.41
   2   1 -53   12.19    4.57
   1  -3 -53    9.48    6.20
  -3   2 -53   10.33    5.69
  -3   2 -53   10.17    6.46
   2   1 -53    7.54    5.60
  -3   5 -53    5.33    5.09
  -3   5 -53   -1.07    8.80
  -2  -3 -53   -0.65    5.55
  -2  -3 -53   -4.54    4.09
  -3   5 -53    4.38    4.71
  -5   2  53   17.51    7.44
  -4   1 -53    3.74    5.15
  -4   1 -53    2.07    5.05
   1   3 -53    4.38    4.60
   1   3 -53    6.08    4.94
  -4   4 -53   -2.40    4.11
  -4   4 -53   -3.90    5.80
   4   0 -53   -2.19    5.29
   0  -4 -53   -1.66    6.42
   0  -4 -53    0.27    5.47
  -4   0  53    5.82    6.57
  -5   0 -53   -1.42    4.19
   0   5 -53   -5.43    3.98
  -5   3 -53   -0.56    5.13
   3   2 -53   14.46    5.16
   3   2 -53    3.94    5.36
  -5   3 -53  -11.31    4.01
   2  -5 -53    6.94    7.01
   2  -5 -53   14.01    7.64
  -3  -2  53   -0.41    5.21
   0   0 -54   13.15    6.28
   0   0 -54   18.63    7.81
   2  -1 -54   -3.13    5.22
  -1  -1 -54   -5.38    4.26
  -1  -1 -54   -4.30    5.16
  -1   2 -54    0.06    6.35
  -1   2 -54   -0.61    4.48
   1   1 -54    8.20    4.74
   1   1 -54    3.50    5.11
   1  -2 -54   -0.51    5.33
  -2   1 -54   -5.16    6.09
  -2   1 -54    1.65    4.59
   1  -2 -54   -2.50    5.87
  -2  -2 -54    2.78    5.10
  -2  -2 -54   -3.28    4.66
  -2   4 -54    4.59    4.77
  -2   4 -54   -1.21    8.14
   0   3 -54    4.13    5.25
  -3   0 -54   -2.12    4.68
   0   3 -54    3.23    4.56
   3  -3 -54    0.85    6.40
   0   3 -54   34.86    9.21
  -3   0 -54   -8.72    4.53
   0  -3 -54   -0.15    5.98
   3   0 -54    4.20    6.39
  -3   3 -54   -5.02    6.74
   0  -3 -54    5.00    6.85
  -3   3 -54    1.63    4.81
   2   2 -54    4.94    5.37
   2  -4 -54    7.72    7.66
   2  -4 -54    9.97    7.72
   2   2 -54   14.64    5.93
  -4   2 -54   -1.28    4.35
  -4   2 -54  -11.98    4.63
  -1   0 -55    0.28    7.58
   0   1 -55   16.41    8.42
   1  -1 -55   -4.03    5.20
   0   1 -55    3.37    5.37
   1  -1 -55   11.01    7.87
  -1   0 -55   -0.10    5.02
  -1   3 -55    4.74    7.39
  -2  -1 -55   -3.76    4.46
   3  -2 -55    1.43    6.59
  -1   3 -55   11.03    5.34
  -2  -1 -55   -2.16    4.99
   2   0 -55   -0.93    5.56
   0  -2 -55   -1.37    6.87
   0  -2 -55   -7.23    5.24
  -2   2 -55    0.78    4.49
   2   0 -55   16.22    5.35
  -2   2 -55   -0.41    7.39
   1   2 -55    5.88    4.97
   1   2 -55   -3.37    3.90
   2  -3 -55    8.63    7.10
   2  -3 -55   -7.78    5.76
  -3   1 -55   -1.94    5.30
  -3   1 -55    2.66    4.97
   0   0   0    0.00    0.00
;
_shelx_hkl_checksum              47320
#END Tags that were not found in dictionaries
loop_
_space_group_symop_operation_xyz
'x, y, z'
'-y, x-y, z'
'-x+y, -x, z'
'x-y, -y, -z+1/2'
'-x, -x+y, -z+1/2'
'y, x, -z+1/2'
'x+2/3, y+1/3, z+1/3'
'-y+2/3, x-y+1/3, z+1/3'
'-x+y+2/3, -x+1/3, z+1/3'
'x-y+2/3, -y+1/3, -z+5/6'
'-x+2/3, -x+y+1/3, -z+5/6'
'y+2/3, x+1/3, -z+5/6'
'x+1/3, y+2/3, z+2/3'
'-y+1/3, x-y+2/3, z+2/3'
'-x+y+1/3, -x+2/3, z+2/3'
'x-y+1/3, -y+2/3, -z+7/6'
'-x+1/3, -x+y+2/3, -z+7/6'
'y+1/3, x+2/3, -z+7/6'
'-x, -y, -z'
'y, -x+y, -z'
'x-y, x, -z'
'-x+y, y, z-1/2'
'x, x-y, z-1/2'
'-y, -x, z-1/2'
'-x+2/3, -y+1/3, -z+1/3'
'y+2/3, -x+y+1/3, -z+1/3'
'x-y+2/3, x+1/3, -z+1/3'
'-x+y+2/3, y+1/3, z-1/6'
'x+2/3, x-y+1/3, z-1/6'
'-y+2/3, -x+1/3, z-1/6'
'-x+1/3, -y+2/3, -z+2/3'
'y+1/3, -x+y+2/3, -z+2/3'
'x-y+1/3, x+2/3, -z+2/3'
'-x+y+1/3, y+2/3, z+1/6'
'x+1/3, x-y+2/3, z+1/6'
'-y+1/3, -x+2/3, z+1/6'
loop_
_atom_site_label
_atom_site_type_symbol
_atom_site_fract_x
_atom_site_fract_y
_atom_site_fract_z
_atom_site_U_iso_or_equiv
_atom_site_adp_type
_atom_site_occupancy
_atom_site_site_symmetry_order
_atom_site_calc_flag
_atom_site_refinement_flags_posn
_atom_site_refinement_flags_adp
_atom_site_refinement_flags_occupancy
I1 I 0.80229(4) -0.02773(4) 0.04541(2) 0.03680(18) Uani 1 1 d . . .
Cu1 Cu 0.98003(8) 0.16148(8) 0.01810(3) 0.0419(3) Uani 1 1 d . . .
Si1 Si 0.6667 0.3333 0.00921(10) 0.0311(9) Uani 1 3 d S T P
C1 C 0.6667 0.3333 -0.0349(4) 0.054(4) Uani 1 3 d S T P
H1A H 0.7077 0.4119 -0.0426 0.081 Uiso 0.3333 1 calc R U P
H1B H 0.5881 0.2957 -0.0426 0.081 Uiso 0.3333 1 calc R U P
H1C H 0.7043 0.2923 -0.0426 0.081 Uiso 0.3333 1 calc R U P
C11 C 0.8094(6) 0.3621(6) 0.0252(2) 0.0314(18) Uani 1 1 d . . .
C12 C 0.8489(6) 0.2850(6) 0.0180(2) 0.035(2) Uani 1 1 d . . .
H12 H 0.8027 0.2223 0.0048 0.043 Uiso 1 1 calc R U .
N13 N 0.9487(5) 0.2949(5) 0.02881(17) 0.0328(15) Uani 1 1 d . . .
C14 C 1.0183(6) 0.3879(6) 0.0460(2) 0.037(2) Uani 1 1 d . . .
H14 H 1.0884 0.3970 0.0533 0.045 Uiso 1 1 calc R U .
C15 C 0.9898(7) 0.4708(7) 0.0530(3) 0.050(3) Uani 1 1 d . . .
H15 H 1.0405 0.5354 0.0650 0.060 Uiso 1 1 calc R U .
C16 C 0.8859(6) 0.4589(7) 0.0425(3) 0.047(2) Uani 1 1 d . . .
H16 H 0.8675 0.5163 0.0470 0.056 Uiso 1 1 calc R U .
loop_
_atom_site_aniso_label
_atom_site_aniso_U_11
_atom_site_aniso_U_22
_atom_site_aniso_U_33
_atom_site_aniso_U_23
_atom_site_aniso_U_13
_atom_site_aniso_U_12
I1 0.0393(3) 0.0290(3) 0.0411(3) -0.0033(2) 0.0051(2) 0.0163(2)
Cu1 0.0367(5) 0.0404(6) 0.0546(8) -0.0045(5) -0.0050(5) 0.0237(5)
Si1 0.0237(10) 0.0237(10) 0.046(3) 0.000 0.000 0.0119(5)
C1 0.051(6) 0.051(6) 0.060(13) 0.000 0.000 0.025(3)
C11 0.027(4) 0.026(4) 0.042(5) 0.001(3) 0.001(3) 0.014(3)
C12 0.026(4) 0.029(4) 0.052(6) -0.011(4) -0.008(4) 0.015(3)
N13 0.025(3) 0.030(3) 0.042(5) -0.008(3) -0.007(3) 0.012(3)
C14 0.030(4) 0.029(4) 0.052(6) -0.006(4) -0.009(4) 0.014(3)
C15 0.042(5) 0.032(4) 0.073(8) -0.023(5) -0.022(5) 0.016(4)
C16 0.038(4) 0.033(4) 0.073(8) -0.019(4) -0.010(4) 0.020(4)
loop_
_atom_type_symbol
_atom_type_description
_atom_type_scat_dispersion_real
_atom_type_scat_dispersion_imag
_atom_type_scat_source
C C 0.0033 0.0016 'International Tables Vol C Tables 4.2.6.8 and 6.1.1.4'
H H 0.0000 0.0000 'International Tables Vol C Tables 4.2.6.8 and 6.1.1.4'
N N 0.0061 0.0033 'International Tables Vol C Tables 4.2.6.8 and 6.1.1.4'
O O 0.0106 0.0060 'International Tables Vol C Tables 4.2.6.8 and 6.1.1.4'
Si Si 0.0817 0.0704 'International Tables Vol C Tables 4.2.6.8 and 6.1.1.4'
Cu Cu 0.3201 1.2651 'International Tables Vol C Tables 4.2.6.8 and 6.1.1.4'
I I -0.4742 1.8119 'International Tables Vol C Tables 4.2.6.8 and 6.1.1.4'
loop_
_geom_angle_atom_site_label_1
_geom_angle_atom_site_label_2
_geom_angle_atom_site_label_3
_geom_angle
_geom_angle_site_symmetry_1
_geom_angle_site_symmetry_3
Cu1 I1 Cu1 63.06(4) 2_645 21_545
Cu1 I1 Cu1 97.33(5) 2_645 .
Cu1 I1 Cu1 61.65(4) 21_545 .
N13 Cu1 I1 110.00(17) . 3_765
N13 Cu1 I1 98.7(2) . 20_665
I1 Cu1 I1 119.15(5) 3_765 20_665
N13 Cu1 I1 104.51(17) . .
I1 Cu1 I1 107.78(6) 3_765 .
I1 Cu1 I1 115.31(5) 20_665 .
N13 Cu1 Cu1 118.00(16) . 21_545
I1 Cu1 Cu1 131.93(3) 3_765 21_545
I1 Cu1 Cu1 57.16(6) 20_665 21_545
I1 Cu1 Cu1 58.54(6) . 21_545
N13 Cu1 Cu1 125.56(18) . 20_665
I1 Cu1 Cu1 59.77(7) 3_765 20_665
I1 Cu1 Cu1 59.80(6) 20_665 20_665
I1 Cu1 Cu1 129.89(3) . 20_665
Cu1 Cu1 Cu1 92.55(8) 21_545 20_665
C1 Si1 C11 111.0(3) . .
C1 Si1 C11 111.0(3) . 3_665
C11 Si1 C11 107.9(3) . 3_665
C1 Si1 C11 111.0(3) . 2_655
C11 Si1 C11 107.9(3) . 2_655
C11 Si1 C11 107.9(3) 3_665 2_655
Si1 C1 H1A 109.5 . .
Si1 C1 H1B 109.5 . .
H1A C1 H1B 109.5 . .
Si1 C1 H1C 109.5 . .
H1A C1 H1C 109.5 . .
H1B C1 H1C 109.5 . .
C16 C11 C12 115.1(7) . .
C16 C11 Si1 125.4(6) . .
C12 C11 Si1 119.3(6) . .
N13 C12 C11 124.7(7) . .
N13 C12 H12 117.6 . .
C11 C12 H12 117.6 . .
C14 N13 C12 117.9(6) . .
C14 N13 Cu1 125.0(5) . .
C12 N13 Cu1 117.1(5) . .
N13 C14 C15 121.7(7) . .
N13 C14 H14 119.2 . .
C15 C14 H14 119.2 . .
C14 C15 C16 120.2(7) . .
C14 C15 H15 119.9 . .
C16 C15 H15 119.9 . .
C11 C16 C15 120.1(7) . .
C11 C16 H16 119.9 . .
C15 C16 H16 119.9 . .
loop_
_geom_bond_atom_site_label_1
_geom_bond_atom_site_label_2
_geom_bond_distance
_geom_bond_site_symmetry_2
I1 Cu1 2.587(2) 2_645
I1 Cu1 2.661(3) 21_545
I1 Cu1 2.696(2) .
Cu1 N13 2.064(6) .
Cu1 I1 2.587(2) 3_765
Cu1 I1 2.660(3) 20_665
Cu1 Cu1 2.745(2) 21_545
Cu1 Cu1 2.745(2) 20_665
Si1 C1 1.843(18) .
Si1 C11 1.861(7) .
Si1 C11 1.861(7) 3_665
Si1 C11 1.861(7) 2_655
C1 H1A 0.9600 .
C1 H1B 0.9600 .
C1 H1C 0.9600 .
C11 C16 1.380(11) .
C11 C12 1.398(10) .
C12 N13 1.344(9) .
C12 H12 0.9300 .
N13 C14 1.324(9) .
C14 C15 1.363(10) .
C14 H14 0.9300 .
C15 C16 1.383(11) .
C15 H15 0.9300 .
C16 H16 0.9300 .
