#------------------------------------------------------------------------------
#$Date: 2016-03-24 00:09:19 +0200 (Thu, 24 Mar 2016) $
#$Revision: 179525 $
#$URL: svn://www.crystallography.net/cod/cif/4/34/22/4342252.cif $
#------------------------------------------------------------------------------
#
# This file is available in the Crystallography Open Database (COD),
# http://www.crystallography.net/
#
# All data on this site have been placed in the public domain by the
# contributors.
#
data_4342252
loop_
_publ_author_name
'Deshmukh, Mahesh S.'
'Yadav, Ashok'
'Pant, Rakesh'
'Boomishankar, Ramamoorthy'
_publ_section_title
;
 Thermochromic and Mechanochromic Luminescence Umpolung in Isostructural
 Metal-Organic Frameworks Based on Cu6I6 Clusters.
;
_journal_issue                   4
_journal_name_full               'Inorganic chemistry'
_journal_page_first              1337
_journal_page_last               1345
_journal_paper_doi               10.1021/ic502207f
_journal_volume                  54
_journal_year                    2015
_chemical_formula_sum            'C31 H28 Cu I N4 O Si'
_chemical_formula_weight         691.10
_chemical_name_systematic
;
 ?
;
_space_group_crystal_system      triclinic
_space_group_IT_number           2
_space_group_name_Hall           '-P 1'
_space_group_name_H-M_alt        'P -1'
_symmetry_space_group_name_Hall  '-P 1'
_symmetry_space_group_name_H-M   'P -1'
_atom_sites_solution_hydrogens   geom
_audit_creation_method           SHELXL-2013
_cell_angle_alpha                112.294(10)
_cell_angle_beta                 95.693(9)
_cell_angle_gamma                99.292(9)
_cell_formula_units_Z            2
_cell_length_a                   10.087(4)
_cell_length_b                   11.412(4)
_cell_length_c                   14.137(6)
_cell_measurement_reflns_used    1673
_cell_measurement_temperature    100(2)
_cell_measurement_theta_max      26.63
_cell_measurement_theta_min      2.38
_cell_volume                     1462.8(10)
_computing_cell_refinement       'Bruker SAINT'
_computing_data_collection       'Bruker APEX2'
_computing_data_reduction        'Bruker SAINT'
_computing_molecular_graphics    'Bruker SHELXTL'
_computing_publication_material  'Bruker SHELXTL'
_computing_structure_refinement  'SHELXL-2013 (Sheldrick, 2013)'
_computing_structure_solution    'SHELXS-97 (Sheldrick, 2008)'
_diffrn_ambient_temperature      100(2)
_diffrn_measured_fraction_theta_full 0.965
_diffrn_measured_fraction_theta_max 0.990
_diffrn_measurement_device_type  'Bruker Smart Apex Duo'
_diffrn_measurement_method       'Omega and Phi Scans'
_diffrn_radiation_type           MoK\a
_diffrn_radiation_wavelength     0.71073
_diffrn_reflns_av_R_equivalents  0.1803
_diffrn_reflns_av_unetI/netI     0.2225
_diffrn_reflns_Laue_measured_fraction_full 0.965
_diffrn_reflns_Laue_measured_fraction_max 0.990
_diffrn_reflns_limit_h_max       11
_diffrn_reflns_limit_h_min       -11
_diffrn_reflns_limit_k_max       10
_diffrn_reflns_limit_k_min       -13
_diffrn_reflns_limit_l_max       16
_diffrn_reflns_limit_l_min       -16
_diffrn_reflns_number            17083
_diffrn_reflns_point_group_measured_fraction_full 0.965
_diffrn_reflns_point_group_measured_fraction_max 0.990
_diffrn_reflns_theta_full        25.242
_diffrn_reflns_theta_max         24.997
_diffrn_reflns_theta_min         1.581
_diffrn_source                   'fine-focus sealed tube'
_exptl_absorpt_coefficient_mu    1.874
_exptl_absorpt_correction_T_max  0.7457
_exptl_absorpt_correction_T_min  0.5772
_exptl_absorpt_correction_type   multi-scan
_exptl_absorpt_process_details   SADABS
_exptl_crystal_colour            pale-yellow
_exptl_crystal_density_diffrn    1.569
_exptl_crystal_description       rod
_exptl_crystal_F_000             692
_exptl_crystal_size_max          0.1
_exptl_crystal_size_mid          0.08
_exptl_crystal_size_min          0.06
_refine_diff_density_max         1.778
_refine_diff_density_min         -2.105
_refine_diff_density_rms         0.248
_refine_ls_extinction_method     none
_refine_ls_goodness_of_fit_ref   0.986
_refine_ls_hydrogen_treatment    constr
_refine_ls_matrix_type           full
_refine_ls_number_parameters     355
_refine_ls_number_reflns         5105
_refine_ls_number_restraints     18
_refine_ls_restrained_S_all      0.985
_refine_ls_R_factor_all          0.1156
_refine_ls_R_factor_gt           0.0556
_refine_ls_shift/su_max          0.001
_refine_ls_shift/su_mean         0.000
_refine_ls_structure_factor_coef Fsqd
_refine_ls_weighting_details
'w=1/[\s^2^(Fo^2^)+(0.0418P)^2^] where P=(Fo^2^+2Fc^2^)/3'
_refine_ls_weighting_scheme      calc
_refine_ls_wR_factor_gt          0.1445
_refine_ls_wR_factor_ref         0.1802
_reflns_Friedel_coverage         0.000
_reflns_number_gt                3385
_reflns_number_total             5105
_reflns_threshold_expression     'I > 2\s(I)'
_cod_data_source_file            ic502207f_si_007.cif
_cod_data_source_block           TR2
_cod_depositor_comments
'Adding full bibliography for 4342249--4342255.cif.'
_cod_original_cell_volume        1462.9(9)
_cod_database_code               4342252
#BEGIN Tags that were not found in dictionaries:
_shelx_space_group_comment
;
The symmetry employed for this shelxl refinement is uniquely defined
by the following loop, which should always be used as a source of
symmetry information in preference to the above space-group names.
They are only intended as comments.
;
_shelxl_version_number           2013-3
_shelx_res_file
;
TITL TR2 in P-1
CELL 0.71073 10.0869 11.4123 14.1374 112.294 95.693 99.292
ZERR 2.00 0.0038 0.0040 0.0055 0.010 0.009 0.009
LATT 1
SFAC C  H  N O Si  Cu  I
UNIT 62  56  8  2  2  2  2
OMIT -3 50
L.S. 24
ACTA
BOND $H
FMAP 2
PLAN 10
CONF
TEMP -173
isor 0.005 C15 C22 C24
WGHT    0.041800
FVAR       0.34256
I1    7    0.283720   -0.610205    0.468991    11.00000    0.01511    0.01171 =
         0.02449    0.00971    0.00186    0.00300
CU1   6    0.455750   -0.408876    0.470522    11.00000    0.01834    0.01233 =
         0.01821    0.00901    0.00102    0.00491
SI1   5    0.677827    0.117811    0.757539    11.00000    0.01743    0.01031 =
         0.01240    0.00601    0.00101    0.00440
C1    1    0.809007    0.082464    0.674542    11.00000    0.02355    0.01332 =
         0.01293    0.00558   -0.00044    0.00326
AFIX 137
H1A   2    0.824268   -0.004414    0.662178    11.00000   -1.50000
H1B   2    0.894404    0.146762    0.709346    11.00000   -1.50000
H1C   2    0.777950    0.086289    0.608066    11.00000   -1.50000
AFIX   0
C11   1    0.516440   -0.003243    0.688176    11.00000    0.02870    0.01240 =
         0.00761    0.00462    0.00494    0.01523
C12   1    0.517726   -0.136998    0.630154    11.00000    0.02500    0.01571 =
         0.01749    0.00930    0.00224    0.01075
AFIX  43
H12   2    0.602931   -0.161009    0.636909    11.00000   -1.20000
AFIX   0
N13   3    0.413538   -0.231025    0.568130    11.00000    0.01912    0.01792 =
         0.01931    0.00830    0.00570    0.01087
C14   1    0.288876   -0.198257    0.558167    11.00000    0.01971    0.00672 =
         0.00556    0.00331    0.00205    0.00472
C15   1    0.177254   -0.292254    0.491956    11.00000    0.01514    0.00782 =
         0.01826    0.00357    0.00020    0.00127
AFIX  43
H15   2    0.187676   -0.378267    0.455039    11.00000   -1.20000
AFIX   0
C16   1    0.052428   -0.262156    0.479392    11.00000    0.01327    0.01940 =
         0.01795    0.00829    0.00089   -0.00216
AFIX  43
H16   2   -0.023314   -0.327263    0.434344    11.00000   -1.20000
AFIX   0
C17   1    0.036416   -0.134355    0.533418    11.00000    0.01860    0.02460 =
         0.02505    0.01864    0.00885    0.01468
AFIX  43
H17   2   -0.050449   -0.114465    0.523602    11.00000   -1.20000
AFIX   0
C18   1    0.142020   -0.039237    0.599012    11.00000    0.01947    0.01684 =
         0.02326    0.01126    0.00706    0.00767
AFIX  43
H18   2    0.128517    0.045945    0.634725    11.00000   -1.20000
AFIX   0
C19   1    0.274833   -0.067430    0.614541    11.00000    0.02087    0.01094 =
         0.02742    0.01407    0.01256    0.00816
C20   1    0.389597    0.027189    0.677409    11.00000    0.02300    0.01336 =
         0.01520    0.01006    0.00390    0.00563
AFIX  43
H20   2    0.380466    0.113860    0.713376    11.00000   -1.20000
AFIX   0
C21   1    0.739490    0.111698    0.883986    11.00000    0.01714    0.00457 =
         0.00928   -0.00082    0.00215    0.00108
C22   1    0.651464    0.064482    0.941748    11.00000    0.01104    0.00811 =
         0.01597    0.00271   -0.00119   -0.00010
AFIX  43
H22   2    0.556609    0.037669    0.914078    11.00000   -1.20000
AFIX   0
N23   3    0.691014    0.055364    1.029124    11.00000    0.01797    0.01821 =
         0.02306    0.01474    0.00637    0.00616
C24   1    0.827139    0.096298    1.070395    11.00000    0.02020    0.00822 =
         0.01536    0.00787    0.00802    0.00391
C25   1    0.871334    0.090877    1.166970    11.00000    0.02734    0.03331 =
         0.01891    0.01778   -0.00209    0.00376
AFIX  43
H25   2    0.807752    0.055605    1.199606    11.00000   -1.20000
AFIX   0
C26   1    1.006554    0.136898    1.213057    11.00000    0.03547    0.03345 =
         0.01252    0.01409    0.00297    0.01132
AFIX  43
H26   2    1.035556    0.134424    1.278162    11.00000   -1.20000
AFIX   0
C27   1    1.103236    0.188015    1.164545    11.00000    0.01760    0.02785 =
         0.02054    0.01170   -0.00808    0.00165
AFIX  43
H27   2    1.195940    0.220385    1.197969    11.00000   -1.20000
AFIX   0
C28   1    1.064778    0.191172    1.071028    11.00000    0.01348    0.02552 =
         0.02365    0.01412   -0.00196   -0.00019
AFIX  43
H28   2    1.130986    0.222519    1.038051    11.00000   -1.20000
AFIX   0
C29   1    0.924952    0.147438    1.022193    11.00000    0.01505    0.01547 =
         0.01387    0.00723   -0.00131    0.00181
C30   1    0.876632    0.153032    0.927517    11.00000    0.02104    0.01760 =
         0.01245    0.00772    0.00614    0.00781
AFIX  43
H30   2    0.939237    0.185757    0.892854    11.00000   -1.20000
AFIX   0
C31   1    0.639121    0.280139    0.774362    11.00000    0.01611    0.01317 =
         0.00997    0.00613   -0.00565    0.00032
C32   1    0.602795    0.298636    0.683266    11.00000    0.02720    0.01385 =
         0.02397    0.01313    0.00644    0.01017
AFIX  43
H32   2    0.600166    0.228298    0.619178    11.00000   -1.20000
AFIX   0
N33   3    0.571704    0.405480    0.678306    11.00000    0.02665    0.01430 =
         0.01958    0.01026    0.00485    0.01214
C34   1    0.569370    0.504287    0.768883    11.00000    0.01249    0.01011 =
         0.01922    0.00643    0.00251   -0.00253
C35   1    0.527838    0.618480    0.768858    11.00000    0.01354    0.01536 =
         0.03285    0.01576    0.01027    0.00694
AFIX  43
H35   2    0.501611    0.624884    0.704874    11.00000   -1.20000
AFIX   0
C36   1    0.525739    0.718061    0.860181    11.00000    0.02806    0.01653 =
         0.03756    0.01436    0.01175    0.01041
AFIX  43
H36   2    0.493009    0.791155    0.859121    11.00000   -1.20000
AFIX   0
C37   1    0.571477    0.713969    0.956098    11.00000    0.02517    0.00845 =
         0.02995    0.00150    0.01214    0.00374
AFIX  43
H37   2    0.575549    0.786547    1.019064    11.00000   -1.20000
AFIX   0
C38   1    0.609879    0.605863    0.958528    11.00000    0.02767    0.00934 =
         0.01633    0.00069    0.00590    0.00830
AFIX  43
H38   2    0.637519    0.603160    1.023760    11.00000   -1.20000
AFIX   0
C39   1    0.609632    0.498331    0.867037    11.00000    0.01845    0.02110 =
         0.02345    0.01438    0.01373    0.00856
C40   1    0.644115    0.381819    0.866263    11.00000    0.01603    0.01877 =
         0.01412    0.01283   -0.00206   -0.00047
AFIX  43
H40   2    0.670692    0.374874    0.929972    11.00000   -1.20000
AFIX   0
O1S   4    0.208957    0.280762    0.785895    11.00000    0.09203    0.03269 =
         0.03001    0.00666    0.00158    0.02806
C2S   1    0.209099    0.369042    0.756369    11.00000    0.03931    0.02351 =
         0.02738    0.00072   -0.00116    0.00787
AFIX  43
H2S   2    0.262266    0.370245    0.704782    11.00000   -1.20000
AFIX   0
N3S   3    0.140873    0.463257    0.790686    11.00000    0.03407    0.02039 =
         0.03522    0.00537    0.00926    0.00388
C4S   1    0.148227    0.564588    0.750698    11.00000    0.05445    0.03188 =
         0.06110    0.02185    0.02695    0.02043
AFIX 137
H4S1  2    0.206453    0.548556    0.697576    11.00000   -1.50000
H4S2  2    0.186767    0.649325    0.807657    11.00000   -1.50000
H4S3  2    0.056388    0.563781    0.720068    11.00000   -1.50000
AFIX   0
C5S   1    0.055218    0.467226    0.866624    11.00000    0.07148    0.04449 =
         0.05676    0.01931    0.03069    0.01660
AFIX 137
H5S1  2    0.058356    0.393772    0.886035    11.00000   -1.50000
H5S2  2   -0.038862    0.462035    0.837381    11.00000   -1.50000
H5S3  2    0.087687    0.548581    0.928294    11.00000   -1.50000
AFIX   0
HKLF 4 1 1 0 0 0 1 0 0 0 1

REM  TR2 in P-1
REM R1 =  0.0556 for    3385 Fo > 4sig(Fo)  and  0.1156 for all    5105 data
REM    355 parameters refined using     18 restraints

END

WGHT      0.0418      0.0000

REM Highest difference peak  1.778,  deepest hole -2.105,  1-sigma level  0.248
Q1    1   0.2944 -0.5791  0.5367  11.00000  0.05    1.78
Q2    1   0.2842 -0.6450  0.4016  11.00000  0.05    1.44
Q3    1   0.4586 -0.3796  0.5439  11.00000  0.05    1.33
Q4    1   0.2363 -0.4752  0.5256  11.00000  0.05    1.29
Q5    1   0.3804 -0.5929  0.4774  11.00000  0.05    1.27
Q6    1   0.1887 -0.6385  0.4638  11.00000  0.05    1.17
Q7    1   0.6633 -0.2573  0.5827  11.00000  0.05    1.14
Q8    1   0.4833  0.5431  0.5854  11.00000  0.05    1.05
Q9    1   0.3968 -0.3184  0.5430  11.00000  0.05    0.94
Q10   1   1.1511  0.3651  1.3263  11.00000  0.05    0.94
;
_shelx_res_checksum              78452
_shelx_hkl_file
;
  -1   0   0 1216.16  238.90
   1   0   0 1237.07  228.33
   1   0   0 1343.23  238.93
  -2   0   0   85.90   15.29
   2   0   0   52.27   14.06
  -3   0   0   35.67   10.77
   3   0   0   34.77   10.88
  -4   0   0  119.31   23.76
   4   0   0   91.73   22.55
  -5   0   0  599.04  111.90
   5   0   0  560.47  106.93
  -6   0   0   28.54   11.62
   6   0   0    5.93    8.73
  -7   0   0  651.74  123.71
   7   0   0  623.65  122.95
  -8   0   0  133.33   32.50
   8   0   0  137.83   31.48
  -9   0   0   71.65   26.05
   9   0   0  129.12   27.58
 -10   0   0  -20.19   13.61
  10   0   0   29.88   15.19
 -11   0   0  125.00   33.32
  11   0   0  118.62   31.20
 -12   0   0  107.04   37.15
  12   0   0  170.22   36.67
 -13   0   0    0.49   22.42
  13  -1   0   42.53   21.41
 -13   1   0   61.92   27.43
  12  -1   0  176.93   41.12
 -12   1   0  154.53   43.09
  11  -1   0   17.58   16.11
 -11   1   0   27.98   18.80
  10  -1   0   63.80   20.92
 -10   1   0   50.45   21.80
   9  -1   0   16.24   13.69
  -9   1   0   36.54   16.52
   8  -1   0  282.62   58.18
  -8   1   0  279.94   59.39
   7  -1   0  723.21  141.76
  -7   1   0  752.46  142.49
   6  -1   0  132.82   63.72
   6  -1   0   57.60   18.10
  -6   1   0   79.88   19.45
   5  -1   0  196.25   41.84
   5  -1   0  224.87   43.36
  -5   1   0  217.79   44.22
   4  -1   0    7.03    8.91
   4  -1   0   63.71   42.64
  -4   1   0   35.56   10.48
   3  -1   0  460.20   89.80
   3  -1   0  449.59   86.22
   3  -1   0  474.81  100.41
  -3   1   0  488.20   89.88
   2  -1   0   -4.76   32.25
   2  -1   0    0.20    4.50
   2  -1   0   -2.40    8.26
   2  -1   0  -13.44    5.87
  -2   1   0    2.29    4.75
   1  -1   0  663.06  120.38
   1  -1   0  625.26  120.36
   1  -1   0  596.50  115.26
   1  -1   0  655.49  161.11
   1  -1   0  705.44  133.72
  -1   1   0  606.83  120.39
   0  -1   0  685.33  136.47
   0  -1   0  611.68  164.72
  -1  -1   0 1293.06  239.09
  -1  -1   0 1229.45  263.90
   1   1   0 1275.23  228.32
  -2  -1   0   32.31    9.49
   2   1   0   43.69    9.77
  -3  -1   0  620.83  116.49
   3   1   0  597.99  111.25
  -4  -1   0  468.09   94.79
   4   1   0  512.05   90.64
  -5  -1   0   60.03   16.44
  -6  -1   0  392.39   82.73
   6   1   0  447.46   82.43
  -7  -1   0   93.48   22.30
   7   1   0   67.21   19.63
  -8  -1   0   -0.89   12.66
   8   1   0   31.30   13.39
  -9  -1   0   94.78   27.93
   9   1   0  108.23   27.21
 -10  -1   0   53.12   22.95
  10   1   0   73.78   21.75
 -11  -1   0  386.20   82.55
  11   1   0  400.28   81.80
  13  -2   0   86.36   26.91
  12  -2   0   23.44   16.20
  11  -2   0   56.68   22.08
 -11   2   0  112.88   28.74
  10  -2   0   37.07   16.94
 -10   2   0   52.09   20.49
   9  -2   0  135.76   32.03
  -9   2   0  139.09   34.16
   8  -2   0  350.91  239.88
   8  -2   0  570.55  102.42
  -8   2   0  619.27  103.86
   7  -2   0  224.07   39.88
   7  -2   0  179.79   39.57
   7  -2   0   95.64   98.24
  -7   2   0  215.87   41.04
   6  -2   0  448.87   71.09
   6  -2   0  178.66  168.47
   6  -2   0  383.61   70.60
  -6   2   0  353.88   71.71
   5  -2   0   31.98   51.57
   5  -2   0   46.63   13.11
   5  -2   0   49.76   13.34
  -5   2   0   51.31   13.60
   4  -2   0 1536.87  318.38
   4  -2   0 1589.91  287.29
   4  -2   0 1493.78  274.94
   4  -2   0 1499.10  287.15
  -4   2   0 1464.74  287.33
   3  -2   0 1622.36  300.98
   3  -2   0 1537.20  300.94
   3  -2   0 1557.02  333.58
   3  -2   0 1611.27  288.16
  -3   2   0 1626.61  301.11
   2  -2   0   39.36   14.36
   2  -2   0  -14.99   44.24
   2  -2   0   26.09    7.22
   2  -2   0   26.55    7.08
   2  -2   0   23.74   19.83
   2  -2   0   22.71    9.06
   1  -2   0 5001.02 1272.68
   1  -2   0 5127.76 1056.13
   0  -2   0  366.05   76.45
   0  -2   0  342.06   93.43
  -1  -2   0 2134.40  587.29
  -1  -2   0 1852.40  380.97
   1   2   0 1710.86  329.20
  -2  -2   0   25.26    9.67
  -2  -2   0   26.62   10.13
  -2  -2   0   19.25   84.06
   2   2   0   31.66    7.85
  -3  -2   0 1809.38  390.19
  -3  -2   0 2009.22  353.78
   3   2   0 1806.86  337.71
  -5  -2   0   98.59   23.14
  -5  -2   0  113.61  211.17
  -6  -2   0   18.07  346.14
  -6  -2   0  125.70   28.00
   6   2   0  115.28   26.80
  -7  -2   0 1209.08  975.16
  -8  -2   0 1553.56  642.96
  -8  -2   0  533.77  107.00
   8   2   0  489.31  105.07
  -9  -2   0   64.20   24.09
  -9  -2   0   67.75  425.68
   9   2   0   82.71   23.19
 -10  -2   0   86.86   27.95
 -10  -2   0   -2.56  473.77
 -11  -2   0   74.76  483.43
 -11  -2   0   87.52   30.31
 -12  -2   0  216.34  661.08
  13  -3   0   24.45   18.49
  13  -3   0   21.94   48.91
  12  -3   0    7.48   14.94
  11  -3   0  321.75   66.92
  10  -3   0  101.29   26.24
   9  -3   0  259.48   53.51
  -9   3   0  253.25   55.42
   8  -3   0  612.38  123.82
  -8   3   0  678.07  125.29
   7  -3   0   43.65   76.80
   7  -3   0  126.58   28.89
   7  -3   0  210.72   31.11
  -7   3   0  124.32   30.19
   6  -3   0   12.39    8.82
   6  -3   0   26.47   47.09
   6  -3   0   10.17    9.00
   6  -3   0   20.82   15.66
  -6   3   0    6.76    9.25
   5  -3   0   38.78   25.19
   5  -3   0   -7.76    6.72
   5  -3   0   -0.58    5.82
   5  -3   0    8.20   15.08
   5  -3   0  -16.81   43.18
  -5   3   0    5.57    7.92
   4  -3   0 1486.26  382.34
   4  -3   0 1508.76  316.61
   4  -3   0 1528.93  284.90
   4  -3   0 1559.04  284.93
  -4   3   0 1426.94  285.11
   3  -3   0  596.57  160.36
   3  -3   0  605.45  117.49
   3  -3   0  638.33  117.55
   3  -3   0  627.18  132.60
   2  -3   0  773.80  208.06
   2  -3   0  842.49  171.86
   1  -3   0  882.76  222.86
   1  -3   0  864.13  183.60
   0  -3   0  -33.52   55.87
   0  -3   0   47.41   14.31
   0  -3   0   48.98   22.50
  -1  -3   0  596.50  131.03
  -1  -3   0  630.84  112.18
  -2  -3   0  111.87   23.02
  -2  -3   0   87.58   22.97
  -2  -3   0   42.32  103.00
  -3  -3   0  375.08   83.39
  -3  -3   0  413.96   76.96
  -4  -3   0  -75.98  201.12
  -4  -3   0  222.81   39.33
  -4  -3   0  191.87   41.56
  -5  -3   0   50.35  156.54
  -5  -3   0    7.97   10.81
  -5  -3   0  -16.42    9.54
  -6  -3   0  -51.23  184.54
  -6  -3   0   19.16   12.68
  -6  -3   0  -18.85   11.21
   6   3   0    7.93    8.54
  -7  -3   0  450.86   90.58
  -7  -3   0  354.18   82.24
  -7  -3   0  243.10  406.07
   7   3   0  437.11   81.11
  -8  -3   0  382.94   97.61
  -8  -3   0  610.38  542.06
  -8  -3   0  701.58  109.72
   8   3   0  424.00   97.00
  -9  -3   0  -20.54   14.85
  -9  -3   0  -23.00  365.02
  -9  -3   0   27.16   20.96
 -10  -3   0  550.37  616.26
 -11  -3   0   43.24   26.62
 -11  -3   0 -429.95  518.42
 -12  -3   0   83.51   36.56
 -12  -3   0 -214.20  625.28
  13  -4   0   62.94   56.39
  13  -4   0    6.06   15.98
  12  -4   0  163.48   65.38
  12  -4   0   95.86   28.66
  11  -4   0  126.17   68.43
  11  -4   0  181.04   39.11
  10  -4   0    3.06   36.39
  10  -4   0    7.59   12.83
   9  -4   0  141.13   53.50
   9  -4   0  107.29   27.07
   8  -4   0   26.80   11.70
   8  -4   0   22.30   32.86
   8  -4   0   30.39   11.77
   8  -4   0   22.99   56.17
  -8   4   0   -0.01   12.31
   7  -4   0  173.65   42.12
   7  -4   0  174.33   32.63
   7  -4   0  200.71   33.29
   7  -4   0  160.01   56.90
   7  -4   0   16.23   83.77
  -7   4   0  139.59   32.94
   6  -4   0   34.90   18.11
   6  -4   0   23.64    8.64
   6  -4   0  -29.90   47.03
   6  -4   0    8.61    8.03
   6  -4   0   -3.25   25.56
  -6   4   0   11.73    8.85
   5  -4   0 1774.40  330.14
   5  -4   0 1664.40  367.26
   5  -4   0 1809.74  330.24
   5  -4   0 1678.79  443.73
  -5   4   0 1723.34  330.72
   4  -4   0 2138.72  411.37
   4  -4   0 2106.52  456.95
   4  -4   0 2242.54  411.44
   4  -4   0 2216.65  552.13
   3  -4   0   10.95   25.72
   3  -4   0   -0.21   13.46
   3  -4   0    8.34   55.39
   2  -4   0  231.99   58.11
   2  -4   0   40.92  103.35
   2  -4   0  211.94   43.16
   1  -4   0  210.15   56.62
   1  -4   0  169.87   42.89
   0  -4   0 2087.51  514.09
   0  -4   0 1992.57  425.81
  -1  -4   0  763.60  138.22
  -1  -4   0  831.55  165.30
  -3  -4   0 1324.59  265.60
  -3  -4   0  712.66  138.65
  -3  -4   0  511.24  126.52
  -4  -4   0   97.22  131.39
  -4  -4   0   19.97   14.82
  -4  -4   0   -2.16    9.30
  -5  -4   0  193.88   40.01
  -5  -4   0  -23.83  198.96
  -5  -4   0  188.92   39.26
   5   4   0  158.61   34.68
  -6  -4   0  -11.92   14.15
  -6  -4   0  -20.90   14.86
  -6  -4   0 -163.33  225.78
   6   4   0    1.92    8.31
  -7  -4   0   29.95  402.42
  -7  -4   0  456.02   91.43
  -7  -4   0  524.11   97.84
  -8  -4   0  166.91   48.01
  -8  -4   0   93.93  351.91
  -8  -4   0  245.32   51.75
  -9  -4   0   -5.91   19.53
  -9  -4   0    1.08   22.13
  -9  -4   0 -130.12  354.77
 -10  -4   0    6.79   25.30
 -10  -4   0  215.29  393.80
 -11  -4   0 -453.27  488.80
 -11  -4   0   97.27   37.04
  13  -5   0   49.51   21.80
  13  -5   0  200.22   70.24
  12  -5   0  308.68   66.12
  12  -5   0  365.33  112.71
  11  -5   0  164.28   69.53
  11  -5   0  109.91   28.70
  10  -5   0   87.53   53.84
  10  -5   0   68.45   20.37
   9  -5   0   49.62   17.27
   9  -5   0  142.77   51.56
   8  -5   0   68.77   44.54
   8  -5   0   55.36   27.94
   8  -5   0    5.57   64.22
   8  -5   0   77.32   17.94
   8  -5   0   76.90   18.23
   7  -5   0  266.60   55.02
   7  -5   0  295.93   88.62
   7  -5   0  274.96   54.35
   7  -5   0  274.65   67.28
  -7   5   0  282.23   56.55
   6  -5   0   26.46    8.16
   6  -5   0   27.34   18.81
   6  -5   0   20.24    7.81
   6  -5   0   -4.70   61.57
   6  -5   0  -41.07   27.53
   5  -5   0 1018.99  209.28
   5  -5   0  941.60  185.11
   5  -5   0 1005.10  185.21
   5  -5   0  986.43  254.02
   4  -5   0  548.21  116.21
   4  -5   0  505.80  144.57
   3  -5   0    0.30   67.12
   3  -5   0   40.97   32.30
   3  -5   0   62.89   21.06
   2  -5   0  -54.78   69.08
   2  -5   0   89.24   23.44
   2  -5   0   95.99   34.40
   1  -5   0 1129.54  302.16
   1  -5   0 1234.90  250.18
   0  -5   0  700.65  146.12
   0  -5   0  664.77  177.05
  -1  -5   0   83.71   23.10
  -2  -5   0   91.28   24.62
  -3  -5   0   20.21   93.83
  -3  -5   0   10.19   10.43
  -4  -5   0   82.69   86.19
  -4  -5   0  -79.45  160.84
  -4  -5   0  152.75   37.24
  -4  -5   0  322.25   41.54
  -5  -5   0  125.23   36.32
  -5  -5   0  190.35  125.27
  -5  -5   0  -77.64  180.20
  -5  -5   0  193.50   35.69
  -6  -5   0 -282.98  234.82
  -6  -5   0  242.54   47.18
  -6  -5   0  274.76   48.21
  -7  -5   0  302.42   44.19
  -7  -5   0 -289.36  230.25
  -8  -5   0  151.50  249.03
  -8  -5   0    2.94   24.10
  -9  -5   0   30.79  303.43
  -9  -5   0   50.00   32.13
 -10  -5   0   -1.28   29.66
 -10  -5   0  -20.51  160.42
 -10  -5   0  -51.49  360.12
 -11  -5   0  102.05   43.38
 -11  -5   0 -128.86  400.65
 -11  -5   0  160.54  220.20
  13  -6   0  -28.73   58.32
  12  -6   0  110.44   23.91
  12  -6   0  -38.55   57.99
  11  -6   0    0.36   11.55
  11  -6   0  -94.62   40.23
  10  -6   0   34.17   48.53
  10  -6   0   30.40   12.88
   9  -6   0    9.74   24.64
   9  -6   0   24.87   12.48
   9  -6   0   54.27   13.90
   9  -6   0   94.00   51.33
   9  -6   0   22.41   72.54
   8  -6   0  578.55  127.95
   8  -6   0  572.65  108.39
   8  -6   0  517.65  159.02
   8  -6   0  559.62  108.08
   7  -6   0  348.46  106.31
   7  -6   0  367.10   66.78
   7  -6   0  283.80   80.78
   7  -6   0  339.18   66.56
   6  -6   0   12.59   67.99
   6  -6   0   16.74   33.85
   6  -6   0   46.56   24.05
   5  -6   0  147.32   48.62
   5  -6   0    6.79   81.55
   5  -6   0  126.32   34.45
   4  -6   0  166.42   55.23
   4  -6   0   89.27  106.61
   4  -6   0  167.71   41.06
   3  -6   0  277.55   59.63
   3  -6   0  200.55   73.59
   2  -6   0   87.76   22.34
   2  -6   0  -42.35   74.32
   2  -6   0   34.20   29.64
   1  -6   0 1720.98  351.49
   1  -6   0 1612.41  424.31
   0  -6   0 1083.64  229.20
  -1  -6   0    8.57   13.05
  -2  -6   0  183.45   41.67
  -2  -6   0  166.73   30.68
  -3  -6   0  224.98   52.42
  -5  -6   0   49.73   19.10
  -5  -6   0   24.90   17.76
  -5  -6   0 -127.27  160.38
  -6  -6   0  -59.15   91.33
  -6  -6   0  -25.31   19.18
  -6  -6   0   34.26   18.08
  -7  -6   0   94.65   27.22
  -7  -6   0  -31.55  229.62
  -7  -6   0    3.25  100.56
  -7  -6   0  102.24   32.21
  -8  -6   0  -68.34  236.64
  -8  -6   0  -20.88   26.06
  -8  -6   0    0.52  141.01
  -9  -6   0  137.51  300.74
  -9  -6   0  109.58   42.32
  -9  -6   0   50.39  129.06
 -10  -6   0 -129.08  307.63
 -10  -6   0   24.20  156.35
 -10  -6   0   60.79   39.83
  12  -7   0   -1.70   10.33
  12  -7   0  -12.01   55.04
  11  -7   0  153.77   31.27
  11  -7   0  114.32   71.38
  11  -7   0  123.39   28.94
  10  -7   0   33.42   13.36
  10  -7   0   45.02   12.50
  10  -7   0  106.28   56.92
   9  -7   0  111.48   63.97
   9  -7   0  122.99   25.60
   9  -7   0  128.62   25.30
   9  -7   0  196.33   47.09
   9  -7   0   36.01   91.25
   8  -7   0  477.59  135.97
   8  -7   0  425.47  104.48
   7  -7   0   22.88   77.13
   7  -7   0   48.10   44.77
   7  -7   0    3.36   24.51
   6  -7   0  290.80   68.60
   6  -7   0  -22.36   98.11
   6  -7   0  213.26   45.22
   5  -7   0    8.87   75.40
   5  -7   0   -6.55   34.45
   5  -7   0   15.05   20.54
   4  -7   0  189.15   40.07
   4  -7   0  263.39   60.31
   4  -7   0  -32.46   85.90
   3  -7   0  412.24   83.43
   3  -7   0  293.73  102.95
   2  -7   0  621.27  130.90
   2  -7   0  550.43  158.15
   1  -7   0  318.98   82.60
   1  -7   0  253.91   64.96
   0  -7   0  126.14   34.67
  -1  -7   0   37.27   19.63
  -2  -7   0  158.20   40.28
  -3  -7   0  974.71  174.84
  -3  -7   0 1025.12  210.13
  -4  -7   0  358.51   81.12
  -5  -7   0 -110.67  172.83
  -5  -7   0  -11.26   15.93
  -6  -7   0   22.25   19.74
  -6  -7   0   18.81  178.96
  -7  -7   0  -20.64  231.41
  -7  -7   0   70.80   26.09
  -8  -7   0  117.18   32.88
  -8  -7   0   33.81  237.62
  -9  -7   0  -82.01  270.95
  -9  -7   0   -5.43   24.97
 -10  -7   0  154.44  343.49
  12  -8   0  -57.10   59.15
  11  -8   0   42.19   64.86
  10  -8   0   11.18   25.60
  10  -8   0  -39.35   46.26
   9  -8   0  218.61   86.49
   9  -8   0  120.65  131.88
   9  -8   0  256.33   59.82
   8  -8   0  -32.27   90.43
   8  -8   0  134.65   37.08
   8  -8   0  163.20   65.43
   7  -8   0   18.81   90.94
   7  -8   0   76.54   50.42
   7  -8   0   16.53   27.34
   6  -8   0   34.28   93.97
   6  -8   0  -29.34   21.60
   6  -8   0  -30.11   39.30
   5  -8   0  -66.27   79.13
   5  -8   0   94.87   32.60
   5  -8   0  147.91   49.99
   4  -8   0  650.00  144.60
   4  -8   0  639.57  177.38
   3  -8   0   71.49   38.34
   3  -8   0   58.43   28.12
   2  -8   0  269.44   79.14
   2  -8   0  249.85   62.88
   1  -8   0   16.41   26.25
   1  -8   0   38.00   20.32
   0  -8   0  411.38   93.69
  -1  -8   0  376.46   86.06
  -2  -8   0    2.25   18.12
  -3  -8   0  822.24  176.79
  -4  -8   0   11.31   18.66
  -5  -8   0   34.57   21.68
  -6  -8   0   86.69  204.55
  -6  -8   0    1.66   18.01
  -7  -8   0    8.00  224.38
  -8  -8   0   86.25  262.05
  -9  -8   0  315.38  384.90
  12  -9   0  113.87   84.22
  11  -9   0   69.03   69.00
  10  -9   0   73.72   70.06
  10  -9   0   49.65   35.64
   9  -9   0  221.91   92.39
   9  -9   0  178.70   56.07
   8  -9   0    0.50  100.92
   8  -9   0  -30.24   50.36
   8  -9   0  -42.07   23.04
   7  -9   0  -43.90   91.32
   7  -9   0   12.92   28.31
   7  -9   0   86.69   55.33
   6  -9   0    2.61  102.22
   6  -9   0   13.33   26.30
   6  -9   0   53.62   46.89
   5  -9   0  223.17   78.88
   5  -9   0  208.15   59.41
   4  -9   0  653.49  186.59
   4  -9   0  704.41  153.53
   3  -9   0    6.78   29.49
   3  -9   0  -24.13   20.30
   2  -9   0   -3.49   27.17
   2  -9   0   42.68   23.65
   1  -9   0  359.04   85.77
   0  -9   0  856.77  185.08
  -1  -9   0   13.62   21.57
  -2  -9   0  182.81   49.26
  -3  -9   0   87.45   31.28
  -4  -9   0   12.90   20.87
  -5  -9   0   22.53   23.10
  -6  -9   0   70.91   30.50
  11 -10   0   62.65   43.17
  11 -10   0   44.71   75.44
  10 -10   0   24.74   34.80
  10 -10   0  -22.28   56.81
   9 -10   0   48.99   63.69
   9 -10   0  -63.30   28.56
   8 -10   0  107.83   45.87
   8 -10   0  194.16   76.77
   7 -10   0   61.02   36.53
   7 -10   0  105.28   57.49
   6 -10   0  103.92   58.06
   6 -10   0  133.70   45.23
   5 -10   0  384.02   92.33
   5 -10   0  358.65  113.56
   4 -10   0   89.07   45.69
   4 -10   0   64.41   36.47
   3 -10   0   56.56   36.28
   3 -10   0    8.02   27.92
   2 -10   0   -5.97   23.26
   2 -10   0  -17.24   26.15
   1 -10   0  967.34  210.45
   0 -10   0  747.64  166.02
  -1 -10   0   33.63   24.51
  -2 -10   0  121.18   40.65
  -3 -10   0    8.79   21.06
  -4 -10   0  123.48   41.18
  -5 -10   0   47.30   31.06
  10 -11   0   20.47   37.43
   9 -11   0  109.32   47.61
   8 -11   0  250.20   74.79
   8 -11   0  259.68  101.99
   7 -11   0  101.51   76.53
   7 -11   0  268.07   63.41
   6 -11   0  104.43   45.34
   6 -11   0  130.10   62.02
   5 -11   0  141.30   52.09
   5 -11   0  194.88   67.55
   4 -11   0  -18.96   33.54
   4 -11   0  -39.67   26.96
   3 -11   0  128.75   43.18
   3 -11   0   86.87   44.17
   2 -11   0   80.70   35.52
   1 -11   0  482.48  114.47
   0 -11   0  145.19   47.65
  -1 -11   0   20.60   27.25
  -2 -11   0  -47.22   22.86
  -3 -11   0  -12.99   26.09
  -4 -11   0   89.73   37.32
   9 -12   0   20.61   38.97
   8 -12   0   62.07   42.38
   7 -12   0  -54.51   31.67
   6 -12   0   -9.16   37.65
   5 -12   0   36.62   36.52
   4 -12   0  211.06   65.04
   3 -12   0   -8.85   31.69
   2 -12   0  157.12   53.12
   1 -12   0  162.86   53.47
   0 -12   0   86.16   40.28
  -1 -12   0   49.80   32.93
  -2 -12   0   93.47   40.05
  -3 -12   0  583.55  136.36
  -4 -12   0  112.22   46.13
   7 -13   0  -17.08   38.59
   6 -13   0  -13.53   36.98
   5 -13   0  166.49   60.65
   4 -13   0  348.21   92.86
   3 -13   0   47.68   41.12
   2 -13   0   86.27   41.35
   1 -13   0   25.61   37.16
   0 -13   0   12.55   34.59
  -1 -13   0   57.17   39.04
  -2 -13   0   18.72   35.18
   3 -14   0   -1.52   36.00
   2 -14   0   65.68   46.37
   1 -14   1  119.99   52.30
   2 -14   1  108.57   49.68
   3 -14   1  -29.62   35.63
   4 -14   1  178.43   63.76
   5 -14   1  220.74   72.53
  -2 -13   1  151.45   52.35
  -1 -13   1   53.88   36.58
   0 -13   1  138.70   48.84
   1 -13   1   16.70   30.62
   2 -13   1  -13.05   32.31
   3 -13   1  -24.11   32.15
   4 -13   1  143.25   54.36
   5 -13   1   51.99   42.34
   6 -13   1   35.59   40.57
   7 -13   1   39.26   41.06
  -4 -12   1  556.62  129.93
  -3 -12   1  125.69   46.17
  -2 -12   1   91.19   36.40
  -1 -12   1  -13.91   26.18
   0 -12   1   -2.89   27.43
   1 -12   1  447.21  107.33
   2 -12   1  177.08   54.78
   3 -12   1  219.41   64.71
   4 -12   1  338.96   89.43
   5 -12   1   -6.49   29.93
   6 -12   1   48.45   41.34
   7 -12   1  -48.38   25.21
   8 -12   1  144.20   55.82
   9 -12   1  101.91   48.91
  -5 -11   1    9.37   29.17
  -4 -11   1  332.62   82.81
  -3 -11   1  529.63  122.31
  -2 -11   1    0.88   24.34
  -1 -11   1  -13.89   24.12
   0 -11   1   47.56   31.05
   1 -11   1  244.01   65.67
   2 -11   1  128.45   45.27
   3 -11   1   21.94   28.35
   3 -11   1    8.88   27.14
   4 -11   1    9.99   28.83
   4 -11   1   37.46   36.96
   5 -11   1  185.71   57.90
   6 -11   1   86.41   41.17
   7 -11   1  210.97   61.65
   8 -11   1  138.05   51.89
   9 -11   1  -26.00   31.15
  10 -11   1    6.32   33.11
  -6 -10   1   81.83   34.35
  -5 -10   1  371.61   89.00
  -4 -10   1  280.28   69.69
  -3 -10   1  -13.18   20.05
  -2 -10   1   83.62   33.35
  -1 -10   1  128.66   40.76
   0 -10   1  555.05  126.19
   1 -10   1  238.45   61.12
   2 -10   1  139.46   40.10
   2 -10   1   20.83   27.60
   3 -10   1  173.00   56.33
   3 -10   1  231.41   66.89
   4 -10   1   47.64   32.68
   4 -10   1   98.61   42.83
   5 -10   1  569.51  162.59
   5 -10   1  610.87  137.13
   6 -10   1   25.11   33.16
   6 -10   1    2.38   39.27
   7 -10   1  252.10   67.41
   7 -10   1  210.89   83.65
   8 -10   1   57.22   42.24
   8 -10   1  227.51   73.34
   9 -10   1   -9.12   55.76
   9 -10   1  -39.84   26.36
  10 -10   1    6.64   60.86
  10 -10   1  -28.99   29.64
  11 -10   1  -15.19   31.81
  11 -10   1   97.95   79.19
  -6  -9   1   50.55   26.45
  -5  -9   1   18.93   20.00
  -4  -9   1  250.22   61.31
  -3  -9   1   26.89   21.27
  -2  -9   1  158.69   43.79
  -1  -9   1  -16.49   16.45
   0  -9   1  282.05   68.79
   1  -9   1   22.79   21.69
   2  -9   1   57.68   27.17
   2  -9   1   67.20   33.23
   3  -9   1   78.30   27.52
   3  -9   1   -3.43   26.87
   4  -9   1  715.10  161.79
   4  -9   1  492.16  128.94
   5  -9   1  400.27  115.49
   5  -9   1  371.99   92.38
   6  -9   1  -34.04   24.17
   6  -9   1   49.24   40.79
   7  -9   1  130.19   63.50
   7  -9   1  123.77   43.33
   8  -9   1  -49.85   46.90
   8  -9   1   -9.03   24.76
   9  -9   1   81.92   43.85
   9  -9   1  180.03   74.71
  10  -9   1  -14.37   50.82
  10  -9   1    5.01   28.56
  11  -9   1  246.28  101.19
  12  -9   1   37.37   60.68
  -9  -8   1  134.13  290.40
  -8  -8   1  105.88  248.82
  -7  -8   1  134.85  262.36
  -7  -8   1  218.09   53.67
  -6  -8   1   60.05   25.85
  -6  -8   1   97.75  211.06
  -5  -8   1    6.52   18.32
  -4  -8   1  502.10  111.92
  -3  -8   1  688.00  148.51
  -2  -8   1   32.11   18.91
  -1  -8   1  535.04  119.10
   0  -8   1  189.19   48.53
   1  -8   1  275.03   65.92
   2  -8   1  165.46   47.97
   2  -8   1  201.01   58.82
   3  -8   1  119.44   44.04
   3  -8   1  261.43   60.99
   4  -8   1 1229.25  238.10
   4  -8   1  994.47  286.32
   5  -8   1  104.76   37.41
   5  -8   1  111.30   52.27
   6  -8   1  395.86  107.76
   6  -8   1  312.92   83.97
   7  -8   1   64.57   43.55
   7  -8   1   35.68   28.36
   8  -8   1  176.31   54.43
   8  -8   1  202.37   75.08
   9  -8   1  169.79   51.26
   9  -8   1  163.68   75.10
  10  -8   1   26.17    7.45
  10  -8   1   42.98   30.42
  10  -8   1   -1.49    7.70
  10  -8   1   50.40   56.54
  11  -8   1   83.21   19.21
  11  -8   1   71.03   17.16
  11  -8   1    1.68   59.37
  12  -8   1   51.78   66.01
  12  -8   1    8.73    9.76
 -10  -7   1   13.50   39.64
 -10  -7   1  -34.25  295.93
  -9  -7   1  -67.57  288.82
  -9  -7   1  117.51   39.67
  -9  -7   1   -0.09  142.87
  -8  -7   1  198.40  153.61
  -8  -7   1   67.75  297.22
  -8  -7   1  141.59   58.38
  -8  -7   1  439.89   65.83
  -7  -7   1   66.93   24.70
  -7  -7   1   36.69   26.40
  -7  -7   1  -66.89  183.40
  -7  -7   1   79.76  120.25
  -6  -7   1   10.70   18.13
  -6  -7   1   79.84  134.02
  -6  -7   1   30.32   21.42
  -6  -7   1   -6.57  167.55
  -5  -7   1  -11.28  151.54
  -5  -7   1    0.88   14.95
  -4  -7   1  530.95  116.94
  -3  -7   1  918.67  208.40
  -3  -7   1 1011.77  174.05
  -2  -7   1  300.04   52.96
  -2  -7   1  274.89   67.26
  -1  -7   1  157.13   40.26
   0  -7   1   31.18   18.16
   1  -7   1  600.00  145.39
   1  -7   1  503.70  121.38
   2  -7   1   39.24   27.98
   2  -7   1   57.09   21.40
   3  -7   1  580.73  122.99
   3  -7   1  517.39  148.08
   4  -7   1  403.51  101.65
   4  -7   1  520.03  127.30
   5  -7   1   36.12   33.94
   5  -7   1   33.37   23.56
   5  -7   1   20.88   75.56
   6  -7   1  148.88   34.63
   6  -7   1  -19.73   70.87
   7  -7   1   50.57   85.55
   7  -7   1   95.67   19.52
   7  -7   1   44.78   32.63
   7  -7   1   43.94   45.82
   7  -7   1  103.11   19.28
   8  -7   1  551.88  124.73
   8  -7   1  425.72   76.12
   8  -7   1  310.97   91.10
   8  -7   1  366.89   75.65
   9  -7   1   16.07   42.92
   9  -7   1   17.75    9.57
   9  -7   1   13.43   10.42
   9  -7   1   19.44   23.98
  10  -7   1   82.11   20.05
  10  -7   1   74.44   55.19
  11  -7   1   58.17   56.53
  11  -7   1    7.92   10.65
  12  -7   1  116.15   26.52
  12  -7   1   51.63   64.15
 -10  -6   1  -14.61  132.05
 -10  -6   1  -58.00  344.73
 -10  -6   1  105.72   42.98
  -9  -6   1  -12.92   33.90
  -9  -6   1  173.12  266.05
  -8  -6   1   10.70   18.05
  -8  -6   1  -13.57   26.87
  -8  -6   1  -15.96  218.71
  -7  -6   1 -240.19  178.22
  -7  -6   1  100.29   26.40
  -7  -6   1   88.72   34.01
  -6  -6   1  184.99   44.43
  -6  -6   1  195.95   41.52
  -6  -6   1   -5.87  198.06
  -5  -6   1  304.16   47.10
  -5  -6   1  133.68   43.22
  -5  -6   1   -8.97  188.22
  -5  -6   1  325.02  140.58
  -4  -6   1  528.59  141.33
  -4  -6   1  193.73   36.87
  -4  -6   1   16.62  157.99
  -3  -6   1   75.08   22.98
  -2  -6   1  105.85   28.12
  -2  -6   1  104.51   20.15
  -1  -6   1   24.95   14.13
  -1  -6   1   14.77    5.18
   0  -6   1 1735.94  301.12
   0  -6   1 1646.93  358.56
   1  -6   1  626.70  149.11
   1  -6   1  727.38  123.69
   1  -6   1  688.80  179.87
   2  -6   1   63.87   28.28
   2  -6   1   40.76   10.02
   2  -6   1   22.25   17.63
   3  -6   1  469.44  122.72
   3  -6   1  429.39   99.75
   4  -6   1   19.39   20.19
   4  -6   1   24.69   74.11
   4  -6   1   60.27   32.91
   5  -6   1  594.89  136.99
   5  -6   1  487.05   92.74
   5  -6   1  477.92   92.70
   5  -6   1  502.05  110.14
   6  -6   1  -47.26   58.82
   6  -6   1    0.72   30.27
   6  -6   1    1.21    6.34
   6  -6   1  -26.41   16.99
   6  -6   1   -2.09    5.74
   7  -6   1  304.51   70.65
   7  -6   1  417.92   71.48
   7  -6   1  506.45  113.13
   7  -6   1  379.21   85.81
   8  -6   1  660.80  192.04
   8  -6   1  724.57  135.09
   8  -6   1  686.02  134.58
   8  -6   1  721.07  156.86
   9  -6   1   -9.17    9.13
   9  -6   1   14.78   23.79
   9  -6   1   44.82   41.24
  10  -6   1   14.86   12.53
  10  -6   1   39.16   44.37
  11  -6   1  -88.36   34.63
  11  -6   1   -7.05   11.49
  12  -6   1  113.52   72.53
  12  -6   1  188.60   39.42
  13  -6   1   33.41   63.76
 -11  -5   1  100.46   43.23
 -11  -5   1 -190.76  396.39
 -10  -5   1    2.12   31.36
 -10  -5   1 -294.05  330.42
  -9  -5   1  136.33   37.89
  -9  -5   1   92.08   39.84
  -9  -5   1 -159.14  360.55
  -8  -5   1  -18.56   22.96
  -8  -5   1   18.85   19.77
  -8  -5   1 -134.33  244.11
  -7  -5   1  342.46   48.09
  -7  -5   1 -360.26  260.00
  -6  -5   1  -79.21  187.62
  -6  -5   1  103.93   26.28
  -6  -5   1   92.37   31.29
   5   5  -1  162.84   32.22
  -5  -5   1  129.67   38.03
  -5  -5   1  162.00   36.62
  -5  -5   1   37.62  172.39
   4   5  -1  359.04   69.64
  -4  -5   1  403.80   77.79
  -4  -5   1  263.85   73.01
  -3  -5   1   51.88   14.47
  -3  -5   1  -21.38   15.52
  -3  -5   1  100.80   69.23
  -3  -5   1   13.46   83.48
  -2  -5   1  175.67   41.37
  -1  -5   1  135.31   33.19
  -1  -5   1  130.33   24.33
   0  -5   1 2648.29  464.82
   0  -5   1 2617.29  551.42
   1  -5   1 1867.76  471.59
   1  -5   1 1917.97  391.55
   1  -5   1 1836.83  329.43
   2  -5   1   36.34   24.07
   2  -5   1   28.80    8.56
   2  -5   1   20.70    7.54
   2  -5   1    8.78   14.70
   3  -5   1   -7.45    7.12
   3  -5   1    3.96   13.19
   3  -5   1   -7.73   62.52
   3  -5   1   -7.10    5.83
   3  -5   1  -38.01   20.09
   4  -5   1  634.76  113.51
   4  -5   1  577.45  109.82
   4  -5   1  558.06  113.35
   4  -5   1  626.54  129.67
   4  -5   1  635.47  160.11
  -5   5  -1  462.02   83.80
   5  -5   1  417.58   82.26
   5  -5   1  451.61  119.11
   5  -5   1  419.47   82.29
   5  -5   1  453.78   96.75
   5  -5   1  406.76   80.43
  -6   5  -1   28.26   10.90
   6  -5   1   -5.05   18.52
   6  -5   1   33.49   30.56
   6  -5   1   38.28   13.63
   6  -5   1   57.29   60.89
   6  -5   1    7.89    8.87
   6  -5   1   33.00    9.83
  -7   5  -1  649.21  122.44
   7  -5   1  650.60  172.41
   7  -5   1  628.91  121.27
   7  -5   1  654.53  121.55
   7  -5   1  537.89  138.31
   8  -5   1   17.92   63.06
   8  -5   1   82.15   20.69
   8  -5   1  102.06   44.45
   8  -5   1   61.60   27.78
   8  -5   1  103.34   21.11
   9  -5   1    6.80   39.10
   9  -5   1   50.35   15.55
  10  -5   1   -7.60   10.81
  10  -5   1  -43.02   32.65
  11  -5   1  229.48   54.40
  11  -5   1  380.19   94.27
  12  -5   1  127.88   32.01
  12  -5   1  138.93   69.54
  13  -5   1   -1.30   15.13
  13  -5   1   -4.24   54.87
 -12  -4   1  -90.04  576.43
 -11  -4   1   27.48   31.03
 -10  -4   1   36.12  422.79
 -10  -4   1    5.27   26.31
 -10  -4   1   30.35   29.82
  -9  -4   1   86.99  309.80
  -9  -4   1   15.83   21.34
  -9  -4   1   -8.55   20.88
  -8  -4   1  315.24   58.58
  -8  -4   1  208.15  354.74
  -8  -4   1  156.60   52.21
   7   4  -1  516.35  107.04
  -7  -4   1  497.76  110.61
  -7  -4   1  323.03  497.17
  -7  -4   1  715.02  122.28
   6   4  -1    2.87    8.98
  -6  -4   1    4.10   16.21
  -6  -4   1   -9.66   13.14
  -6  -4   1 -144.32  192.59
   5   4  -1  283.62   56.34
  -5  -4   1  335.50   63.14
  -5  -4   1  301.69   60.32
  -5  -4   1   66.87  245.84
   4   4  -1  102.70   20.46
  -4  -4   1   85.46   25.81
  -4  -4   1  -10.17  110.77
  -4  -4   1   97.92   23.12
   3   4  -1  437.07   77.75
  -3  -4   1  362.79   81.22
  -3  -4   1  378.42   86.32
  -2  -4   1    3.98   13.69
  -2  -4   1   28.28   10.88
  -2  -4   1  -31.60   80.57
  -1  -4   1 1216.15  263.65
  -1  -4   1 1279.64  221.80
   0  -4   1  452.11   95.99
   0  -4   1  444.86   79.35
   1  -4   1   -8.45   16.52
   1  -4   1    6.56    5.22
   1  -4   1    0.75    4.70
   1  -4   1   14.59   11.87
   2  -4   1   -2.80    6.18
   2  -4   1   18.14   11.57
   2  -4   1    0.41    5.60
   2  -4   1   -0.45    2.07
   2  -4   1   18.41   57.33
   2  -4   1  -32.85   19.78
   2  -4   1    0.34    2.28
   3  -4   1  507.26   95.48
   3  -4   1  529.28  133.15
   3  -4   1  507.27   89.97
   3  -4   1  538.37   92.35
   3  -4   1  504.65  108.63
   3  -4   1  463.64   95.35
  -4   4  -1 1911.36  356.77
   4  -4   1 1906.71  477.25
   4  -4   1 1795.84  356.30
   4  -4   1 1912.33  395.78
   4  -4   1 1867.17  341.49
   4  -4   1 1933.23  356.42
  -5   4  -1  747.63  148.75
   5  -4   1  789.24  142.93
   5  -4   1  820.19  148.49
   5  -4   1  763.10  201.40
   5  -4   1  839.65  166.76
   5  -4   1  734.45  148.21
  -6   4  -1  170.24   33.16
   6  -4   1  149.37   32.55
   6  -4   1  203.25   41.84
   6  -4   1  152.30   31.91
   6  -4   1   26.90   79.66
   6  -4   1  192.31   32.63
  -7   4  -1  464.13   91.46
   7  -4   1  470.23   90.98
   7  -4   1  468.67   90.76
   7  -4   1  479.91  105.16
   7  -4   1  448.96   88.83
  -8   4  -1    6.17   12.10
   8  -4   1   -1.70   38.32
   8  -4   1   30.74   12.30
  -9   4  -1   85.20   28.91
   9  -4   1  138.52   28.53
  10  -4   1   -4.18   12.11
  11  -4   1  209.10   46.21
  12  -4   1   96.93   29.60
  12  -4   1  199.21   67.48
  13  -4   1   -1.03   16.61
  13  -4   1   -3.23   47.90
 -12  -3   1   31.99   29.34
 -12  -3   1 -194.65  541.08
 -11  -3   1 -119.93  469.16
 -11  -3   1  -20.25   22.25
 -10  -3   1  351.48  472.76
 -10  -3   1  264.20   58.88
 -10  -3   1  179.53   51.33
   9   3  -1   47.79   17.41
  -9  -3   1   97.18  361.35
  -9  -3   1   31.70   21.16
   8   3  -1  809.89  159.75
  -8  -3   1  953.11  710.50
   7   3  -1  158.94   31.36
  -7  -3   1  110.14   31.46
  -7  -3   1   16.78  287.69
   6   3  -1   40.74   12.78
  -6  -3   1  -71.98  203.35
  -6  -3   1   17.41   14.12
   5   3  -1   49.83   13.14
  -5  -3   1  -51.99  140.88
  -5  -3   1   30.31   14.58
   4   3  -1  880.34  165.87
  -4  -3   1  848.71  183.25
  -4  -3   1  882.56  166.88
   3   3  -1  578.26  110.27
  -3  -3   1  533.82  111.73
  -3  -3   1  601.46  122.00
   2   3  -1   10.11    6.06
  -2  -3   1   -9.22   12.44
  -2  -3   1   41.93   75.17
  -2  -3   1   -2.36    7.70
  -1  -3   1  827.09  145.18
  -1  -3   1  811.26  172.54
   0   3  -1 1266.76  233.17
   0  -3   1 1325.90  228.15
   0  -3   1 1257.79  233.18
   0  -3   1 1339.74  270.77
   1  -3   1 1176.15  222.99
   1  -3   1 1187.73  247.68
   1  -3   1 1154.66  213.49
   1  -3   1 1200.96  208.76
   1  -3   1 1196.22  298.67
   2  -3   1  176.54   36.69
   2  -3   1    3.34   83.00
   2  -3   1  146.11   29.96
   2  -3   1  171.83   45.40
   2  -3   1  165.43   30.34
   2  -3   1  169.12   29.14
  -3   3  -1  483.84   97.57
   3  -3   1  474.95  109.66
   3  -3   1  535.21   97.53
   3  -3   1  556.71  132.70
   3  -3   1  561.16   91.67
   3  -3   1  457.80   93.82
  -4   3  -1  901.66  165.52
   4  -3   1  903.11  165.36
   4  -3   1  872.17  184.23
   4  -3   1  783.92  158.56
  -5   3  -1  142.97   27.91
   5  -3   1   18.25   66.86
   5  -3   1  160.24   34.48
   5  -3   1  168.02   28.24
   5  -3   1  148.92   28.20
  -6   3  -1  347.56   68.31
   6  -3   1  320.46   67.34
   6  -3   1  328.26   65.87
   6  -3   1  389.95   78.23
   6  -3   1  335.37   66.77
  -7   3  -1    9.05   10.24
   7  -3   1   27.51   12.81
   7  -3   1   -2.73    9.08
   7  -3   1  -11.56    7.93
   7  -3   1   21.68   32.98
  -8   3  -1  272.25   57.58
   8  -3   1  267.76   55.67
  -9   3  -1   60.69   22.94
   9  -3   1   81.56   21.46
 -10   3  -1   98.90   33.61
  10  -3   1  171.26   33.75
  11  -3   1   96.62   26.58
  12  -3   1   54.24   21.20
  13  -3   1   16.75   17.48
 -12  -2   1  858.59  934.63
  11   2  -1  151.13   37.58
 -11  -2   1  166.45   41.32
 -11  -2   1 -114.68  501.22
  10   2  -1   92.00   22.91
 -10  -2   1 -417.37  540.75
 -10  -2   1   38.08   23.73
   9   2  -1   -5.59   12.90
  -9  -2   1   -8.08   14.74
   8   2  -1  420.82   92.70
  -8  -2   1  531.54   94.80
   7   2  -1   43.92   14.70
  -7  -2   1   33.05   15.38
   6   2  -1   62.93   16.09
  -6  -2   1   45.66   15.95
   5   2  -1  557.42  105.55
  -5  -2   1  535.36  105.77
   4   2  -1 2762.68  516.69
  -4  -2   1 2699.96  516.89
   3   2  -1 1323.09  245.33
  -3  -2   1 1268.75  951.51
  -3  -2   1 1269.84  245.64
   2   2  -1   -5.19    5.72
  -2  -2   1    7.76    7.98
  -2  -2   1    4.68    9.08
  -2  -2   1   -8.49   76.10
   1   2  -1   27.40    6.46
  -1  -2   1   14.29    6.18
  -1  -2   1   19.90    8.46
  -1  -2   1    6.63   51.32
  -1  -2   1   29.69   12.21
   0   2  -1   -3.50    8.02
   0   2  -1    2.19    3.32
   0   2  -1    0.06    2.98
   0  -2   1    1.91    3.18
   0  -2   1   20.83    7.37
   0  -2   1    6.06    3.68
   0  -2   1    5.69   22.93
   0  -2   1    8.73    3.31
  -1   2  -1 1505.35  295.66
   1  -2   1 1613.31  327.12
   1  -2   1 1729.69  295.65
   1  -2   1 1543.87  276.30
   1  -2   1 1516.76  393.62
   1  -2   1 1483.62  282.63
  -2   2  -1  380.07   70.04
   2  -2   1  362.77   67.30
   2  -2   1  360.63   65.74
   2  -2   1  356.80   69.94
   2  -2   1  363.88   78.61
  -3   2  -1  734.82  136.31
   3  -2   1  721.45  151.53
   3  -2   1  734.17  136.20
   3  -2   1  714.48  127.57
   3  -2   1  662.59  130.67
  -4   2  -1 1136.98  218.13
   4  -2   1 1208.24  218.10
   4  -2   1 1109.39  208.79
   4  -2   1 1128.52  241.52
  -5   2  -1  157.69   31.44
   5  -2   1   56.13   71.89
   5  -2   1  194.51   37.30
   5  -2   1  250.77   33.21
  -6   2  -1   59.34   16.26
   6  -2   1   12.64   36.81
   6  -2   1   82.55   16.29
  -7   2  -1  401.12   80.23
   7  -2   1  399.62   78.32
   7  -2   1  391.74   76.85
  -8   2  -1  839.82  171.70
   8  -2   1  933.97  171.16
  -9   2  -1   13.16   15.48
   9  -2   1   21.74   13.50
 -10   2  -1   60.01   24.95
  10  -2   1   90.48   24.04
 -11   2  -1  -18.24   18.32
  11  -2   1   66.01   18.51
 -12   2  -1   23.44   25.31
  12  -2   1  116.01   26.44
  13  -2   1   73.05   26.48
 -13  -1   1  585.94 1026.01
  12   1  -1   44.29   19.35
 -12  -1   1   10.21   22.20
  11   1  -1  234.25   53.97
 -11  -1   1  264.32   56.94
  10   1  -1   22.77   14.67
 -10  -1   1  -32.07   13.12
   9   1  -1  129.06   29.71
  -9  -1   1  112.60   30.91
   8   1  -1   -7.23   10.76
  -8  -1   1   23.27   13.75
   7   1  -1  410.93   86.02
  -7  -1   1  470.18   86.72
   6   1  -1  125.46   27.97
  -6  -1   1  119.29   28.77
   5   1  -1 2321.60  417.61
  -5  -1   1 2085.76  417.68
   4   1  -1 3460.59  646.50
  -4  -1   1 3378.98  646.66
   3   1  -1 1835.67  360.46
  -3  -1   1 1980.11  360.64
   2   1  -1  408.31   77.51
  -2  -1   1  385.96   77.56
  -2  -1   1  415.26   77.52
   1   1  -1    1.53    3.63
  -1  -1   1   -2.75    5.33
  -1  -1   1   -3.33    3.34
   0   1  -1 1098.22  199.15
   0   1  -1  977.37  208.39
   0  -1   1 1088.33  199.15
   0  -1   1 1178.80  230.28
   0  -1   1 1206.45  208.43
   0  -1   1 1082.99  194.69
  -1   1  -1  253.19   51.13
   1  -1   1  270.74   56.75
   1  -1   1  267.47   51.17
   1  -1   1  277.38   49.07
   1  -1   1  273.80   48.00
  -2   1  -1  536.13  104.81
   2  -1   1  517.90  115.99
   2  -1   1  565.88   98.07
   2  -1   1  564.45  100.44
   2  -1   1  564.98  104.88
  -3   1  -1 1554.91  281.09
   3  -1   1 1480.61  268.80
   3  -1   1 1437.68  262.63
   3  -1   1 1462.26  310.54
  -4   1  -1   41.28   14.60
   4  -1   1   25.02   14.42
   4  -1   1  121.94   38.27
  -5   1  -1  332.39   64.62
   5  -1   1  312.40   61.66
  -6   1  -1   -5.10    9.73
   6  -1   1   37.26   30.29
   6  -1   1  -21.71    6.86
  -7   1  -1  640.73  131.23
   7  -1   1  718.03  125.82
  -8   1  -1  150.98   32.78
   8  -1   1  117.70   30.14
  -9   1  -1   50.62   17.31
   9  -1   1    3.38   12.39
 -10   1  -1   34.77   20.47
  10  -1   1   36.31   17.07
 -11   1  -1  114.18   31.32
  11  -1   1   95.96   28.69
 -12   1  -1  121.86   36.74
  12  -1   1  135.14   34.34
 -13   1  -1   25.08   23.59
  13  -1   1   24.90   19.74
  13   0  -1   68.37   23.32
 -13   0   1    3.74   23.61
  12   0  -1  312.30   69.24
 -12   0   1  346.91   72.36
  11   0  -1  142.82   33.36
 -11   0   1  101.76   33.32
  10   0  -1    5.98   12.85
 -10   0   1    1.44   15.03
   9   0  -1  142.51   33.67
  -9   0   1  140.32   35.04
   8   0  -1   26.15   13.03
  -8   0   1   17.91   14.19
   7   0  -1  450.73   88.79
  -7   0   1  456.81   89.62
   6   0  -1   -6.99    8.51
  -6   0   1   -0.56    8.98
   5   0  -1  804.42  141.57
  -5   0   1  673.21  141.55
   4   0  -1  942.77  184.44
  -4   0   1 1000.07  184.74
   3   0  -1  159.93   35.95
  -3   0   1  210.89   36.81
   2   0  -1  669.06  128.35
   2   0  -1  709.83  128.53
  -2   0   1  649.10  128.46
   1   0  -1 1369.59  376.44
   1   0  -1 1520.35  282.48
   1   0  -1 1497.59  282.42
  -1   0   1 1568.62  282.49
   0   0   1  204.28   34.83
   0   0   1  184.47   35.64
  -1   0  -1  218.20   40.64
   1   0   1  199.39   38.97
   1   0   1  216.52   38.02
  -2   0  -1 2665.01  480.77
   2   0   1 2454.04  459.40
   2   0   1 2520.14  449.03
  -3   0  -1  200.20   43.90
   3   0   1  246.02   42.68
  -4   0  -1 1532.96  285.98
   4   0   1 1481.61  273.26
  -5   0  -1   84.38   21.74
   5   0   1   94.86   20.98
  -6   0  -1  204.54   41.73
   6   0   1  189.13   39.67
  -7   0  -1 1046.07  198.15
   7   0   1 1019.97  189.33
  -8   0  -1  193.49   42.00
   8   0   1  183.50   40.88
  -9   0  -1  186.34   45.10
   9   0   1  214.29   44.80
 -10   0  -1   -1.95   15.01
  10   0   1    5.76   13.91
 -11   0  -1  187.63   50.28
  11   0   1  252.18   50.08
 -12   0  -1  115.16   43.53
  12   0   1  265.96   45.48
 -13   0  -1 1236.36 1442.56
  13  -1  -1   50.15   21.76
  12  -1  -1  209.71   52.24
 -12   1   1  274.93   56.08
  11  -1  -1   22.56   16.16
 -11   1   1    5.40   17.53
  10  -1  -1   53.36   20.78
 -10   1   1   95.92   24.97
   9  -1  -1  129.05   60.37
   9  -1  -1  -12.35   11.36
  -9   1   1   48.84   16.27
   8  -1  -1  819.77  163.58
  -8   1   1  889.36  164.54
   7  -1  -1  729.01  134.70
  -7   1   1  664.77  135.10
   6  -1  -1  470.67  124.69
   6  -1  -1  158.68   39.98
  -6   1   1  182.39   41.34
   5  -1  -1  139.93   34.66
   5  -1  -1  229.75   36.55
  -5   1   1  162.40   35.54
   4  -1  -1  111.43   21.38
   4  -1  -1   92.36   21.03
  -4   1   1   83.79   21.44
   3  -1  -1 1111.75  209.05
   3  -1  -1 1102.11  209.12
  -3   1   1 1095.67  209.22
   2  -1  -1  100.35   57.52
   2  -1  -1   43.82   26.26
   2  -1  -1   74.77   15.26
   2  -1  -1   91.98   20.46
   2  -1  -1   77.24   15.43
  -2   1   1   69.78   15.50
   1  -1  -1  804.75  162.54
   1  -1  -1  730.05  196.93
   0  -1  -1 1502.00  372.94
   0  -1  -1 1453.10  260.60
   0  -1  -1 1534.06  308.56
   0   1   1 1452.75  260.59
   0   1   1 1473.95  266.72
  -1  -1  -1   21.64   65.43
  -1  -1  -1  147.39   26.06
  -1  -1  -1   38.95  102.75
  -1  -1  -1  114.26   23.34
   1   1   1  141.15   22.83
   1   1   1  117.03   21.96
  -2  -1  -1 2538.82  535.83
  -2  -1  -1 2691.40  485.53
   2   1   1 2481.85  464.05
  -3  -1  -1  113.27   24.15
   3   1   1  113.49   23.24
  -4  -1  -1  737.97  136.90
   4   1   1  691.23  130.63
  -5  -1  -1  193.93   39.59
   5   1   1  182.37   37.65
  -6  -1  -1  228.89   50.15
   6   1   1  253.87   47.89
  -7  -1  -1   11.37   12.67
   7   1   1   11.84   11.52
  -8  -1  -1    0.97   13.55
   8   1   1   -6.84   10.46
  -9  -1  -1  -13.22   13.93
   9   1   1   16.99   13.47
 -10  -1  -1   69.79   28.48
  10   1   1  144.92   30.29
 -11  -1  -1  669.89  783.99
 -12  -1  -1 1347.66 1206.13
  13  -2  -1  101.32   68.14
  13  -2  -1  120.08   32.68
  12  -2  -1  134.09   34.10
  11  -2  -1   -3.18   13.23
  10  -2  -1   22.99   14.66
 -10   2   1   39.79   19.06
   9  -2  -1  281.26   51.81
   9  -2  -1  153.47  129.06
  -9   2   1  258.16   53.12
   8  -2  -1  344.91  207.25
   8  -2  -1  417.79   83.55
  -8   2   1  488.05   86.74
   7  -2  -1  141.84   81.48
   7  -2  -1   99.02   23.36
   7  -2  -1   84.33   23.21
  -7   2   1  112.53   25.84
   6  -2  -1    6.14    8.41
   6  -2  -1   -5.08    7.85
   6  -2  -1   22.09   49.59
  -6   2   1    1.26    8.60
   5  -2  -1   54.38   15.03
   5  -2  -1   30.99   59.58
   5  -2  -1   86.05   16.09
  -5   2   1   56.11   16.02
   4  -2  -1  551.62  101.93
   4  -2  -1  537.02  101.85
   4  -2  -1  493.55  114.59
   4  -2  -1  543.20  140.00
   4  -2  -1  286.34  244.21
  -4   2   1  619.33  102.36
   3  -2  -1  884.92  174.61
   3  -2  -1  953.90  174.66
   3  -2  -1  957.23  194.99
   3  -2  -1  898.66  236.31
   2  -2  -1 1104.50  229.51
   2  -2  -1 1070.84  277.72
   1  -2  -1  -24.73   63.66
   1  -2  -1   85.97   32.78
   1  -2  -1  100.78   20.93
   0  -2  -1  203.96   47.89
   0  -2  -1  201.61   35.15
   0  -2  -1  -11.93   82.43
   0   2   1  152.08   28.50
  -1  -2  -1  -17.01   60.90
  -1  -2  -1  139.29   22.00
  -1  -2  -1    6.59  100.11
  -2  -2  -1   12.96    8.63
  -2  -2  -1   37.44    8.80
  -2  -2  -1   31.45   46.94
  -2  -2  -1  -51.33   89.01
   2   2   1   24.12    7.49
  -3  -2  -1 3700.01  689.98
  -3  -2  -1 3684.00  761.57
   3   2   1 3573.70  659.36
  -4  -2  -1 1158.43  217.23
  -4  -2  -1 1114.47  239.24
  -4  -2  -1 1526.19  869.76
   4   2   1 1097.22  207.43
  -5  -2  -1   60.55   18.05
  -5  -2  -1 -132.53  185.26
   5   2   1   96.45   17.84
  -6  -2  -1  161.66   38.96
  -6  -2  -1  334.93  296.07
   6   2   1  194.14   37.51
  -7  -2  -1  378.13  437.01
  -8  -2  -1  517.57  116.38
  -8  -2  -1  646.95  554.02
   8   2   1  646.30  115.77
  -9  -2  -1   77.25  399.68
  -9  -2  -1   67.06   23.24
 -10  -2  -1  112.62   31.80
 -10  -2  -1   32.50  489.13
 -11  -2  -1  208.59   49.23
 -11  -2  -1  110.93  533.42
 -12  -2  -1    6.59   23.27
 -12  -2  -1 -115.78  652.80
  13  -3  -1  -12.29   14.94
  13  -3  -1   15.75   53.32
  12  -3  -1   73.61   49.67
  12  -3  -1   29.39   18.08
  11  -3  -1  183.04   37.86
  11  -3  -1   99.79   64.07
  10  -3  -1  -13.57   10.93
  10  -3  -1  -54.18   28.25
   9  -3  -1  953.57  246.45
   9  -3  -1  899.26  174.95
   8  -3  -1  675.71  123.99
   8  -3  -1  614.00  124.04
   8  -3  -1  678.07  176.33
  -8   3   1  617.91  125.15
   7  -3  -1  -23.95   56.51
   7  -3  -1  -25.50   27.89
   7  -3  -1   -4.37    7.65
   7  -3  -1   24.86    9.68
  -7   3   1   33.77   12.01
   6  -3  -1   74.52   78.50
   6  -3  -1  133.01   24.38
   6  -3  -1  150.10   48.88
   6  -3  -1  103.00   23.80
  -6   3   1   93.28   24.56
   5  -3  -1  292.97   76.64
   5  -3  -1   86.17  126.08
   5  -3  -1  281.19   48.31
   5  -3  -1  258.00   48.20
   5  -3  -1  264.55   58.08
  -5   3   1  214.27   48.82
   4  -3  -1 1471.87  265.67
   4  -3  -1 1416.68  265.61
   4  -3  -1 1202.45  357.49
   4  -3  -1 1409.09  295.80
   3  -3  -1  780.45  169.55
   3  -3  -1  822.09  206.77
   2  -3  -1  289.60   72.31
   2  -3  -1  295.47   55.15
   2  -3  -1   89.32  123.55
   1  -3  -1 3093.56  823.53
   1  -3  -1 3406.81  682.38
   0  -3  -1  481.40  102.99
   0  -3  -1  501.70  127.48
   0   3   1  480.47   87.52
  -1  -3  -1  383.18   82.19
   1   3   1  384.16   69.86
  -2  -3  -1   10.67   11.82
  -2  -3  -1   16.48   68.25
  -2  -3  -1   99.39   14.80
  -3  -3  -1  319.02   83.76
  -3  -3  -1  547.70  166.61
  -3  -3  -1  390.20   76.84
   3   3   1  443.29   72.15
  -4  -3  -1  485.76   99.15
  -4  -3  -1  469.97   90.97
   4   3   1  444.06   85.93
  -5  -3  -1   16.90  165.77
  -5  -3  -1   62.92   17.78
  -5  -3  -1   57.46   16.77
   5   3   1   61.85   15.44
  -6  -3  -1   -2.16   10.20
  -6  -3  -1 -109.14  211.93
  -6  -3  -1   -2.03   11.48
  -7  -3  -1  264.81   69.79
  -7  -3  -1  388.19   77.56
  -7  -3  -1  499.84  446.58
   7   3   1  369.54   70.12
  -8  -3  -1  168.46   38.81
  -8  -3  -1  115.14   35.07
  -8  -3  -1  301.42  376.75
  -9  -3  -1   19.31   18.93
  -9  -3  -1    1.65  350.08
 -10  -3  -1    5.39   20.51
 -10  -3  -1  -46.60  422.94
 -11  -3  -1 -687.26  519.08
 -11  -3  -1   78.55   30.01
 -12  -3  -1  -48.78  590.90
  13  -4  -1   39.72   18.50
  13  -4  -1  -18.86   56.56
  12  -4  -1   90.41   26.25
  12  -4  -1  149.65   65.54
  11  -4  -1  242.97   47.33
  11  -4  -1  132.66   79.05
  10  -4  -1    6.40   44.82
  10  -4  -1   14.04   12.27
   9  -4  -1  188.79   60.42
   9  -4  -1  -13.45   72.03
   9  -4  -1  166.45   27.51
   8  -4  -1  -31.52   52.15
   8  -4  -1    3.13    9.51
   8  -4  -1   57.61   38.77
   8  -4  -1    7.20    9.32
   7  -4  -1    5.96    7.62
   7  -4  -1   29.54   18.47
   7  -4  -1   39.44   33.33
   7  -4  -1    0.60    7.97
   7  -4  -1  -29.02   53.85
  -7   4   1   22.76   10.35
   6  -4  -1    0.92   31.86
   6  -4  -1   31.02    8.12
   6  -4  -1   12.55   61.45
   6  -4  -1   10.92    7.53
   6  -4  -1   -3.58   16.66
  -6   4   1   16.80    9.45
   5  -4  -1  410.09   78.74
   5  -4  -1  449.83  117.47
   5  -4  -1  413.41   78.70
   5  -4  -1  396.91   92.31
   4  -4  -1  603.12  131.26
   4  -4  -1  617.91  163.70
   3  -4  -1  -23.31   25.64
   3  -4  -1  -20.11   14.64
   3  -4  -1   25.66   59.61
   2  -4  -1  -18.86   26.48
   2  -4  -1  -17.36   13.47
   2  -4  -1   33.20   63.93
   1  -4  -1  893.57  235.31
   1  -4  -1  925.93  193.41
   0  -4  -1 1156.29  286.11
   0  -4  -1 1139.07  235.71
   0   4   1 1102.16  202.05
  -1  -4  -1   16.68   75.67
  -1  -4  -1   36.94   14.43
   1   4   1   38.64    8.00
  -2  -4  -1  765.83  152.69
   2   4   1  698.77  131.00
  -3  -4  -1  277.60   55.28
  -4  -4  -1  112.39  264.27
  -4  -4  -1  328.91   69.41
  -4  -4  -1  354.44  147.00
  -4  -4  -1  356.18   66.09
   4   4   1  343.27   59.66
  -5  -4  -1  126.51   29.45
  -5  -4  -1   51.75  188.94
  -5  -4  -1   62.89   73.20
  -5  -4  -1  140.14   31.04
  -6  -4  -1   90.29  248.56
  -6  -4  -1  218.21  118.61
  -6  -4  -1  171.52   39.29
  -6  -4  -1  160.56   39.64
  -7  -4  -1  587.03  115.64
  -7  -4  -1  -98.61  478.33
  -7  -4  -1  617.04  109.64
  -8  -4  -1 -115.42  309.42
  -8  -4  -1  185.63   43.35
  -8  -4  -1  180.03   42.07
  -9  -4  -1   37.25   25.02
  -9  -4  -1   46.29  404.82
 -10  -4  -1   30.03  128.42
 -10  -4  -1 -125.91  386.40
 -10  -4  -1   82.58   32.17
 -11  -4  -1  100.06   40.35
 -11  -4  -1  -75.63  474.49
 -11  -4  -1   28.69  146.62
  13  -5  -1   26.89   16.39
  13  -5  -1   59.60   65.82
  12  -5  -1  168.10   83.37
  12  -5  -1  186.32   40.93
  11  -5  -1   33.85   14.74
  11  -5  -1   51.00   54.50
  10  -5  -1   81.05   22.05
  10  -5  -1  124.15   56.49
   9  -5  -1   48.16   13.41
   9  -5  -1   -2.80   43.74
   9  -5  -1   32.02   13.27
   9  -5  -1    3.06   67.59
   8  -5  -1  206.64   67.19
   8  -5  -1  -24.33   85.00
   8  -5  -1  190.29   31.92
   8  -5  -1  162.61   31.00
   7  -5  -1  734.40  160.31
   7  -5  -1  693.99  140.12
   7  -5  -1  811.14  203.11
   7  -5  -1  773.29  140.36
   6  -5  -1  129.06   25.67
   6  -5  -1  107.95   53.38
   6  -5  -1  150.28   40.17
   6  -5  -1  144.61   25.87
   6  -5  -1   -2.28   87.07
   5  -5  -1 1623.22  399.53
   5  -5  -1 1508.77  328.77
   4  -5  -1  487.82   99.85
   4  -5  -1  375.91  123.25
   3  -5  -1   -6.07   16.55
   3  -5  -1  -53.46   26.47
   3  -5  -1  -14.32   70.25
   2  -5  -1  906.10  224.15
   2  -5  -1  832.42  183.39
   1  -5  -1 1491.32  316.54
   1  -5  -1 1523.61  383.52
   0  -5  -1 1350.72  280.59
   0  -5  -1 1309.03  340.16
  -1  -5  -1  136.12   33.79
  -2  -5  -1   62.82   19.87
  -3  -5  -1   30.96  112.89
  -3  -5  -1   22.27   12.76
  -4  -5  -1   85.07  192.72
  -4  -5  -1  218.62   44.67
  -5  -5  -1   68.80   17.11
  -5  -5  -1    0.57   17.73
  -5  -5  -1  -21.90  150.71
  -6  -5  -1  445.75   70.86
  -6  -5  -1  253.64   66.49
  -6  -5  -1    2.54  284.16
  -7  -5  -1  378.19   92.03
  -7  -5  -1  495.32   97.24
  -7  -5  -1  283.41  205.10
  -8  -5  -1   -0.07   24.63
  -8  -5  -1  -12.81   96.58
  -8  -5  -1  -45.79  253.27
  -9  -5  -1  -27.63  110.79
  -9  -5  -1   -5.13  308.34
  -9  -5  -1   50.47   29.15
 -10  -5  -1   50.69   35.61
 -11  -5  -1    8.38  432.39
  13  -6  -1   19.98   64.18
  13  -6  -1   72.90   20.69
  12  -6  -1  322.08  103.76
  12  -6  -1  225.63   48.82
  11  -6  -1   53.20   55.90
  11  -6  -1   12.01   11.15
  10  -6  -1   17.06   10.34
  10  -6  -1   23.43   10.35
  10  -6  -1  -16.74   40.95
   9  -6  -1   24.24   10.32
   9  -6  -1  -58.09   64.94
   9  -6  -1   31.44   45.91
   9  -6  -1   42.64   10.42
   8  -6  -1  382.35  109.93
   8  -6  -1  339.83   63.14
   8  -6  -1  348.35   63.28
   8  -6  -1   49.99  164.62
   8  -6  -1  390.10   82.73
   7  -6  -1   16.00   41.78
   7  -6  -1   46.24   24.98
   7  -6  -1   31.90   80.10
   6  -6  -1   36.42   23.19
   6  -6  -1  -33.30   69.28
   6  -6  -1   34.19   40.34
   5  -6  -1   76.52   24.74
   5  -6  -1  -61.30   66.61
   5  -6  -1   44.21   39.50
   4  -6  -1    4.34   80.68
   4  -6  -1   27.66   20.51
   4  -6  -1   27.89   35.05
   3  -6  -1  192.63   60.79
   3  -6  -1   26.17  105.62
   3  -6  -1  237.43   46.77
   2  -6  -1  840.05  179.49
   2  -6  -1  835.22  218.63
   1  -6  -1  822.90  170.02
   1  -6  -1  757.38  206.51
   0  -6  -1  178.01   37.24
   0  -6  -1  164.22   50.79
   0  -6  -1    8.53   97.55
  -1  -6  -1  102.33   28.52
  -2  -6  -1   -8.42   12.28
  -3  -6  -1  638.73  136.71
  -5  -6  -1   27.36  161.00
  -5  -6  -1   -6.37   14.26
  -6  -6  -1 -120.31  193.15
  -6  -6  -1   76.88   19.65
  -7  -6  -1   18.11  226.96
  -7  -6  -1   66.14   25.40
  -8  -6  -1  -14.23  250.23
  -8  -6  -1   62.58   28.62
  -9  -6  -1 -261.24  261.24
  -9  -6  -1   65.91   30.60
 -10  -6  -1   16.77   34.92
 -10  -6  -1  124.88  324.79
  12  -7  -1   50.62   65.94
  12  -7  -1    9.33    7.73
  12  -7  -1   14.05    8.81
  11  -7  -1  144.93   80.96
  10  -7  -1  -44.47   50.84
   9  -7  -1  189.46   73.88
   9  -7  -1  -20.04   91.69
   9  -7  -1  250.27   48.39
   8  -7  -1  779.60  176.80
   8  -7  -1  496.10  131.61
   7  -7  -1   40.20   93.33
   7  -7  -1   -5.06   23.10
   7  -7  -1  -46.61   40.72
   6  -7  -1  610.09  157.76
   6  -7  -1  497.87  123.16
   5  -7  -1   34.87   84.44
   5  -7  -1  -34.57   32.80
   5  -7  -1  -38.29   18.08
   4  -7  -1  647.33  179.75
   4  -7  -1  654.79  145.03
   3  -7  -1  525.68  152.51
   3  -7  -1  568.36  123.64
   2  -7  -1  163.86   32.21
   2  -7  -1   46.60   39.08
   2  -7  -1   19.05  101.56
   1  -7  -1  931.91  210.23
   1  -7  -1 1058.34  255.72
   0  -7  -1   93.42   29.60
  -1  -7  -1  193.41   47.92
  -2  -7  -1    2.78   16.01
  -3  -7  -1  535.59  116.82
  -4  -7  -1  323.92   74.44
  -5  -7  -1    7.87   16.03
  -5  -7  -1  -22.73  186.98
  -6  -7  -1   96.01   29.57
  -6  -7  -1   39.34  210.28
  -7  -7  -1  -69.99  218.97
  -8  -7  -1   -9.77  253.76
  -9  -7  -1  112.82  291.10
  12  -8  -1  -16.57   67.23
  11  -8  -1   -2.29   61.82
  10  -8  -1  -15.19   56.49
   9  -8  -1  128.99  155.92
   9  -8  -1  315.34  102.57
   9  -8  -1  365.80   74.20
   8  -8  -1  -10.23   49.06
   8  -8  -1  -31.36   85.14
   8  -8  -1   83.97   32.03
   7  -8  -1   93.95   54.86
   7  -8  -1   10.58   90.72
   7  -8  -1   23.60   28.59
   6  -8  -1  -23.85   36.45
   6  -8  -1   86.36   29.50
   6  -8  -1 -112.00   73.03
   5  -8  -1  435.65   97.14
   5  -8  -1  360.50  123.01
   4  -8  -1 1056.85  264.85
   4  -8  -1  948.56  212.88
   3  -8  -1   36.96   23.34
   3  -8  -1    5.52   31.73
   3  -8  -1  -35.31   95.45
   2  -8  -1   20.38   21.71
   2  -8  -1    5.34  102.34
   2  -8  -1   21.96   30.81
   1  -8  -1  -25.93   17.17
   1  -8  -1   12.40   27.55
   0  -8  -1  199.66   51.92
  -1  -8  -1   -1.45   17.50
  -2  -8  -1  310.12   72.69
  -3  -8  -1  604.33  132.99
  -4  -8  -1    0.87   18.14
  -5  -8  -1  244.55   60.17
  -7  -8  -1 -109.62  223.99
  -8  -8  -1   81.12  277.75
  -9  -8  -1  217.49  359.11
  11  -9  -1   20.44   75.43
  10  -9  -1   82.36   40.27
  10  -9  -1   57.52   79.61
   9  -9  -1  112.94   47.36
   9  -9  -1  135.28   80.19
   9  -9  -1  140.35  139.58
   8  -9  -1   10.81   54.04
   8  -9  -1   23.52   28.75
   8  -9  -1  166.64  131.20
   7  -9  -1  207.26   49.89
   7  -9  -1   45.37  130.53
   7  -9  -1  133.47   74.28
   6  -9  -1  142.61  119.03
   6  -9  -1   51.48   32.96
   6  -9  -1   87.04   58.14
   5  -9  -1  833.75  213.24
   5  -9  -1  722.99  171.21
   4  -9  -1  558.32  122.60
   4  -9  -1  489.71  149.11
   3  -9  -1   93.51   33.68
   3  -9  -1   60.80   41.13
   3  -9  -1    2.23  101.81
   2  -9  -1  202.81   66.76
   2  -9  -1  181.31   52.53
   1  -9  -1  -35.22   18.61
   1  -9  -1   44.84   31.38
   0  -9  -1  274.22   68.14
  -1  -9  -1   72.23   29.50
  -2  -9  -1  688.32  152.44
  -3  -9  -1  352.35   83.03
  -4  -9  -1   35.25   23.47
  -5  -9  -1   15.16   22.53
  11 -10  -1   62.57   85.18
  10 -10  -1   63.15   73.42
  10 -10  -1  -19.23   28.83
   9 -10  -1    8.43   29.27
   9 -10  -1  -32.68  114.11
   9 -10  -1   54.51   69.17
   8 -10  -1   58.09   36.47
   8 -10  -1   82.53  128.89
   8 -10  -1   83.47   67.67
   7 -10  -1  -32.88   27.86
   7 -10  -1   55.12  132.24
   7 -10  -1  100.24   61.23
   6 -10  -1  239.24   74.61
   6 -10  -1  177.67   50.72
   6 -10  -1  -42.83  125.04
   5 -10  -1  159.82   65.62
   5 -10  -1  228.10   53.10
   5 -10  -1  -22.27  126.74
   4 -10  -1  104.93   47.53
   4 -10  -1   35.22   30.93
   3 -10  -1   24.38   37.45
   3 -10  -1    7.39   28.94
   2 -10  -1   81.05   38.16
   2 -10  -1  124.11   47.79
   1 -10  -1  405.25   96.27
   0 -10  -1  157.94   47.02
  -1 -10  -1  200.12   54.94
  -2 -10  -1  342.05   83.23
  -3 -10  -1   -8.03   24.01
  -4 -10  -1   84.13   35.88
  10 -11  -1  -26.53   32.74
  10 -11  -1  -39.17   73.68
   9 -11  -1   83.03   73.19
   9 -11  -1   26.16   37.89
   8 -11  -1  152.06   77.70
   8 -11  -1  112.87   48.19
   7 -11  -1  -12.02   33.47
   7 -11  -1   62.05   55.18
   6 -11  -1  111.67   42.44
   6 -11  -1   48.08   54.08
   5 -11  -1   27.33   48.25
   5 -11  -1   29.88   32.52
   4 -11  -1   62.37   47.21
   4 -11  -1   25.12   33.98
   3 -11  -1  159.46   51.12
   3 -11  -1  133.66   59.55
   2 -11  -1  204.35   58.63
   1 -11  -1  536.16  125.76
   0 -11  -1  231.32   64.34
  -1 -11  -1  -13.82   27.22
  -2 -11  -1   41.87   31.39
  -3 -11  -1  152.90   48.04
   8 -12  -1  137.05   56.25
   7 -12  -1  -41.08   32.15
   6 -12  -1   66.84   41.33
   5 -12  -1   42.31   40.85
   4 -12  -1  214.68   64.31
   3 -12  -1  -36.46   27.71
   2 -12  -1  105.30   44.86
   1 -12  -1   88.52   43.26
   0 -12  -1  -10.86   28.09
  -1 -12  -1   72.24   36.85
  -2 -12  -1  212.63   64.34
  -3 -12  -1  230.27   66.52
   6 -13  -1    6.22   35.79
   5 -13  -1  116.64   50.96
   4 -13  -1  214.11   68.80
   3 -13  -1   10.88   36.43
   2 -13  -1  274.58   78.53
   1 -13  -1   46.98   38.92
   0 -13  -1   21.24   37.03
  -1 -13  -1  141.57   52.69
  -1 -14   2   35.77   34.27
   0 -14   2   84.51   44.14
   1 -14   2  -16.03   33.57
   2 -14   2  -47.33   32.69
   3 -14   2    4.87   32.84
   4 -14   2  173.41   61.88
   5 -14   2   10.08   43.38
   6 -14   2   -1.79   41.05
  -3 -13   2  314.27   82.66
  -2 -13   2  164.71   53.72
  -1 -13   2  152.24   51.90
   0 -13   2  211.20   60.56
   1 -13   2   61.66   37.43
   2 -13   2   89.25   41.77
   3 -13   2  -11.12   32.48
   4 -13   2  170.57   57.24
   5 -13   2   45.20   41.64
   6 -13   2   12.02   35.74
   7 -13   2   -5.39   38.00
   8 -13   2   18.78   38.14
  -5 -12   2   39.19   32.60
  -4 -12   2   31.68   33.09
  -3 -12   2  289.14   74.95
  -2 -12   2   -2.22   27.59
  -1 -12   2   -7.85   25.85
   0 -12   2   84.92   37.33
   1 -12   2  127.44   44.80
   2 -12   2   -5.96   28.20
   3 -12   2  294.28   78.53
   4 -12   2  190.19   57.38
   5 -12   2   60.27   40.75
   6 -12   2   84.72   43.16
   7 -12   2   41.71   39.42
   8 -12   2  210.10   67.13
   9 -12   2  227.15   71.90
  -6 -11   2   72.31   33.98
  -5 -11   2  161.46   49.25
  -4 -11   2  484.51  112.60
  -3 -11   2   30.79   27.75
  -2 -11   2  145.09   45.23
  -1 -11   2   86.90   35.17
   0 -11   2  302.18   76.43
   1 -11   2  595.75  135.94
   2 -11   2   20.73   27.90
   3 -11   2  107.34   41.49
   4 -11   2   49.18   32.85
   5 -11   2   64.18   34.29
   6 -11   2   18.50   31.32
   7 -11   2   76.71   42.71
   8 -11   2  272.59   76.91
   9 -11   2   -1.21   32.89
  10 -11   2   28.56   37.11
  -7 -10   2   40.71   30.05
  -6 -10   2  -50.88   20.68
  -5 -10   2    3.55   24.58
  -4 -10   2  226.47   58.62
  -3 -10   2    2.53   19.38
  -2 -10   2  269.21   66.56
  -1 -10   2   50.27   27.10
   0 -10   2  356.75   85.10
   1 -10   2   46.57   28.38
   2 -10   2   22.14   23.81
   3 -10   2   21.04   25.26
   3 -10   2    6.46   23.58
   4 -10   2   78.63   35.32
   4 -10   2   95.31   39.76
   5 -10   2  299.86   78.11
   5 -10   2  319.48   95.09
   6 -10   2   78.34   33.40
   6 -10   2  -12.46   36.65
   7 -10   2  364.51   94.20
   7 -10   2  406.97  119.02
   8 -10   2   58.22   56.38
   8 -10   2  156.64   46.88
   9 -10   2   24.08   59.32
   9 -10   2   27.17   35.03
  10 -10   2   88.32   40.34
  10 -10   2   92.90   70.63
  11 -10   2  179.83   59.29
  -9  -9   2  164.63  321.97
  -8  -9   2  135.18  287.30
  -7  -9   2  351.34   84.27
  -6  -9   2   -6.79   20.95
  -5  -9   2  467.00  106.23
  -4  -9   2   -2.21   20.10
  -3  -9   2  120.93   36.48
  -2  -9   2  137.28   38.70
  -1  -9   2  155.80   43.72
   0  -9   2 1720.34  363.66
   1  -9   2   -2.52    5.12
   1  -9   2   -3.45   20.55
   2  -9   2   95.20   31.92
   2  -9   2   48.47   27.89
   3  -9   2   44.49   24.94
   3  -9   2   38.19   26.89
   4  -9   2  254.81   67.56
   4  -9   2  281.28   81.56
   5  -9   2  269.39   73.23
   5  -9   2  329.16   91.31
   6  -9   2    2.74   28.47
   6  -9   2  100.61   42.88
   7  -9   2  160.02   62.66
   7  -9   2   90.24   40.50
   8  -9   2   14.44   41.67
   8  -9   2   32.65   28.64
   9  -9   2  107.28   45.48
   9  -9   2  188.15   73.93
  10  -9   2   13.85   31.41
  10  -9   2   -5.42   56.62
  11  -9   2   -7.47   32.15
  11  -9   2   57.37   64.02
  12  -9   2    6.62   65.29
  -9  -8   2 -130.72  241.30
  -9  -8   2   13.84   30.81
  -8  -8   2  223.09   47.20
  -8  -8   2   67.86  123.13
  -8  -8   2   74.87  253.26
  -8  -8   2   97.89   41.97
  -7  -8   2  253.48   49.79
  -7  -8   2    4.36  140.56
  -7  -8   2  -30.82  251.14
  -6  -8   2  153.43  197.12
  -6  -8   2   27.21   22.39
  -5  -8   2    7.77    9.15
  -5  -8   2   19.51   18.77
  -4  -8   2  183.99   34.50
  -4  -8   2  165.49   45.44
  -3  -8   2  602.71  118.83
  -3  -8   2  513.84   95.01
  -2  -8   2   29.01    7.70
  -2  -8   2    4.06   17.16
  -1  -8   2  234.90   59.74
  -1  -8   2  252.48   45.14
   0  -8   2   37.96    8.65
   0  -8   2   19.22   19.20
   1  -8   2   93.20   32.40
   1  -8   2  122.50   22.62
   2  -8   2   18.55   20.65
   2  -8   2    0.24   16.40
   2  -8   2   -6.34    6.28
   3  -8   2  330.31   89.70
   3  -8   2  312.56   57.81
   3  -8   2  301.17   75.37
   4  -8   2  664.95  159.26
   4  -8   2  790.97  193.99
   5  -8   2   15.49   22.40
   5  -8   2   38.16   33.10
   6  -8   2  724.47  150.93
   6  -8   2  608.48  182.08
   7  -8   2   -4.59   34.24
   7  -8   2  -14.94   20.96
   8  -8   2  443.65  132.47
   8  -8   2  443.34   85.82
   8  -8   2  462.52   86.12
   8  -8   2  397.23  104.97
   9  -8   2  289.18   59.45
   9  -8   2  291.70   77.68
   9  -8   2  272.68  101.03
   9  -8   2  328.67   60.19
  10  -8   2   55.42   34.77
  10  -8   2   40.80   17.03
  10  -8   2   74.29   51.42
  10  -8   2   87.70   17.45
  11  -8   2  227.87   72.34
  11  -8   2   91.73   23.96
  12  -8   2   -2.98   56.73
  12  -8   2  -14.16   10.59
 -10  -7   2  261.84  330.14
 -10  -7   2   73.13   48.46
 -10  -7   2  -16.17  154.54
  -9  -7   2  136.44   47.56
  -9  -7   2  263.85  185.69
  -9  -7   2    5.76  268.94
  -9  -7   2  107.29   37.73
  -8  -7   2 -154.94  249.48
  -8  -7   2  264.36   45.76
  -8  -7   2   92.88   45.52
  -7  -7   2   20.55  195.42
  -7  -7   2  -18.51   15.65
  -7  -7   2  -39.40   25.29
  -6  -7   2  152.69   51.15
  -6  -7   2   13.04  224.87
  -6  -7   2  366.22   57.52
  -6  -7   2  628.49  186.59
  -5  -7   2   99.54   23.90
  -5  -7   2  238.34  117.85
  -5  -7   2    0.54   22.10
  -5  -7   2   16.19  159.04
  -4  -7   2  319.27  154.21
  -3  -7   2  654.49  116.28
  -3  -7   2  646.27  139.98
  -2  -7   2   -2.51   13.15
  -2  -7   2    5.16    5.76
  -1  -7   2  419.74   77.25
  -1  -7   2  489.74   97.30
   0  -7   2    4.29   15.00
   0  -7   2   16.29    6.11
   1  -7   2  775.26  171.25
   1  -7   2  810.32  142.08
   2  -7   2   32.16    9.92
   2  -7   2   37.30   19.30
   2  -7   2   10.36   21.66
   2  -7   2   33.12    9.53
   3  -7   2  694.36  194.88
   3  -7   2  694.77  162.03
   3  -7   2  753.72  134.38
   3  -7   2  811.82  137.66
   4  -7   2  496.50   93.45
   4  -7   2  540.43   95.95
   4  -7   2  525.95  115.74
   4  -7   2  500.75  140.41
   5  -7   2   46.31   10.74
   5  -7   2   64.21   35.42
   5  -7   2   40.37   15.11
   5  -7   2   54.39   10.75
   5  -7   2   34.96   23.75
   6  -7   2   12.17    7.52
   6  -7   2   12.90   11.94
   6  -7   2   16.88    7.10
   6  -7   2   14.19   30.68
   6  -7   2    9.68   22.46
   7  -7   2   89.12   19.14
   7  -7   2  108.80   33.46
   7  -7   2   98.43   46.67
   7  -7   2   66.15   17.98
   8  -7   2  492.56   99.56
   8  -7   2  605.99  150.33
   8  -7   2  471.36  117.60
   8  -7   2  540.26  100.20
   9  -7   2   97.42   20.58
   9  -7   2   27.83   47.81
   9  -7   2   48.70   33.45
  10  -7   2   27.28   12.42
  10  -7   2   -5.35   41.76
  10  -7   2    0.35   25.94
  11  -7   2   18.00   13.18
  11  -7   2   24.07   45.17
  12  -7   2   69.29   61.17
  12  -7   2   93.33   24.31
 -11  -6   2   94.89   54.27
 -11  -6   2  150.91  396.56
 -10  -6   2 -288.27  310.67
 -10  -6   2  -20.10   36.75
  -9  -6   2   37.58   38.42
  -9  -6   2  -24.46  284.56
  -9  -6   2   60.96   29.30
  -8  -6   2   95.80   33.33
  -8  -6   2  158.09   44.74
  -8  -6   2   45.97  249.93
  -7  -6   2  143.21   33.10
  -7  -6   2   90.10   38.42
  -7  -6   2 -127.56  199.11
  -6  -6   2    8.04  170.38
  -6  -6   2   60.62   28.27
  -6  -6   2   49.04   20.02
  -5  -6   2   12.14  128.51
  -5  -6   2   62.15   25.96
  -5  -6   2   43.23   18.12
  -4  -6   2  297.65   64.93
  -3  -6   2  132.27   33.79
  -3  -6   2  244.45  105.51
  -3  -6   2  129.17   26.06
  -2  -6   2  -10.18    4.89
  -2  -6   2   -6.65    3.42
  -2  -6   2   17.73   51.63
  -2  -6   2   -5.44   11.08
  -1  -6   2  489.44  110.75
  -1  -6   2  523.39   91.50
   0  -6   2 1288.99  231.83
   0  -6   2 1343.53  227.17
   0  -6   2 1167.50  270.54
   1  -6   2  722.83  129.14
   1  -6   2  706.99  181.61
   1  -6   2  693.73  152.32
   1  -6   2  708.47  126.44
   2  -6   2  214.84   41.55
   2  -6   2  235.59   42.64
   2  -6   2  264.77   64.10
   2  -6   2  177.71   51.88
   3  -6   2  766.52  141.33
   3  -6   2  797.76  160.68
   3  -6   2  707.46  141.29
   3  -6   2  700.96  193.12
   3  -6   2  749.07  133.48
   3  -6   2  807.73  136.77
   4  -6   2   -1.30    7.64
   4  -6   2    7.15    9.56
   4  -6   2   -3.92    4.68
   4  -6   2  -10.26    4.42
   4  -6   2  -12.35   12.40
   4  -6   2  -20.14   22.03
  -5   6  -2  282.23   63.25
   5  -6   2  340.90   61.99
   5  -6   2  308.64   61.89
   5  -6   2  420.12   94.26
   5  -6   2  337.60   62.24
   5  -6   2  284.20   74.52
  -6   6  -2   43.37   12.91
   6  -6   2   46.85   31.32
   6  -6   2   40.04   22.56
   6  -6   2   25.67   10.95
   6  -6   2   35.34   14.84
   6  -6   2   34.59   10.91
   7  -6   2  956.10  232.12
   7  -6   2  769.07  190.82
   7  -6   2  900.72  169.25
   7  -6   2  892.28  169.04
   7  -6   2  890.62  163.38
   8  -6   2  504.46  106.00
   8  -6   2  441.26   89.81
   8  -6   2  386.95  128.54
   8  -6   2  478.42   89.45
   9  -6   2   48.17   28.60
   9  -6   2   74.29   45.37
   9  -6   2   52.68   17.12
  10  -6   2   93.82   26.34
  10  -6   2  190.12   63.56
  11  -6   2  181.05   64.09
  11  -6   2  115.81   30.60
  12  -6   2  238.79   88.45
  12  -6   2  234.97   51.11
  13  -6   2  -20.72   50.65
 -11  -5   2 -108.35  395.95
 -11  -5   2   97.86   44.97
 -10  -5   2   37.79   30.47
 -10  -5   2   49.27   34.83
 -10  -5   2 -126.53  317.93
  -9  -5   2   44.26  346.65
  -9  -5   2   38.26   35.20
  -9  -5   2  138.58   36.70
  -8  -5   2   65.62   29.73
  -8  -5   2  164.85  285.20
  -8  -5   2   23.37   27.79
  -7  -5   2  373.61   72.17
  -7  -5   2 -166.45  308.49
  -7  -5   2  436.18   74.44
   6   5  -2   10.23   10.84
  -6  -5   2   -7.54   13.51
  -6  -5   2 -101.73  177.51
  -6  -5   2   -0.48   20.37
   5   5  -2  871.94  168.61
  -5  -5   2  821.92  172.21
  -5  -5   2  917.90  186.42
   4   5  -2  400.20   77.37
  -4  -5   2  407.86   86.48
  -4  -5   2  361.02   82.70
   3   5  -2  238.34   32.54
  -3  -5   2  125.33   36.48
  -3  -5   2  274.83   37.89
  -3  -5   2  -10.35  121.39
  -2  -5   2  192.49   43.55
  -2  -5   2  182.18   34.70
  -1  -5   2  422.63   76.77
  -1  -5   2  464.54   75.63
  -1  -5   2  333.35   91.42
   0  -5   2 2940.27  620.21
   0  -5   2 3004.03  523.40
   0  -5   2 2950.94  535.09
   1  -5   2 1680.00  296.28
   1  -5   2 1658.22  344.12
   1  -5   2 1589.73  413.36
   1  -5   2 1623.56  309.51
   1  -5   2 1647.84  289.79
   2  -5   2  485.08   83.90
   2  -5   2  466.57   88.82
   2  -5   2  450.04  121.62
   2  -5   2  457.52   85.66
   2  -5   2  470.88  101.06
   3  -5   2  179.85   36.72
   3  -5   2  192.76   55.41
   3  -5   2  218.43   46.27
   3  -5   2  173.43   35.46
   3  -5   2  193.82   36.97
  -4   5  -2  187.71   35.62
   4  -5   2  177.68   34.55
   4  -5   2  161.86   52.38
   4  -5   2  173.06   35.10
   4  -5   2  165.58   43.49
   4  -5   2  148.62   33.33
  -5   5  -2  151.84   29.88
   5  -5   2  114.74   29.42
   5  -5   2  162.24   29.16
   5  -5   2   75.34   35.10
   5  -5   2  161.27   47.67
  -6   5  -2   69.66   18.32
   6  -5   2   69.85   19.44
   6  -5   2   72.97   17.96
   6  -5   2   99.72   27.17
   6  -5   2   52.43   33.63
  -7   5  -2  378.55   82.99
   7  -5   2  408.73   81.64
   7  -5   2  398.67   80.09
   7  -5   2  427.35   81.94
   7  -5   2  521.78   96.80
  -8   5  -2   93.49   23.27
   8  -5   2   69.01   24.09
   8  -5   2   91.36   29.88
   8  -5   2   79.20   21.05
   9  -5   2  -22.05   10.49
  10  -5   2  -11.98   11.62
  11  -5   2  154.87   36.46
  12  -5   2  118.60   63.95
  12  -5   2  138.40   34.12
  13  -5   2   11.64   16.86
  13  -5   2   53.23   54.75
 -12  -4   2  129.26   50.17
 -12  -4   2  174.24  550.90
 -11  -4   2  -92.91  482.88
 -11  -4   2  147.78   45.86
 -10  -4   2   44.58   32.82
 -10  -4   2   -8.01  396.48
 -10  -4   2   50.00   29.39
  -9  -4   2   99.76  319.92
  -9  -4   2   33.32   25.80
  -9  -4   2   37.15   23.88
   8   4  -2  190.74   46.29
  -8  -4   2  352.25   58.05
  -8  -4   2  162.13   50.12
  -8  -4   2  163.42  361.05
   7   4  -2  266.23   53.11
  -7  -4   2  313.27  329.75
  -7  -4   2  216.66   56.50
  -7  -4   2  246.25   59.80
   6   4  -2    9.81    9.83
  -6  -4   2    9.04   15.83
  -6  -4   2  -55.99  177.51
  -6  -4   2   21.22   15.30
   5   4  -2  238.01   45.19
  -5  -4   2   66.31  197.23
  -5  -4   2  244.12   49.68
  -5  -4   2  243.86   51.25
   4   4  -2   33.97   11.13
  -4  -4   2   -9.30   87.27
  -4  -4   2   67.74   19.34
  -4  -4   2   28.91   14.27
   3   4  -2  277.04   51.50
  -3  -4   2  206.15   55.45
  -3  -4   2  268.86   58.72
   2   4  -2   -1.81    5.77
  -2  -4   2    8.66   16.73
  -2  -4   2   34.67   69.23
  -2  -4   2   -2.81    9.02
   1   4  -2 1257.76  238.08
  -1  -4   2 1247.50  222.12
  -1  -4   2 1211.29  226.91
  -1  -4   2 1334.77  237.82
  -1  -4   2 1236.39  263.48
   0  -4   2  802.23  165.24
   0  -4   2  783.43  148.31
   0  -4   2  800.45  141.72
   0  -4   2  748.29  138.78
   1  -4   2  116.60   23.81
   1  -4   2   66.33   16.42
   1  -4   2   74.52   25.37
   1  -4   2   84.49   16.58
   1  -4   2   81.59   16.58
  -2   4  -2  173.76   35.76
   2  -4   2  184.74   50.38
   2  -4   2  177.47   35.23
   2  -4   2  220.15   42.92
   2  -4   2  156.04   34.25
   2  -4   2  176.60   33.72
  -3   4  -2  242.39   49.68
   3  -4   2  272.14   48.61
   3  -4   2  281.82   47.50
   3  -4   2  220.11   68.89
   3  -4   2  218.82   57.65
   3  -4   2  260.59   49.33
  -4   4  -2  524.54   92.26
   4  -4   2  415.54   86.40
   4  -4   2  502.58   91.94
   4  -4   2  446.81   88.72
   4  -4   2  489.68  105.08
  -5   4  -2  309.70   59.49
   5  -4   2  250.10   57.02
   5  -4   2  322.29   68.10
   5  -4   2  302.99   58.29
  -6   4  -2  443.29   85.88
   6  -4   2  438.86   98.15
   6  -4   2  439.96   85.51
   6  -4   2  429.32   83.74
  -7   4  -2   76.21   23.66
   7  -4   2  115.19   25.28
   7  -4   2   94.48   24.27
   7  -4   2  142.18   32.11
   8  -4   2  270.27   56.60
   8  -4   2  283.10   56.23
  -9   4  -2  314.04   65.30
   9  -4   2  299.57   63.02
  10  -4   2  165.76   37.99
  11  -4   2  485.14   98.12
  12  -4   2   87.32   26.57
  13  -4   2    4.08   17.61
 -12  -3   2  423.34  659.24
 -11  -3   2    6.12  486.88
 -11  -3   2   94.44   33.67
  10   3  -2   51.58   19.13
 -10  -3   2   37.00   23.74
 -10  -3   2  -44.95  397.69
   9   3  -2  465.99   98.73
  -9  -3   2  534.27  101.79
  -9  -3   2  460.17  520.29
   8   3  -2 1100.47  208.84
  -8  -3   2 1063.47  210.17
  -8  -3   2 1133.24  893.53
   7   3  -2  492.39  104.47
  -7  -3   2  588.03  106.50
  -7  -3   2  627.66  517.52
   6   3  -2  167.70   33.92
  -6  -3   2  141.30   34.77
  -6  -3   2  130.43  247.40
   5   3  -2   -6.19    7.30
  -5  -3   2  -81.89  148.48
  -5  -3   2    6.70   11.04
   4   3  -2 1088.85  211.71
  -4  -3   2 1146.70  212.99
   3   3  -2  963.96  175.42
  -3  -3   2  896.73  176.89
  -3  -3   2  894.16  193.88
   2   3  -2   19.72    7.58
  -2  -3   2   96.41   69.53
  -2  -3   2   15.68   10.04
  -2  -3   2   10.01   15.01
  -2  -3   2   11.52    6.96
   1   3  -2 1944.48  366.83
  -1  -3   2 1990.38  405.59
  -1  -3   2 1924.39  342.59
  -1  -3   2 1910.27  366.75
   0   3  -2   24.61    9.24
   0   3  -2   24.03   13.42
   0  -3   2   43.46    9.12
   0  -3   2   30.05   12.06
   0  -3   2   42.90    9.13
   0  -3   2   37.86    9.07
  -1   3  -2  795.69  151.75
   1  -3   2  741.65  168.26
   1  -3   2  785.07  201.65
   1  -3   2  768.16  141.80
   1  -3   2  806.96  145.03
   1  -3   2  881.52  151.68
  -2   3  -2   25.23    7.58
   2  -3   2   21.43    7.26
   2  -3   2   13.63    8.16
   2  -3   2   12.51    7.57
   2  -3   2   17.32   11.54
  -3   3  -2 1489.66  282.17
   3  -3   2 1445.23  263.81
   3  -3   2 1457.54  312.38
   3  -3   2 1507.05  269.98
   3  -3   2 1540.12  282.11
  -4   3  -2  722.69  138.49
   4  -3   2  744.52  129.73
   4  -3   2  680.01  154.10
   4  -3   2  704.77  138.30
   4  -3   2  769.82  132.95
  -5   3  -2   43.54   13.33
   5  -3   2   47.82   17.64
   5  -3   2   40.88   13.30
   5  -3   2   39.17   12.17
  -6   3  -2   27.25   11.50
   6  -3   2   33.82   15.90
   6  -3   2   44.77   13.36
  -7   3  -2   28.62   13.69
   7  -3   2   15.67   12.78
  -8   3  -2  311.98   68.87
   8  -3   2  360.05   67.04
  -9   3  -2   87.91   26.23
   9  -3   2  113.15   27.31
   9  -3   2   85.74   24.69
 -10   3  -2   18.76   16.69
  10  -3   2  -14.89   12.39
 -11   3  -2  118.21   30.88
  11  -3   2   73.65   25.32
  12  -3   2   28.84   18.01
  13  -3   2    8.40   18.02
 -12  -2   2 1256.41 1118.51
  11   2  -2  210.23   46.34
 -11  -2   2  217.49   49.47
 -11  -2   2 -796.96  719.44
  10   2  -2   19.55   15.96
 -10  -2   2   65.29   22.21
   9   2  -2   57.76   20.91
  -9  -2   2   82.54   24.17
   8   2  -2  849.59  163.71
  -8  -2   2  847.38  164.50
   7   2  -2  396.44   79.10
  -7  -2   2  393.97   79.80
   6   2  -2   60.31   15.15
  -6  -2   2   28.27   14.81
   5   2  -2  263.45   52.80
  -5  -2   2  257.12   53.41
   4   2  -2 1087.72  208.14
  -4  -2   2 1100.72  208.50
   3   2  -2   39.16   11.69
  -3  -2   2   45.90   13.56
   2   2  -2 2045.15  385.67
  -2  -2   2 2089.74  385.67
  -2  -2   2 1972.22  386.45
   1   2  -2 1116.05  218.31
  -1  -2   2 1209.68  241.37
  -1  -2   2 1154.92  203.95
  -1  -2   2 1137.29  218.30
   0   2  -2   14.74    8.21
   0   2  -2   15.48    6.27
   0  -2   2   20.55    6.01
   0  -2   2   11.68    6.22
   0  -2   2   19.17    8.20
   0  -2   2   18.69    6.11
  -1   2  -2  158.49   32.25
   1  -2   2  163.88   36.08
   1  -2   2  162.58   30.32
   1  -2   2  177.34   32.23
   1  -2   2  151.47   30.94
  -2   2  -2  228.29   42.61
   2  -2   2  193.10   42.51
   2  -2   2  212.46   40.35
   2  -2   2  245.73   41.63
   2  -2   2  213.53   47.73
  -3   2  -2 1437.30  280.87
   3  -2   2 1465.83  262.55
   3  -2   2 1532.88  268.70
   3  -2   2 1499.57  310.53
  -4   2  -2  668.95  128.61
   4  -2   2  713.49  142.44
   4  -2   2  636.49  123.18
   4  -2   2  669.16  120.35
  -5   2  -2   32.22   11.62
   5  -2   2   28.49   12.16
   5  -2   2   24.65   13.80
  -6   2  -2    9.12   10.25
   6  -2   2   -4.11    9.34
  -7   2  -2  531.87   99.76
   7  -2   2  481.74   95.22
  -8   2  -2  776.02  159.90
   8  -2   2  881.88  153.32
  -9   2  -2    6.13   14.57
   9  -2   2  -14.97   10.85
   9  -2   2   12.33   12.72
 -10   2  -2  271.60   60.26
  10  -2   2  280.61   59.27
 -11   2  -2   -5.62   18.43
  11  -2   2    4.66   15.70
 -12   2  -2  116.85   38.51
  12  -2   2  163.80   37.03
 -13   2  -2   39.17   25.78
 -13  -1   2   30.90   26.45
  12   1  -2  196.64   39.77
 -12  -1   2  117.16   40.14
  11   1  -2  138.30   35.47
 -11  -1   2  155.73   39.15
  10   1  -2   27.36   15.98
 -10  -1   2   45.60   20.40
   9   1  -2  243.00   53.36
  -9  -1   2  260.69   54.54
   8   1  -2   26.85   11.73
  -8  -1   2   -7.70   12.28
   7   1  -2  131.53   31.39
  -7  -1   2  155.87   32.81
   6   1  -2   17.07    9.37
  -6  -1   2    8.15   10.80
   5   1  -2 1580.25  302.04
  -5  -1   2 1604.21  302.31
   4   1  -2 1380.39  251.24
  -4  -1   2 1266.28  251.28
   3   1  -2  113.67   24.09
  -3  -1   2  114.57   24.18
   2   1  -2 2324.56  451.60
  -2  -1   2 2455.72  451.80
   1   1  -2 1049.97  204.87
   1   1  -2 1119.05  204.62
   1   1  -2 1145.01  273.15
  -1  -1   2 1008.94  205.14
   0   1  -2  579.94  151.48
   0   1  -2  632.93  113.18
   0  -1   2  592.96  108.22
   0  -1   2  567.46  105.77
   0  -1   2  603.26  124.93
  -1   1  -2  321.46   60.96
   1  -1   2  316.53   67.13
   1  -1   2  330.42   58.69
   1  -1   2  307.09   57.12
  -2   1  -2   75.75   19.97
   2  -1   2  110.70   22.32
   2  -1   2   94.69   19.17
   2  -1   2  103.97   20.01
  -3   1  -2 1440.14  259.06
   3  -1   2 1348.93  247.74
   3  -1   2 1368.44  285.85
   3  -1   2 1308.93  241.99
  -4   1  -2  122.47   28.22
   4  -1   2  131.16   27.18
   4  -1   2  146.54   27.18
  -5   1  -2   49.57   14.71
   5  -1   2   44.26   13.48
  -6   1  -2   49.07   15.14
   6  -1   2   33.35   13.08
  -7   1  -2  696.71  121.86
   7  -1   2  563.86  115.68
  -8   1  -2   85.49   21.71
   8  -1   2   50.64   18.49
  -9   1  -2  -10.95   13.55
   9  -1   2   -7.39   11.48
   9  -1   2   13.03   14.01
 -10   1  -2   28.73   18.93
  10  -1   2   21.50   15.75
 -11   1  -2   72.18   26.01
  11  -1   2   70.32   24.29
 -12   1  -2  104.14   30.61
  12  -1   2   65.78   26.02
  13   0  -2  -27.43   14.94
  12   0  -2  220.94   51.03
 -12   0   2  239.55   54.18
  11   0  -2  139.93   35.11
 -11   0   2  150.04   37.97
  10   0  -2    3.59   14.26
 -10   0   2   51.64   19.34
   9   0  -2  198.25   39.46
  -9   0   2  148.53   40.52
   8   0  -2  236.30   40.36
  -8   0   2  136.00   38.97
   7   0  -2  253.79   45.90
  -7   0   2  180.13   45.30
   6   0  -2   27.18   10.84
  -6   0   2   14.73   10.65
   5   0  -2 1124.32  213.92
   4   0  -2  798.89  158.09
   4   0  -2  809.01  158.30
  -4   0   2  889.54  158.51
   3   0  -2  712.21  139.90
   3   0  -2  756.40  139.81
  -3   0   2  733.07  139.94
   2   0  -2  436.09   99.45
   2   0  -2  372.89   70.79
   2   0  -2  357.83   70.88
  -2   0   2  362.75   70.92
   1   0  -2  135.27   26.37
   1   0  -2  225.90   43.53
   1   0  -2  129.63   26.36
  -1   0   2  132.84   26.41
   0   0  -2 1059.71  200.89
   0   0  -2 1115.52  200.60
   0   0  -2 1075.43  269.05
   0   0   2 1112.95  192.09
   0   0   2 1091.85  187.66
   0   0   2  873.88  201.16
  -1   0  -2   44.52   56.45
  -1   0  -2   26.01  110.63
  -1   0  -2  108.33   19.31
   1   0   2  107.47   18.58
   1   0   2   83.60   19.06
  -2   0  -2   -8.97   31.09
  -2   0  -2    4.29    5.09
  -2   0  -2   30.60   35.89
  -2   0  -2    1.31    6.60
   2   0   2    3.68    6.54
   2   0   2   -0.69    5.97
  -3   0  -2   39.98   11.95
   3   0   2   43.25   11.01
   3   0   2   38.09   11.53
  -4   0  -2  218.88   42.91
   4   0   2  201.42   41.00
  -5   0  -2  173.31   41.46
   5   0   2  233.74   40.73
  -6   0  -2  498.21  105.55
   6   0   2  591.36  101.21
  -7   0  -2  911.48  174.91
   7   0   2  906.00  167.20
  -8   0  -2   54.91   19.01
   8   0   2   43.13   17.82
  -9   0  -2  317.81   69.64
   9   0   2  348.33   69.61
 -10   0  -2   43.29   21.92
  10   0   2   64.02   21.20
 -11   0  -2  267.42   63.23
  11   0   2  319.84   64.54
  13  -1  -2  218.22   43.94
  13  -1  -2   81.23   71.54
  12  -1  -2  181.01   42.12
  11  -1  -2   18.16   14.49
  10  -1  -2   61.40   20.51
 -10   1   2   48.06   21.68
   9  -1  -2  155.43   80.02
   9  -1  -2   36.78   16.31
  -9   1   2   31.25   16.64
   8  -1  -2  787.92  144.60
  -8   1   2  704.95  145.21
   7  -1  -2  327.26   66.49
   7  -1  -2  372.97   67.37
  -7   1   2  298.81   67.27
   6  -1  -2  345.79   68.77
   6  -1  -2  385.04   68.97
  -6   1   2  311.91   69.90
   5  -1  -2  206.89   43.77
   5  -1  -2  202.03   44.13
   5  -1  -2  594.35  142.89
  -5   1   2  198.47   44.29
   4  -1  -2  274.56   53.36
   4  -1  -2  341.90   81.18
   4  -1  -2  240.76   53.35
  -4   1   2  293.07   53.83
   3  -1  -2  244.25   46.98
   3  -1  -2  231.16   47.03
   3  -1  -2  206.48   69.12
  -3   1   2  263.43   47.46
   2  -1  -2 1053.75  204.98
   2  -1  -2  947.06  276.21
   2  -1  -2 1163.16  205.01
   1  -1  -2 1973.44  398.86
   1  -1  -2 1974.85  483.10
   1  -1  -2 1702.05  836.38
   0  -1  -2  361.74   78.08
   0  -1  -2  393.85   99.20
   0   1   2  367.91   67.05
   0   1   2  366.07   65.36
  -1  -1  -2   15.67    6.81
  -1  -1  -2    4.92   50.93
  -1  -1  -2   29.05   70.31
  -1  -1  -2   13.49    4.14
  -1  -1  -2    6.51    8.07
   1   1   2    8.27    5.48
   1   1   2   11.95    6.23
   1   1   2   22.99    5.80
  -2  -1  -2  -15.40   61.73
  -2  -1  -2  114.37   21.87
  -2  -1  -2   11.16  120.12
  -2  -1  -2   99.76   20.52
   2   1   2  103.89   19.72
   2   1   2  103.76   20.36
  -3  -1  -2  219.39  264.76
  -3  -1  -2  334.83   68.91
  -3  -1  -2  328.05   63.39
   3   1   2  323.26   60.74
   3   1   2  336.58   59.20
  -5  -1  -2   39.84   13.03
   5   1   2   37.17   12.31
  -6  -1  -2  397.88   84.15
   6   1   2  449.80   80.05
  -7  -1  -2   10.89   11.90
   7   1   2  -11.83    9.59
  -8  -1  -2 1333.74 1081.52
  -9  -1  -2  590.80  721.08
 -10  -1  -2   40.51   20.45
 -10  -1  -2   72.72  486.58
 -11  -1  -2  357.62  598.09
 -12  -1  -2  125.43  646.46
 -12  -1  -2    2.17   19.91
  13  -2  -2  141.38   68.40
  13  -2  -2  137.82   35.38
  12  -2  -2  161.59   37.20
  12  -2  -2  116.75   69.96
  11  -2  -2   16.35   45.05
  11  -2  -2   38.76   17.81
  10  -2  -2   50.89   17.81
  10  -2  -2   56.48   47.40
   9  -2  -2  265.25  153.98
   9  -2  -2  192.97   84.71
   9  -2  -2  287.86   57.16
  -9   2   2  312.36   59.56
   8  -2  -2  763.16  167.30
   8  -2  -2  529.05  114.06
   8  -2  -2  528.23  280.42
   8  -2  -2  600.80  113.89
  -8   2   2  609.26  115.03
   7  -2  -2   87.40   20.78
   7  -2  -2   65.97   42.44
   7  -2  -2  113.97   21.44
   7  -2  -2   74.08   77.56
  -7   2   2   58.80   21.05
   6  -2  -2  227.63   45.23
   6  -2  -2  234.01   45.33
   6  -2  -2  294.16  128.68
   6  -2  -2  225.54   72.24
  -6   2   2  187.51   45.43
   5  -2  -2  130.82   27.16
   5  -2  -2  138.59   27.37
   5  -2  -2  141.26   47.52
   5  -2  -2  122.15   87.35
  -5   2   2  115.58   27.85
   4  -2  -2  433.58   79.79
   4  -2  -2  357.86  204.91
   4  -2  -2  419.71   79.75
   4  -2  -2  360.52  113.99
   3  -2  -2  145.05   30.78
   3  -2  -2  145.33   45.02
   3  -2  -2  109.32   84.25
   3  -2  -2  116.78   22.38
   3  -2  -2  109.03   22.35
   2  -2  -2    8.63   72.27
   2  -2  -2   50.96   18.66
   2  -2  -2   64.00   31.47
   1  -2  -2 3063.90  773.39
   1  -2  -2 3065.52  639.82
   0  -2  -2   17.00   25.32
   0  -2  -2   61.44   69.76
   0  -2  -2   40.56   11.74
   0   2   2    8.51    5.46
   0   2   2   13.08    4.43
  -1  -2  -2    5.62   74.05
  -1  -2  -2    6.55    7.47
  -1  -2  -2   16.06   59.14
   1   2   2    8.50    5.36
   1   2   2   -3.07    3.94
  -2  -2  -2   31.89    9.74
  -2  -2  -2   44.53   10.57
  -2  -2  -2   33.03   61.01
  -2  -2  -2   32.26   64.48
   2   2   2   28.38    8.45
   2   2   2   33.46    9.48
  -3  -2  -2  238.54   56.22
  -3  -2  -2  169.87  225.05
  -3  -2  -2  304.60   51.60
   3   2   2  276.38   49.56
  -4  -2  -2 1214.16  250.79
  -4  -2  -2 1247.62  409.21
  -4  -2  -2 1222.93  227.78
   4   2   2 1146.91  217.73
  -5  -2  -2   58.11   16.30
  -5  -2  -2    7.86  176.70
  -5  -2  -2   62.88   16.37
   5   2   2   65.05   16.03
  -6  -2  -2   95.63  264.76
  -6  -2  -2  155.49   34.24
  -6  -2  -2  155.11   36.07
   6   2   2  161.20   33.25
  -7  -2  -2   94.89   28.18
  -7  -2  -2  362.20  333.91
  -7  -2  -2  146.28   30.41
   7   2   2  100.78   26.84
  -8  -2  -2  904.49  153.09
  -8  -2  -2  959.47  706.14
  -8  -2  -2  533.16  137.69
  -9  -2  -2  -35.21  365.52
  -9  -2  -2  -15.14   14.94
 -10  -2  -2   99.63  502.57
 -10  -2  -2  237.14   52.54
 -11  -2  -2 -367.45  588.69
 -11  -2  -2  160.08   38.99
 -12  -2  -2  106.94   35.28
 -12  -2  -2   -7.31  609.85
 -12  -2  -2  -74.92  158.58
  13  -3  -2    3.99   52.92
  13  -3  -2   82.29   23.64
  12  -3  -2   -0.23   42.45
  12  -3  -2  -22.18   12.71
  11  -3  -2   93.16   24.04
  11  -3  -2   37.42   55.19
  10  -3  -2    2.96   11.89
  10  -3  -2  -34.47   39.05
   9  -3  -2  370.66   92.69
   9  -3  -2  325.87   55.41
   9  -3  -2   84.55  139.99
   8  -3  -2  139.75  161.26
   8  -3  -2  372.00   62.74
   8  -3  -2  337.64   63.43
   8  -3  -2  351.02  100.89
  -8   3   2  271.36   64.04
   7  -3  -2   54.94   96.55
   7  -3  -2   90.39   55.28
   7  -3  -2  174.16   31.53
   7  -3  -2  133.44   30.94
  -7   3   2  181.97   33.96
   6  -3  -2  -21.10   56.55
   6  -3  -2  -13.19    5.42
   6  -3  -2    2.13   26.98
   6  -3  -2    6.15    7.22
  -6   3   2    1.51    7.76
   5  -3  -2  994.86  223.63
   5  -3  -2 1098.44  199.70
   5  -3  -2 1086.55  199.65
   5  -3  -2  889.40  271.41
   4  -3  -2  999.49  250.03
   4  -3  -2  940.56  204.54
   3  -3  -2  -13.34   28.64
   3  -3  -2  -21.23   65.42
   3  -3  -2   11.81   16.27
   2  -3  -2  339.93  102.51
   2  -3  -2  368.86   79.75
   1  -3  -2   -6.58   90.58
   1  -3  -2  287.10   58.45
   1  -3  -2  194.47   38.63
   0  -3  -2  496.71  105.89
   0  -3  -2  562.83  131.37
   0   3   2  493.40   87.55
   0   3   2  484.02   89.99
  -1  -3  -2    4.08  100.96
  -1  -3  -2  207.27   42.49
   1   3   2  196.91   33.73
   1   3   2  192.57   35.05
  -2  -3  -2   40.48   70.47
  -3  -3  -2 1767.90  349.69
  -3  -3  -2 1511.63  316.85
   3   3   2 1728.34  302.68
  -4  -3  -2   25.82  155.37
  -4  -3  -2   89.88   23.36
  -4  -3  -2  103.03   24.01
   4   3   2  113.10   21.93
  -5  -3  -2  170.47   35.71
  -5  -3  -2  169.04   37.07
  -5  -3  -2 -128.59  224.41
  -5  -3  -2  170.81  102.35
   5   3   2  178.35   33.39
  -6  -3  -2   -3.31   11.18
  -6  -3  -2   11.01   77.73
  -6  -3  -2  -12.91   11.66
  -6  -3  -2  -68.15  259.39
   6   3   2   12.45   10.13
  -7  -3  -2 -147.83  401.35
  -7  -3  -2  401.08   84.92
  -7  -3  -2  375.46   79.07
  -7  -3  -2  570.39  195.54
   7   3   2  432.99   74.21
  -8  -3  -2   72.50  137.27
  -8  -3  -2  -51.96  403.81
  -8  -3  -2  226.48   45.33
  -9  -3  -2   85.88  351.22
  -9  -3  -2   -2.88   19.21
  -9  -3  -2  -42.07   92.80
 -10  -3  -2  -17.08   20.76
 -10  -3  -2  127.48  459.47
 -10  -3  -2   29.60  129.33
 -11  -3  -2 -444.17  500.05
 -11  -3  -2   20.32   26.81
 -11  -3  -2  116.71  157.57
  13  -4  -2   39.57   57.01
  13  -4  -2   12.51   15.61
  12  -4  -2  150.37   75.08
  12  -4  -2  165.35   37.52
  11  -4  -2   75.19   21.79
  11  -4  -2   73.55   60.55
  10  -4  -2   69.68   19.83
  10  -4  -2   67.70   50.49
   9  -4  -2  416.45   80.85
   9  -4  -2  495.93  129.97
   9  -4  -2  390.35   80.33
   8  -4  -2   23.48   11.88
   8  -4  -2   73.34   47.66
   8  -4  -2   34.40   78.21
   8  -4  -2   47.31   12.92
   7  -4  -2  172.56   67.32
   7  -4  -2  185.58   35.39
   7  -4  -2  193.97   35.68
   7  -4  -2   24.70  102.82
   6  -4  -2  -37.46   59.99
   6  -4  -2   36.53   21.81
   6  -4  -2   28.08    8.05
   6  -4  -2   27.38   33.06
   6  -4  -2   31.48    8.37
   5  -4  -2  794.83  189.00
   5  -4  -2  643.75  147.43
   4  -4  -2  937.39  200.32
   4  -4  -2  942.54  245.74
   3  -4  -2  298.20   73.43
   3  -4  -2  367.43   96.73
   2  -4  -2   -9.62   14.51
   2  -4  -2   -4.53   66.20
   2  -4  -2   20.69   32.74
   1  -4  -2   65.46   93.07
   1  -4  -2  188.91   35.56
   1  -4  -2   89.73   45.71
   0  -4  -2 1022.43  208.26
   0  -4  -2 1012.19  254.20
   0   4   2  963.65  178.35
  -1  -4  -2   48.43   80.78
  -1  -4  -2   24.61   16.65
   1   4   2   58.84   11.18
  -2  -4  -2   29.28   70.42
  -3  -4  -2  462.50   97.99
   3   4   2  455.58   84.21
  -4  -4  -2    4.87   12.92
  -4  -4  -2   27.40   11.42
  -4  -4  -2  -43.31  136.07
   4   4   2   33.42    9.95
  -5  -4  -2   11.89    9.25
  -5  -4  -2  -28.75   11.89
  -5  -4  -2   67.60  175.93
   5   4   2    6.98    8.60
  -6  -4  -2  320.02   78.28
  -6  -4  -2  418.93   84.41
   6   4   2  393.47   73.43
  -7  -4  -2  538.92  105.28
  -7  -4  -2  395.74   98.34
  -8  -4  -2  -11.59   18.60
  -8  -4  -2   50.31  103.92
  -8  -4  -2  105.60  287.21
  -9  -4  -2 -306.93  374.76
  -9  -4  -2  175.70   40.15
 -10  -4  -2 -453.53  390.42
 -10  -4  -2   15.23   27.66
 -11  -4  -2  158.29   45.29
 -11  -4  -2 -267.47  458.40
  13  -5  -2   99.51   26.15
  13  -5  -2   90.42   78.23
  12  -5  -2  114.36   28.45
  12  -5  -2  159.73   79.00
  11  -5  -2   52.45   17.09
  11  -5  -2   64.09   60.27
  10  -5  -2   58.90   15.95
  10  -5  -2  102.44   59.36
  10  -5  -2   40.04   16.14
   9  -5  -2  -62.24   65.89
   9  -5  -2   -4.78   39.03
   9  -5  -2    4.96    8.36
   9  -5  -2  -10.77    8.23
   8  -5  -2  190.56   35.49
   8  -5  -2   -0.72  106.11
   8  -5  -2  196.82   35.71
   8  -5  -2  134.11   69.45
   7  -5  -2  237.13   59.71
   7  -5  -2   82.22   26.43
   7  -5  -2  -64.12   66.07
   6  -5  -2  244.69   63.47
   6  -5  -2   -1.65   92.42
   6  -5  -2  202.62   42.50
   5  -5  -2  697.13  197.20
   5  -5  -2  743.61  157.80
   4  -5  -2    4.42   74.90
   4  -5  -2   22.72   17.75
   4  -5  -2    1.31   34.21
   3  -5  -2  653.64  145.01
   3  -5  -2  721.26  184.65
   2  -5  -2   35.95  102.00
   2  -5  -2  178.47   39.16
   2  -5  -2  159.51   54.77
   1  -5  -2  801.61  169.55
   1  -5  -2  782.65  207.35
   0  -5  -2 1123.98  235.38
   0  -5  -2 1184.38  286.87
   0   5   2 1093.29  201.29
  -1  -5  -2    7.75   12.51
  -1  -5  -2  -45.78   75.05
   1   5   2   15.45    5.07
  -2  -5  -2 1182.95  240.12
   2   5   2 1116.64  206.26
  -3  -5  -2   -8.23   10.92
  -3  -5  -2   10.65  114.70
   3   5   2   23.13    7.01
  -4  -5  -2  209.65   43.29
  -4  -5  -2  -53.69  197.31
   4   5   2  202.10   36.15
  -5  -5  -2  -10.59   11.15
  -6  -5  -2  -88.53  274.07
  -6  -5  -2  317.39   52.70
  -7  -5  -2 -230.89  232.72
  -7  -5  -2  263.93   41.54
  -8  -5  -2  -24.72   22.94
  -8  -5  -2 -357.41  254.22
  -9  -5  -2 -157.80  286.84
  -9  -5  -2   -0.48   27.62
 -10  -5  -2 -210.21  341.92
 -10  -5  -2   40.84   33.70
  13  -6  -2   57.39   73.09
  12  -6  -2  116.93   86.70
  12  -6  -2  181.78   36.89
  11  -6  -2    2.80    7.83
  11  -6  -2    3.71    9.06
  11  -6  -2   14.41   57.69
  10  -6  -2   64.78   16.30
  10  -6  -2  -24.56   50.12
  10  -6  -2   84.46  104.96
  10  -6  -2   90.02   16.42
   9  -6  -2   -3.49   79.48
   9  -6  -2   -0.48   47.47
   8  -6  -2  593.88  141.54
   8  -6  -2  696.39  183.93
   7  -6  -2  -11.75   80.57
   7  -6  -2    4.25   47.16
   7  -6  -2    9.10   22.97
   6  -6  -2   36.32   21.76
   6  -6  -2  -35.41   76.99
   6  -6  -2   97.58   52.05
   5  -6  -2  218.90   66.71
   5  -6  -2   16.68  103.61
   5  -6  -2  187.69   43.80
   4  -6  -2   16.64   40.32
   4  -6  -2   20.34   80.25
   4  -6  -2   50.21   22.85
   3  -6  -2    6.47   34.85
   3  -6  -2   42.93   22.74
   3  -6  -2    1.78   89.14
   2  -6  -2  -30.67   28.59
   2  -6  -2   44.89   85.44
   2  -6  -2   44.79   19.68
   1  -6  -2  870.22  188.37
   1  -6  -2  892.57  230.49
  -1   6   2  884.05  159.81
   0  -6  -2  352.29   80.82
   0  -6  -2  368.80  102.71
  -1  -6  -2    0.03   13.86
  -1  -6  -2   12.08   87.64
  -2  -6  -2  260.47   55.05
   2   6   2  227.13   42.68
  -3  -6  -2  204.72   49.16
  -4  -6  -2  284.35   65.19
  -5  -6  -2  -69.51  192.51
  -5  -6  -2   70.47   21.48
  -6  -6  -2   -1.75  259.57
  -6  -6  -2  269.39   54.17
  -7  -6  -2  111.05  237.92
  -8  -6  -2 -109.06  245.61
  -9  -6  -2 -409.05  277.09
  -9  -6  -2   14.09   21.28
 -10  -6  -2 -206.52  352.36
  12  -7  -2   25.30   69.67
  11  -7  -2 -107.76   44.66
  10  -7  -2   27.77   84.71
  10  -7  -2  -22.71   55.95
   9  -7  -2  258.41   82.44
   9  -7  -2   82.11  110.56
   8  -7  -2  470.45  154.24
   8  -7  -2  528.91  118.84
   7  -7  -2   39.05   91.69
   7  -7  -2   12.60   22.74
   7  -7  -2    0.63   47.78
   6  -7  -2  151.29   61.10
   6  -7  -2  178.76   40.61
   6  -7  -2  -53.31   90.29
   5  -7  -2   67.79   32.59
   5  -7  -2  136.30   52.90
   5  -7  -2   42.65  102.83
   4  -7  -2  728.59  157.55
   4  -7  -2  674.83  194.62
   3  -7  -2   63.08   44.32
   3  -7  -2  -39.34   81.60
   3  -7  -2  124.61   31.31
   2  -7  -2 1209.04  308.17
   2  -7  -2 1175.27  253.28
   1  -7  -2  663.72  157.12
   1  -7  -2  588.13  125.36
  -1   7   2  553.07  102.50
   0  -7  -2  -56.65   90.94
   0  -7  -2   27.09   18.47
   0  -7  -2   52.31   32.36
  -1  -7  -2  553.43  121.85
  -2  -7  -2    9.55   17.46
  -3  -7  -2 1039.49  220.96
  -4  -7  -2  285.09   66.36
  -5  -7  -2  -38.38  180.37
  -5  -7  -2   38.66   20.19
  -6  -7  -2  -72.23  226.86
  -7  -7  -2   73.97  240.53
  -8  -7  -2   28.83  273.82
  -9  -7  -2  176.55  371.12
  12  -8  -2 -104.29   65.18
  11  -8  -2  -33.42   62.45
  10  -8  -2   28.24  103.24
  10  -8  -2   64.20   68.89
   9  -8  -2  395.77   75.48
   9  -8  -2   62.78  157.16
   9  -8  -2  374.18  111.07
   8  -8  -2  372.53  120.17
   8  -8  -2  310.42   83.19
   7  -8  -2   23.20   56.95
   7  -8  -2  -31.79   23.26
   7  -8  -2  -36.44   89.58
   6  -8  -2   42.71  104.33
   6  -8  -2    9.63   22.89
   6  -8  -2   -6.07   45.18
   5  -8  -2   67.80  130.92
   5  -8  -2  234.65   52.65
   5  -8  -2  153.70   70.58
   4  -8  -2   44.73  110.87
   4  -8  -2  185.47   42.56
   4  -8  -2   61.85   52.71
   3  -8  -2   83.67   43.19
   3  -8  -2  -22.45   84.81
   3  -8  -2    9.05   24.10
   2  -8  -2  721.96  193.23
   2  -8  -2  664.43  156.12
  -2   8   2  717.02  128.82
   1  -8  -2   32.62  129.96
   1  -8  -2  281.12   53.65
   1  -8  -2  194.05   65.98
   0  -8  -2   22.80   20.70
  -1  -8  -2  115.82   35.93
  -2  -8  -2   50.13   25.90
  -3  -8  -2  139.79   39.43
  -4  -8  -2    7.33   19.79
  -7  -8  -2  140.39  292.53
  -8  -8  -2   30.81  323.29
  11  -9  -2   55.97   83.45
  10  -9  -2   38.47  124.75
  10  -9  -2   86.21   79.98
   9  -9  -2   14.62   67.73
   9  -9  -2   43.78   36.44
   9  -9  -2    8.01  115.87
   8  -9  -2  -45.19   95.86
   8  -9  -2  -31.47   26.58
   8  -9  -2   38.02   64.14
   7  -9  -2    5.40   27.02
   7  -9  -2  -97.21   94.57
   7  -9  -2  -17.65   54.09
   6  -9  -2  -35.33   47.52
   6  -9  -2  101.31   34.49
   6  -9  -2  -38.41   96.66
   5  -9  -2  938.38  234.60
   5  -9  -2  779.60  186.78
   4  -9  -2   12.67  116.61
   4  -9  -2   78.44   54.69
   4  -9  -2  107.27   37.85
   3  -9  -2  569.30  169.60
   3  -9  -2  634.93  138.45
   2  -9  -2   35.76  121.93
   2  -9  -2  159.71   53.55
   2  -9  -2  104.15   37.98
   1  -9  -2   78.14   33.27
   1  -9  -2  100.12   46.21
   0  -9  -2  178.68   50.08
  -1  -9  -2    9.15   23.02
  -2  -9  -2  642.45  143.43
  -3  -9  -2   58.65   27.88
  -4  -9  -2   77.80   31.19
  10 -10  -2   10.05  126.96
  10 -10  -2   17.44   71.28
  10 -10  -2   48.76   42.99
   9 -10  -2    4.01   29.34
   9 -10  -2   59.08   74.13
   9 -10  -2 -174.01  102.86
   8 -10  -2  236.27   86.38
   8 -10  -2   19.49  137.43
   8 -10  -2   94.75   43.21
   7 -10  -2  154.85   48.02
   7 -10  -2    7.16  135.21
   7 -10  -2  128.83   71.61
   6 -10  -2   24.00   53.14
   6 -10  -2  127.17   40.16
   6 -10  -2   30.57  116.72
   5 -10  -2  -46.42  123.44
   5 -10  -2  246.19   53.89
   5 -10  -2  232.94   77.03
   4 -10  -2  -18.76  126.34
   4 -10  -2  165.64   65.72
   4 -10  -2  155.58   45.23
   3 -10  -2   27.54  108.05
   3 -10  -2  -23.46   35.07
   3 -10  -2    3.55   28.70
   2 -10  -2   32.73   27.45
   2 -10  -2  -20.93   34.08
   1 -10  -2  161.37   50.04
   0 -10  -2   57.74   32.46
  -1 -10  -2   32.93   28.56
  -2 -10  -2   76.29   34.58
  -3 -10  -2    4.84   28.30
   9 -11  -2   87.99   45.86
   9 -11  -2   53.62  145.38
   9 -11  -2   72.14   79.46
   8 -11  -2   51.93   35.66
   8 -11  -2   35.39  145.56
   8 -11  -2  -16.64   62.60
   7 -11  -2   47.24  145.12
   7 -11  -2  143.79   68.04
   7 -11  -2   47.92   39.96
   6 -11  -2  276.53   84.22
   6 -11  -2  162.55   53.58
   6 -11  -2   -0.51  145.11
   5 -11  -2  -23.77   46.16
   5 -11  -2   88.98   38.67
   4 -11  -2  271.80   91.53
   4 -11  -2  254.89   72.18
   3 -11  -2   33.56   32.66
   3 -11  -2   31.12   41.13
   2 -11  -2  520.99  123.79
   1 -11  -2  415.29  100.29
   0 -11  -2   64.80   38.95
  -1 -11  -2   32.60   33.47
  -2 -11  -2  -21.35   28.03
   8 -12  -2   26.38   36.78
   7 -12  -2   83.16   43.35
   6 -12  -2   18.08   41.67
   5 -12  -2   25.96   38.69
   5 -12  -2  -24.32   42.77
   4 -12  -2   45.07   47.38
   4 -12  -2   45.92   39.81
   3 -12  -2  -70.43   32.29
   3 -12  -2   -4.81   33.86
   2 -12  -2  175.62   58.93
   1 -12  -2  119.25   48.03
   0 -12  -2    1.13   29.61
  -1 -12  -2  -33.12   29.51
  -2 -12  -2   32.99   37.97
   5 -13  -2  193.71   64.48
   4 -13  -2   29.43   39.54
   3 -13  -2   22.02   38.60
   2 -13  -2  106.93   49.73
   1 -13  -2   11.98   38.82
  -1 -14   3   10.43   31.49
   0 -14   3  196.74   63.05
   1 -14   3   16.11   31.65
   2 -14   3   75.85   42.63
   3 -14   3   45.53   38.18
   4 -14   3  185.91   63.13
   5 -14   3  137.69   58.02
   6 -14   3   79.93   48.16
  -4 -13   3   63.88   36.42
  -3 -13   3  205.86   61.50
  -2 -13   3   25.33   31.43
  -1 -13   3  196.63   60.28
   0 -13   3   16.86   30.22
   1 -13   3   66.24   37.34
   2 -13   3  101.93   43.67
   3 -13   3  124.56   47.73
   4 -13   3  553.09  132.86
   5 -13   3   93.65   44.95
   6 -13   3   89.66   46.96
   7 -13   3   -8.81   35.67
   8 -13   3   90.40   48.78
  -5 -12   3   14.05   28.85
  -4 -12   3  122.89   43.62
  -3 -12   3  218.75   61.19
  -2 -12   3   -4.19   25.77
  -1 -12   3  146.16   46.84
   0 -12   3  -26.65   25.63
   1 -12   3  368.83   90.87
   2 -12   3   39.56   31.19
   3 -12   3  262.95   71.68
   4 -12   3  125.84   47.84
   5 -12   3   46.11   34.77
   6 -12   3   -4.90   29.63
   7 -12   3  204.95   66.15
   8 -12   3  389.49  100.32
   9 -12   3  -20.08   32.85
  -6 -11   3   59.16   32.77
  -5 -11   3   63.94   31.38
  -4 -11   3  194.76   54.06
  -3 -11   3  -33.31   21.05
  -2 -11   3   22.30   25.53
  -1 -11   3   26.54   25.62
   0 -11   3  502.93  115.94
   1 -11   3  393.94   95.37
   2 -11   3   76.16   33.84
   3 -11   3  289.39   75.92
   4 -11   3   35.05   27.60
   5 -11   3  148.87   48.11
   6 -11   3  105.26   42.38
   7 -11   3  331.62   87.37
   8 -11   3  304.47   81.35
   9 -11   3   -3.84   33.19
  10 -11   3   -0.63   34.42
  -7 -10   3  324.33   80.31
  -6 -10   3  108.95   38.70
  -5 -10   3  282.62   69.75
  -4 -10   3  150.80   43.19
  -3 -10   3   15.17   21.08
  -2 -10   3  171.35   47.67
  -1 -10   3   27.57   23.18
   0 -10   3  882.77  191.09
   1 -10   3  282.22   69.49
   2 -10   3  173.18   53.37
   2 -10   3  216.02   39.30
   3 -10   3  -11.39   21.10
   3 -10   3   -4.28    7.52
   3 -10   3   -8.19   16.95
   4 -10   3  260.24   79.36
   4 -10   3  408.48   96.45
   5 -10   3  220.85   61.18
   5 -10   3  223.55   71.80
   6 -10   3  -19.09   31.20
   6 -10   3   -2.65   24.80
   7 -10   3  247.29   75.38
   7 -10   3  147.50   52.79
   8 -10   3   20.27   31.84
   8 -10   3  -29.31   49.62
   9 -10   3   67.47   36.89
  10 -10   3  -17.55   29.26
  11 -10   3  138.71   49.79
  -9  -9   3  204.80  307.81
  -8  -9   3  182.13  272.61
  -8  -9   3  138.36   45.12
  -7  -9   3  101.45   37.10
  -6  -9   3  -17.53   20.95
  -5  -9   3  140.98   40.66
  -4  -9   3   -0.95   18.92
  -3  -9   3  101.46   31.83
  -2  -9   3   42.81   20.20
  -2  -9   3    5.95    7.27
  -1  -9   3  938.45  164.03
  -1  -9   3  886.21  198.09
   0  -9   3  635.02  137.97
   0  -9   3  615.68  110.44
   1  -9   3   11.15    7.21
   1  -9   3    8.39   16.52
   2  -9   3  315.41   56.42
   2  -9   3  279.41   72.39
   3  -9   3  199.57   36.77
   3  -9   3  200.79   50.63
   3  -9   3  155.77   36.80
   3  -9   3  211.32   56.50
   4  -9   3  685.68  127.95
   4  -9   3  688.02  185.28
   4  -9   3  697.06  158.33
   4  -9   3  755.87  131.08
   5  -9   3  193.57   39.83
   5  -9   3  160.07   52.52
   5  -9   3  199.33   63.34
   6  -9   3    1.25   34.02
   6  -9   3   -6.33   22.42
   7  -9   3   46.41   40.69
   7  -9   3   58.46   33.45
   8  -9   3   13.45    7.17
   8  -9   3  -14.67   25.98
   8  -9   3  -25.00   40.15
   8  -9   3   43.56    8.23
   9  -9   3  190.65   34.20
   9  -9   3  153.63   71.00
   9  -9   3  148.17   50.38
   9  -9   3  148.51   33.23
  10  -9   3   61.36   54.04
  10  -9   3   28.57   31.03
  10  -9   3    8.68    8.99
  10  -9   3    9.39   11.33
  11  -9   3  211.46   41.66
  11  -9   3  172.76   59.84
  11  -9   3  168.11   85.38
  12  -9   3   74.15   72.49
 -10  -8   3  357.87  406.74
  -9  -8   3   20.53   37.04
  -9  -8   3  153.33  160.19
  -9  -8   3  -35.91   23.22
  -9  -8   3  -76.60  261.10
  -8  -8   3  690.08  278.25
  -8  -8   3  573.86  132.17
  -7  -8   3  732.78  236.67
  -7  -8   3  471.64   89.83
  -7  -8   3  127.61  337.67
  -6  -8   3    4.47  205.88
  -6  -8   3   90.02  110.73
  -6  -8   3  150.20   36.56
  -5  -8   3   53.01   21.41
  -5  -8   3   23.16   11.68
  -5  -8   3   70.44   94.07
  -4  -8   3  299.62   65.25
  -4  -8   3  156.53  134.82
  -4  -8   3  268.73   50.65
  -3  -8   3  936.51  170.74
  -3  -8   3 1010.96  205.01
  -2  -8   3   19.39    7.45
  -2  -8   3   -0.31   15.56
  -1  -8   3  323.07   80.41
  -1  -8   3  366.58   64.30
   0  -8   3  254.99   70.89
   0  -8   3  331.62   56.57
   1  -8   3  183.36   36.26
   1  -8   3  210.06   36.48
   1  -8   3  173.08   48.28
   2  -8   3   35.71   13.01
   2  -8   3   71.76   14.01
   2  -8   3   60.64   24.07
   2  -8   3   51.94   22.19
   3  -8   3  502.49  146.11
   3  -8   3  581.77  102.49
   3  -8   3  545.40  100.04
   3  -8   3  591.61  125.00
   4  -8   3  621.83  173.46
   4  -8   3  711.59  122.67
   4  -8   3  697.23  119.83
   4  -8   3  559.60  145.62
   5  -8   3  -27.54   25.00
   5  -8   3   -1.73    3.77
   5  -8   3   -3.60    8.89
   5  -8   3   -0.86    3.95
   5  -8   3  -13.43   10.34
   5  -8   3   22.17   22.85
   6  -8   3  173.06   43.05
   6  -8   3  188.33   55.85
   6  -8   3  120.75   26.06
   6  -8   3  114.08   25.83
   6  -8   3  146.36   29.76
   7  -8   3   60.05   21.14
   7  -8   3   96.19   43.60
   7  -8   3   77.09   16.98
   7  -8   3   60.52   17.20
   7  -8   3   71.31   32.76
   8  -8   3  250.51   50.56
   8  -8   3  288.41   85.50
   8  -8   3  238.29   51.09
   8  -8   3  275.96   67.66
   9  -8   3   73.12   48.93
   9  -8   3   44.97   15.48
   9  -8   3   74.74   32.13
  10  -8   3  101.63   42.35
  10  -8   3  132.76   28.63
  10  -8   3  110.49   63.72
  11  -8   3  173.09   73.60
  11  -8   3  148.34   33.67
  12  -8   3   11.18   13.55
  12  -8   3  -76.33   51.33
 -10  -7   3  189.10  304.24
 -10  -7   3  -29.15   43.52
  -9  -7   3   58.43   45.27
  -9  -7   3  108.92   36.84
  -9  -7   3  175.31  262.81
  -8  -7   3  104.96  228.85
  -8  -7   3    9.64   25.24
  -8  -7   3    8.93   35.16
  -7  -7   3   45.24  194.54
  -7  -7   3    9.71   17.76
  -7  -7   3  -40.34   26.62
  -6  -7   3   37.57   21.03
  -6  -7   3   71.01   29.95
  -6  -7   3  -31.67  150.99
  -5  -7   3   -7.45   23.48
  -5  -7   3   35.32   18.31
  -5  -7   3  -49.72  117.32
  -4  -7   3  853.97  200.31
  -4  -7   3 1009.62  168.37
   3   7  -3  274.34   55.46
  -3  -7   3  130.97  113.46
  -3  -7   3  289.64   63.40
  -3  -7   3  287.35   50.76
  -2  -7   3  476.77   86.54
  -2  -7   3  505.37  105.46
  -2  -7   3  464.15   85.42
  -1  -7   3  105.96   18.61
  -1  -7   3  108.35   26.78
  -1  -7   3   80.07   17.16
   0  -7   3  216.66   41.12
   0  -7   3  236.89   41.20
   0  -7   3  207.88   53.06
   1  -7   3   86.59   16.69
   1  -7   3   72.97   16.73
   1  -7   3   62.83   25.11
   2  -7   3   90.44   26.58
   2  -7   3   91.40   18.47
   2  -7   3   99.85   28.98
   2  -7   3   65.39   17.83
   3  -7   3 1561.27  279.11
   3  -7   3 1385.09  374.30
   3  -7   3 1495.77  262.02
   3  -7   3 1412.23  311.70
   3  -7   3 1433.56  268.00
   4  -7   3  366.13   61.10
   4  -7   3  217.12   86.77
   4  -7   3  266.69   58.29
   4  -7   3  358.31   74.75
   4  -7   3  332.57   60.39
  -5   7  -3    0.34    7.96
   5  -7   3  -25.59    5.66
   5  -7   3    3.89    9.76
   5  -7   3   35.57   21.06
   5  -7   3   11.55   25.79
   5  -7   3    6.21    9.98
   6  -7   3   28.30   14.15
   6  -7   3   23.90   11.45
   6  -7   3   51.55   32.76
   6  -7   3   67.76   25.18
   6  -7   3   36.48   11.31
   7  -7   3  168.32   37.41
   7  -7   3  221.54   40.28
   7  -7   3  147.16   47.15
   7  -7   3  220.74   64.73
   7  -7   3  176.74   37.88
   8  -7   3  664.95  123.90
   8  -7   3  642.61  120.96
   8  -7   3  700.68  176.62
   8  -7   3  542.23  142.42
   9  -7   3   76.52   46.51
   9  -7   3   54.65   18.06
   9  -7   3   99.73   33.17
  10  -7   3   91.89   24.61
  10  -7   3   96.18   54.82
  10  -7   3  116.15   38.66
  11  -7   3   20.83   44.19
  11  -7   3   21.72   14.34
  12  -7   3   27.64   54.53
  12  -7   3   39.81   17.53
 -11  -6   3 -121.78  369.58
 -11  -6   3    6.29   45.72
 -10  -6   3    6.13   36.89
 -10  -6   3 -114.42   26.65
 -10  -6   3 -279.72  326.86
  -9  -6   3  -17.71  300.96
  -9  -6   3  421.22   65.83
  -9  -6   3  125.62   59.94
  -8  -6   3   -0.63   34.35
  -8  -6   3  119.73   31.80
  -8  -6   3  102.53  237.14
  -7  -6   3  -89.33  220.92
  -7  -6   3  225.38   51.84
  -7  -6   3  232.66   47.16
  -6  -6   3  292.16   58.43
  -6  -6   3  284.92   55.46
  -6  -6   3  -15.11  227.57
  -5  -6   3  255.78   60.03
  -5  -6   3  502.26   63.24
  -5  -6   3  -10.53  216.28
   4   6  -3 1057.04  180.80
  -4  -6   3  651.76  184.38
  -4  -6   3  984.09  200.01
   3   6  -3  195.88   40.29
  -3  -6   3  255.37   47.04
  -3  -6   3  212.96   37.26
  -3  -6   3   83.47   43.34
   2   6  -3   66.15   17.99
  -2  -6   3   78.29   15.77
  -2  -6   3   77.14   22.43
  -2  -6   3   82.56   16.51
  -1  -6   3   77.51   14.33
  -1  -6   3   63.84   21.69
  -1  -6   3   46.67   66.38
  -1  -6   3   60.28   14.69
   0  -6   3  804.99  143.11
   0  -6   3  819.93  168.09
   0  -6   3  794.19  149.74
   0  -6   3  746.96  140.33
   1  -6   3  175.14   33.38
   1  -6   3  178.73   33.64
   1  -6   3  151.22   41.77
   1  -6   3  178.13   34.23
   2  -6   3  121.50   38.12
   2  -6   3  171.63   31.20
   2  -6   3  164.11   31.10
   2  -6   3  137.00   30.36
   2  -6   3  170.64   45.05
   3  -6   3  509.66   91.27
   3  -6   3  520.79  129.00
   3  -6   3  526.77  109.46
   3  -6   3  470.47   89.14
   3  -6   3  479.47   94.45
  -4   6  -3   -3.37    7.00
   4  -6   3   16.97   10.27
   4  -6   3   11.24    7.47
   4  -6   3   19.90   20.40
   4  -6   3   18.90   17.12
   4  -6   3   15.39    9.04
  -5   6  -3  259.56   48.85
   5  -6   3  224.56   46.18
   5  -6   3  257.21   70.09
   5  -6   3  225.07   57.19
   5  -6   3  226.65   47.56
   5  -6   3  233.90   47.58
  -6   6  -3   50.53   17.83
   6  -6   3   63.93   16.67
   6  -6   3  143.48   37.56
   6  -6   3   70.94   18.58
   6  -6   3   25.25   25.29
  -7   6  -3  627.73  117.73
   7  -6   3  564.97  116.50
   7  -6   3  578.80  162.00
   7  -6   3  634.20  113.21
   7  -6   3  620.86  134.66
   8  -6   3  141.03   34.00
   8  -6   3  187.73   37.73
   8  -6   3  248.75   61.10
   8  -6   3  112.92   41.95
   9  -6   3   45.51   15.13
   9  -6   3   58.00   25.61
   9  -6   3  -57.57   30.48
   9  -6   3   26.32   15.66
  10  -6   3    4.99   13.50
  10  -6   3    8.96   36.78
  11  -6   3   23.11   15.21
  11  -6   3  -27.18   39.86
  12  -6   3  262.74   54.67
  12  -6   3  222.40   91.57
 -11  -5   3   90.31   47.09
 -11  -5   3  -95.86  428.83
 -11  -5   3  144.87   49.40
 -10  -5   3   32.58   31.21
 -10  -5   3   26.77   34.16
 -10  -5   3  -40.49  313.48
  -9  -5   3   41.13   29.94
  -9  -5   3   38.92   29.10
  -9  -5   3 -301.08  303.89
  -8  -5   3  137.51   44.26
  -8  -5   3  138.39   42.34
  -8  -5   3  151.89  314.32
   7   5  -3   11.40   12.57
  -7  -5   3    8.92  203.40
  -7  -5   3   54.38   22.20
  -7  -5   3   29.55   25.67
   6   5  -3    3.58   10.37
  -6  -5   3   23.49   22.88
  -6  -5   3  -10.82   15.93
  -6  -5   3 -134.90  164.88
   5   5  -3  529.55   98.78
  -5  -5   3  486.66  110.13
  -5  -5   3  490.16  104.84
   4   5  -3  234.48   32.52
  -4  -5   3  111.84   37.25
  -4  -5   3  171.43   35.58
  -4  -5   3   23.53  123.67
   3   5  -3  325.58   50.42
  -3  -5   3  155.84   53.36
  -3  -5   3  219.64   55.09
   2   5  -3   49.78   12.39
  -2  -5   3   51.42   11.64
  -2  -5   3   50.34   15.92
  -2  -5   3  -23.81   18.91
  -2  -5   3   50.01   12.12
   1   5  -3 1303.04  246.94
  -1  -5   3 1338.52  235.40
  -1  -5   3 1271.67  230.37
  -1  -5   3 1281.57  273.65
  -1  -5   3 1303.58  246.61
   0   5  -3  558.57  117.86
   0  -5   3  642.96  117.63
   0  -5   3  655.56  131.69
   0  -5   3  637.93  112.41
   0  -5   3  598.83  110.12
  -1   5  -3   -2.46    6.74
   1  -5   3    7.15    5.80
   1  -5   3   13.97    7.09
   1  -5   3    5.55    6.53
   1  -5   3  -10.00   11.53
  -2   5  -3  547.67  115.06
   2  -5   3  602.33  107.66
   2  -5   3  584.20  153.46
   2  -5   3  645.54  114.71
   2  -5   3  627.87  110.11
   2  -5   3  584.59  128.87
  -3   5  -3   46.25   11.81
   3  -5   3   41.87   19.93
   3  -5   3   32.33   11.71
   3  -5   3   39.32   10.84
   3  -5   3   37.76   11.69
   3  -5   3   18.73   16.40
  -4   5  -3 1074.18  199.37
   4  -5   3 1026.11  221.79
   4  -5   3  961.96  190.62
   4  -5   3 1042.36  266.37
   4  -5   3 1080.41  199.02
   4  -5   3 1082.49  186.57
  -5   5  -3  702.68  133.50
   5  -5   3  747.35  125.26
   5  -5   3  640.82  149.31
   5  -5   3  664.41  133.05
   5  -5   3  713.96  128.27
  -6   5  -3   99.13   28.10
   6  -5   3  115.97   27.92
   6  -5   3  175.77   37.30
   6  -5   3  182.89   31.12
   6  -5   3  124.31   28.16
  -7   5  -3  590.23  115.66
   7  -5   3  626.01  131.72
   7  -5   3  535.44  114.76
   7  -5   3  663.79  111.55
  -8   5  -3  149.15   32.82
   8  -5   3  144.79   33.55
   8  -5   3  126.74   39.66
  -9   5  -3   61.41   22.68
   9  -5   3   40.94   16.69
   9  -5   3   38.92   20.03
  10  -5   3   -2.73   12.38
  11  -5   3  253.43   55.20
  12  -5   3   85.26   26.21
 -12  -4   3  236.84  573.87
 -12  -4   3  199.00   59.43
 -11  -4   3  -30.12   27.89
 -11  -4   3  107.69   41.77
 -11  -4   3  -13.39  464.14
 -10  -4   3  336.27  437.98
 -10  -4   3  198.60   58.15
   9   4  -3   13.28   14.94
  -9  -4   3   20.70   24.32
  -9  -4   3   82.64  334.10
  -9  -4   3    2.03   21.19
   8   4  -3  285.73   65.80
  -8  -4   3  388.74   72.14
  -8  -4   3  297.05  423.62
   7   4  -3  959.58  163.38
  -7  -4   3  839.31  165.73
  -7  -4   3  481.34  658.29
   6   4  -3  217.90   43.97
  -6  -4   3  193.37   47.85
  -6  -4   3   69.04  219.23
  -6  -4   3  238.09   50.18
   5   4  -3  355.44   74.23
  -5  -4   3  387.92   78.08
  -5  -4   3  391.38   83.40
   4   4  -3   27.56    9.66
  -4  -4   3    0.20   16.07
  -4  -4   3   17.39   12.68
  -4  -4   3   -9.27   66.19
   3   4  -3  155.62   28.62
  -3  -4   3  141.13   27.91
  -3  -4   3   60.71   31.94
   2   4  -3   59.22   16.30
  -2  -4   3   54.71   24.23
  -2  -4   3   74.22   20.20
  -2  -4   3   78.53   15.87
  -2  -4   3   37.45   77.45
  -2  -4   3   95.63   16.90
   1   4  -3 1298.71  265.67
  -1  -4   3 1460.22  265.61
  -1  -4   3 1402.09  253.59
  -1  -4   3 1404.73  248.11
  -1  -4   3 1453.16  294.06
   0   4  -3 1203.87  230.46
   0   4  -3 1166.20  305.77
   0  -4   3 1271.62  230.32
   0  -4   3 1175.56  215.23
   0  -4   3 1196.88  255.33
   0  -4   3 1285.21  220.06
  -1   4  -3    6.22    7.46
   1  -4   3   14.23    6.77
   1  -4   3   27.60   12.17
   1  -4   3   12.53    7.33
   1  -4   3    9.89    7.26
  -2   4  -3   73.64   17.37
   2  -4   3   77.90   16.90
   2  -4   3   88.05   17.32
   2  -4   3   75.46   17.17
   2  -4   3   52.41   21.21
  -3   4  -3  120.58   23.53
   3  -4   3   99.18   28.08
   3  -4   3  100.70   22.96
   3  -4   3   91.44   22.76
   3  -4   3  125.41   22.84
  -4   4  -3  705.07  135.41
   4  -4   3  705.90  150.66
   4  -4   3  668.02  126.84
   4  -4   3  740.58  129.94
   4  -4   3  715.82  135.29
  -5   4  -3   82.45   18.87
   5  -4   3   65.50   17.97
   5  -4   3   82.45   18.73
   5  -4   3   66.28   18.44
   5  -4   3   65.26   23.61
  -6   4  -3  135.27   27.85
   6  -4   3  145.98   27.91
   6  -4   3  120.82   33.14
   6  -4   3  106.97   26.90
   6  -4   3  108.57   27.13
  -7   4  -3   21.35   12.13
   7  -4   3   31.24   17.78
   7  -4   3   18.06   12.59
  -8   4  -3  248.35   48.94
   8  -4   3  195.27   46.21
  -9   4  -3   34.54   17.10
   9  -4   3   -9.71   13.34
 -10   4  -3  154.32   33.47
  10  -4   3  108.13   29.96
  10  -4   3   95.31   28.45
  11  -4   3  286.87   61.60
  12  -4   3    9.87   16.09
 -12  -3   3   93.62  574.23
 -12  -3   3   -6.98   28.04
  11   3  -3    2.27   17.20
 -11  -3   3   48.02   26.64
 -11  -3   3 -128.56  408.73
  10   3  -3    2.40   13.74
 -10  -3   3 -407.97  385.04
 -10  -3   3   -1.28   18.30
   9   3  -3  572.05  100.42
  -9  -3   3  437.00  102.25
  -9  -3   3  316.81  539.91
   8   3  -3  605.58  113.98
  -8  -3   3 1091.46  618.18
  -8  -3   3  498.13  115.48
  -7  -3   3 1491.86 1151.88
   6   3  -3   77.45   17.96
  -6  -3   3   38.30   18.27
  -6  -3   3  249.66  319.37
   5   3  -3   24.47   10.20
  -5  -3   3   28.33   14.24
   4   3  -3  515.95  101.46
  -4  -3   3  557.11  103.36
  -4  -3   3  486.95  421.77
   3   3  -3  253.39   44.51
  -3  -3   3   72.84  176.13
  -3  -3   3  237.67   44.16
  -3  -3   3  306.05   49.10
   2   3  -3  649.71  130.54
  -2  -3   3  716.20  144.55
  -2  -3   3  714.96  130.56
  -2  -3   3  628.98  133.39
   1   3  -3 2173.69  405.07
  -1  -3   3 2128.07  404.98
  -1  -3   3 2080.00  447.57
  -1  -3   3 2187.02  378.39
   0   3  -3    6.88    9.60
   0   3  -3    1.88    6.34
   0  -3   3   -0.93    6.21
   0  -3   3    5.56    6.55
   0  -3   3   12.86    6.43
   0  -3   3   21.26    9.58
  -1   3  -3  534.45  110.83
   1  -3   3  640.88  110.93
   1  -3   3  548.99  122.82
   1  -3   3  595.37  106.04
  -2   3  -3    9.21    7.00
   2  -3   3    6.46    7.80
   2  -3   3    8.42   10.57
   2  -3   3   11.72    7.15
   2  -3   3   25.35    8.77
  -3   3  -3 2658.64  476.06
   3  -3   3 2516.32  476.00
   3  -3   3 2447.70  455.15
   3  -3   3 2452.50  444.77
   3  -3   3 2501.79  526.01
  -4   3  -3 1319.45  243.87
   4  -3   3 1306.17  233.45
   4  -3   3 1249.60  227.96
   4  -3   3 1256.59  269.64
  -5   3  -3  116.98   23.94
   5  -3   3   99.41   22.49
   5  -3   3  113.34   27.48
   5  -3   3   77.15   22.59
  -6   3  -3   99.53   26.86
   6  -3   3  119.47   31.55
   6  -3   3  149.38   28.31
  -7   3  -3   40.88   15.28
   7  -3   3   38.66   14.91
  -8   3  -3  469.89  100.19
   8  -3   3  536.27   96.94
  -9   3  -3  138.29   35.95
   9  -3   3  152.41   34.90
 -10   3  -3  210.85   53.03
  10  -3   3  295.53   53.43
  10  -3   3  221.19   51.02
 -11   3  -3  145.16   38.42
  11  -3   3  138.65   35.74
 -12   3  -3   42.03   24.32
  12  -3   3   39.18   20.01
 -12  -2   3  994.12 1166.20
  11   2  -3  129.08   30.33
 -11  -2   3   77.69   31.56
  10   2  -3   22.48   14.84
 -10  -2   3   13.21   19.00
   9   2  -3  225.50   49.32
  -9  -2   3  230.45   51.20
   8   2  -3  651.34  132.29
  -8  -2   3  720.41  133.56
   7   2  -3  111.22   27.76
  -7  -2   3  125.81   29.44
   6   2  -3  695.26  134.05
  -6  -2   3  696.77  134.56
   5   2  -3   47.02   14.74
  -5  -2   3   67.86   17.10
   4   2  -3  722.09  141.07
  -4  -2   3  755.47  141.62
   3   2  -3  223.57   41.62
  -3  -2   3  182.60   42.26
   2   2  -3   99.70   20.41
  -2  -2   3   78.41   23.30
   1   2  -3  367.48   66.22
   1   2  -3  311.93   89.82
  -1  -2   3  317.55   69.74
  -1  -2   3  342.76   62.07
   0   2  -3  158.56   45.70
   0   2  -3  171.70   32.97
   0  -2   3  190.56   36.59
   0  -2   3  151.32   31.37
   0  -2   3  148.96   30.66
  -1   2  -3  164.27   32.75
   1  -2   3  127.16   30.75
   1  -2   3  204.11   36.76
   1  -2   3  164.70   32.02
  -2   2  -3  542.77  102.86
   2  -2   3  545.12  113.58
   2  -2   3  522.12   98.75
  -3   2  -3 1337.23  246.83
   3  -2   3 1298.79  272.45
   3  -2   3 1293.40  236.19
   3  -2   3 1268.26  230.73
  -4   2  -3  263.45   52.71
   4  -2   3  241.30   49.20
   4  -2   3  263.86   51.05
   4  -2   3  280.31   58.28
  -5   2  -3   95.06   21.71
   5  -2   3  100.54   24.38
   5  -2   3   73.75   20.65
   5  -2   3   91.12   20.48
  -6   2  -3   53.04   16.26
   6  -2   3   48.74   16.97
  -7   2  -3  527.99  100.71
   7  -2   3  490.73   97.75
  -8   2  -3  176.17   40.86
   8  -2   3  185.74   40.09
  -9   2  -3    7.99   14.78
   9  -2   3  -14.29   12.50
 -10   2  -3   99.11   27.05
  10  -2   3   69.33   23.53
  10  -2   3   81.21   26.07
 -11   2  -3   22.71   20.54
  11  -2   3  -41.16   12.04
 -12   2  -3   61.25   25.59
  12  -2   3   30.32   19.59
  13   1  -3   10.57   17.80
 -13  -1   3  -32.66   23.13
  12   1  -3   51.44   22.31
 -12  -1   3   87.35   28.66
  11   1  -3  102.36   31.19
 -11  -1   3  147.93   35.67
  10   1  -3   86.96   24.27
 -10  -1   3   66.66   26.14
   9   1  -3  522.50   98.88
  -9  -1   3  469.58  100.57
   8   1  -3   73.02   21.31
  -8  -1   3   83.67   23.53
   7   1  -3   -1.13    9.50
  -7  -1   3  -10.07   10.21
   6   1  -3    7.93    9.01
  -6  -1   3    7.80    9.34
   5   1  -3  429.27   81.25
  -5  -1   3  403.88   81.33
   4   1  -3  561.39  108.63
  -4  -1   3  570.43  108.81
   3   1  -3   30.62   22.75
   3   1  -3    8.03    7.25
  -3  -1   3   11.84    7.23
   2   1  -3  410.67   85.40
   2   1  -3  446.67  116.98
   2   1  -3  444.21   85.34
  -2  -1   3  487.48   85.90
   1   1  -3 2526.00  642.93
   1   1  -3 2728.58  482.33
   1   1  -3 2402.48  481.96
  -1  -1   3 2537.10  450.45
  -1  -1   3 2584.18  482.82
   0   1  -3 5704.79 1257.47
   0   1  -3 6617.90 1256.48
   0   1  -3 6849.24 1672.91
   0  -1   3 7180.87 1201.11
   0  -1   3 6888.64 1173.97
  -1   1  -3  124.62   25.05
   1  -1   3  111.52   23.83
   1  -1   3  141.12   25.27
   1  -1   3  113.40   26.91
  -2   1  -3 1233.41  226.66
   2  -1   3 1207.66  211.93
   2  -1   3 1171.07  216.91
   2  -1   3 1176.43  249.69
  -3   1  -3  355.39   69.27
   3  -1   3  377.43   66.71
   3  -1   3  333.24   64.93
   3  -1   3  360.05   75.78
  -4   1  -3   37.11   12.15
   4  -1   3   41.66   12.66
   4  -1   3   31.44   10.79
  -5   1  -3  451.50   82.55
   5  -1   3  396.03   76.82
   5  -1   3  416.05   78.94
  -6   1  -3   82.17   24.00
   6  -1   3  110.97   25.12
  -7   1  -3  903.99  170.93
   7  -1   3  869.04  163.41
  -8   1  -3  158.03   34.98
   8  -1   3  129.88   32.32
  -9   1  -3   87.97   28.15
   9  -1   3  125.80   29.18
 -10   1  -3   29.62   19.91
  10  -1   3   52.26   19.60
  10  -1   3   52.14   20.94
 -11   1  -3  122.01   30.31
  11  -1   3   63.68   26.59
 -12   1  -3  142.35   34.75
  12  -1   3   90.13   31.68
  13   0  -3   85.52   55.77
  13   0  -3    7.58   18.73
  12   0  -3  326.88   62.03
  12   0  -3  191.49   91.36
  11   0  -3   82.26   25.50
 -11   0   3   89.14   28.00
  10   0  -3  192.94  116.55
  10   0  -3  122.57   29.94
 -10   0   3   87.47   30.35
   9   0  -3  121.98   28.34
  -9   0   3   97.30   28.64
   8   0  -3   64.19   20.54
  -8   0   3  104.65   23.47
   7   0  -3  494.10   94.62
  -7   0   3  474.18   95.06
   6   0  -3   61.11   15.73
   6   0  -3   62.29   14.99
  -6   0   3   39.30   15.60
   5   0  -3 1043.02  270.96
   5   0  -3 1120.58  200.85
   5   0  -3  997.75  200.55
   4   0  -3  787.50  218.01
   4   0  -3  841.32  160.82
   4   0  -3  810.71  160.60
  -4   0   3  913.61  161.07
   3   0  -3  116.79   30.85
   3   0  -3  203.82   52.71
   3   0  -3  179.57   31.96
  -3   0   3  182.94   32.01
   2   0  -3  143.74   54.30
   2   0  -3  171.90   33.88
   2   0  -3  161.46   33.72
  -2   0   3  188.56   34.00
   1   0  -3  232.30   45.75
   1   0  -3  239.33   45.83
   1   0  -3  222.35   68.68
  -1   0   3  255.48   43.81
   0   0  -3 2107.86  396.35
   0   0  -3 2192.23  396.66
   0   0  -3 1757.25  529.79
   0   0   3 2128.70  370.67
   0   0   3 2196.75  379.36
  -1   0  -3  444.83   82.15
  -1   0  -3  417.33  201.70
  -1   0  -3  462.97  114.49
   1   0   3  420.32   79.13
   1   0   3  414.84   77.14
  -2   0  -3  -82.73  150.97
  -2   0  -3   35.72   59.48
  -2   0  -3   88.83   19.59
   2   0   3  108.28   19.94
   2   0   3  112.28   19.18
  -3   0  -3   17.35    9.12
  -3   0  -3    5.44   38.71
  -3   0  -3   20.42    6.32
   3   0   3   22.71    8.57
   3   0   3    6.48    8.54
  -4   0  -3  258.23   45.75
   4   0   3  212.10   43.36
   4   0   3  203.67   41.89
  -5   0  -3   52.62   16.40
   5   0   3   62.64   16.16
  -6   0  -3  148.68   35.98
   6   0   3  188.10   35.83
  -7   0  -3  213.40   40.46
   7   0   3  151.08   37.79
  -8   0  -3   20.36   13.69
   8   0   3    0.63   12.91
  -9   0  -3   26.72   15.96
   9   0   3  -11.24   13.11
 -10   0  -3   90.74   31.17
  10   0   3  143.50   32.18
 -11   0  -3 1321.17 1163.36
 -12   0  -3 2012.72 1632.96
  13  -1  -3   98.82   28.49
  13  -1  -3   86.75   69.70
  12  -1  -3  136.01   36.65
  12  -1  -3  200.65   74.99
  11  -1  -3   14.80   45.65
  11  -1  -3   -0.70   13.26
  10  -1  -3   22.91   38.23
  10  -1  -3   55.55   72.00
  10  -1  -3   17.30   14.06
   9  -1  -3   55.28   46.37
   9  -1  -3  184.74   96.51
   9  -1  -3   35.26   16.94
  -9   1   3   55.72   19.22
   8  -1  -3  277.92  100.23
   8  -1  -3  376.51   68.60
  -8   1   3  321.27   68.80
   7  -1  -3  114.06   80.17
   7  -1  -3   35.35   33.18
   7  -1  -3   20.79   10.32
   7  -1  -3    4.13    9.04
  -7   1   3   -4.86    9.00
   6  -1  -3  716.49  140.57
   6  -1  -3  825.96  198.63
   6  -1  -3  755.19  140.57
  -6   1   3  702.43  140.96
   5  -1  -3  194.86   40.74
   5  -1  -3  171.46   63.74
   5  -1  -3  183.93   40.51
   5  -1  -3  556.83  145.11
  -5   1   3  202.44   41.31
   4  -1  -3  148.38   78.08
   4  -1  -3   29.54    9.98
   4  -1  -3   34.68   31.39
   4  -1  -3   38.68   10.48
  -4   1   3   37.22   11.12
   3  -1  -3  245.07   47.13
   3  -1  -3  249.64   73.38
   3  -1  -3  241.64   47.13
   2  -1  -3  385.65  188.22
   1  -1  -3 3054.46 1348.58
   1  -1  -3 2989.01  778.82
  -1   1   3 3158.49  544.44
   0  -1  -3  485.14   97.84
   0  -1  -3  466.79  124.94
   0  -1  -3  194.95  215.82
   0   1   3  485.99   82.29
   0   1   3  475.09   84.49
  -1  -1  -3  777.89  171.59
  -1  -1  -3  901.45  210.86
   1   1   3  849.17  149.07
   1   1   3  814.93  145.40
  -2  -1  -3   15.01   54.33
  -2  -1  -3    3.33   74.52
  -2  -1  -3   40.87    9.50
   2   1   3   47.03   10.03
   2   1   3   29.76   10.65
  -3  -1  -3 1156.86  229.41
   3   1   3 1273.51  214.55
   3   1   3 1204.70  219.63
  -4  -1  -3  606.82  241.22
  -4  -1  -3  687.40  142.32
  -4  -1  -3  779.13  546.83
  -4  -1  -3  646.43  130.27
   4   1   3  691.46  121.68
   4   1   3  685.12  124.73
  -5  -1  -3   18.64    8.73
  -5  -1  -3   35.36   61.76
  -5  -1  -3   22.23   10.71
  -5  -1  -3  -15.18  197.50
   5   1   3   28.87   11.24
  -6  -1  -3  224.48  408.20
  -6  -1  -3  371.58   77.30
   6   1   3  432.77   75.30
  -7  -1  -3   -2.84   13.29
  -7  -1  -3   39.05  319.00
   7   1   3   71.75   15.33
  -8  -1  -3  211.06   47.41
  -8  -1  -3  412.98  435.58
   8   1   3  212.63   45.83
  -9  -1  -3   68.21   23.25
  -9  -1  -3   69.33  397.26
   9   1   3   79.99   22.99
 -10  -1  -3  646.19  729.24
 -11  -1  -3  568.35  688.15
 -11  -1  -3  303.08   67.99
 -12  -1  -3  156.82  173.88
 -12  -1  -3   33.79   24.56
 -12  -1  -3  258.86  659.22
  13  -2  -3  177.39   41.28
  13  -2  -3  155.76   85.95
  12  -2  -3   -1.45   13.88
  12  -2  -3   26.58   55.72
  11  -2  -3  107.96   30.75
  11  -2  -3  261.87   76.95
  10  -2  -3  -35.49   39.93
  10  -2  -3   -5.00   11.80
  10  -2  -3   11.29   75.71
   9  -2  -3  174.21   75.60
   9  -2  -3  203.45   42.33
   9  -2  -3  192.07  126.08
   8  -2  -3 1092.44  210.08
   8  -2  -3 1263.89  500.12
   8  -2  -3 1029.17  210.07
   8  -2  -3 1104.99  292.63
  -8   2   3 1129.39  211.22
   7  -2  -3   82.04   19.83
   7  -2  -3   67.31   19.80
   7  -2  -3  115.98   87.56
   7  -2  -3  101.16   46.38
  -7   2   3   96.91   21.84
   6  -2  -3  287.64   59.42
   6  -2  -3  282.92   59.41
   6  -2  -3  489.24  174.16
   6  -2  -3  438.80   97.52
  -6   2   3  291.39   61.18
   5  -2  -3   -5.29   30.19
   5  -2  -3   51.78   66.37
   5  -2  -3   42.36    9.91
   5  -2  -3   30.91    9.37
  -5   2   3   27.69   10.64
   4  -2  -3  704.52  138.63
   4  -2  -3  763.21  138.66
   4  -2  -3  731.83  194.75
   4  -2  -3  697.74  342.44
   3  -2  -3  236.60   53.37
   3  -2  -3  194.72  135.91
   3  -2  -3  238.76   73.53
   2  -2  -3 1700.98  443.90
   2  -2  -3 1769.00  365.55
   1  -2  -3  868.13  229.37
   1  -2  -3  937.99  187.04
  -1   2   3  862.07  156.88
   0  -2  -3    7.57   10.74
   0  -2  -3   42.55   72.34
   0  -2  -3   -7.06   24.14
   0   2   3    1.01    4.55
   0   2   3    2.57    5.77
  -1  -2  -3   79.01   16.55
  -1  -2  -3    2.38   74.85
  -1  -2  -3   47.46   31.42
  -1  -2  -3  -37.81   65.77
   1   2   3   71.56   13.41
   1   2   3   52.68   11.94
  -2  -2  -3   57.91   14.00
  -2  -2  -3   13.53   63.74
  -2  -2  -3   24.97   79.08
   2   2   3   55.42   11.88
   2   2   3   54.14   12.88
  -3  -2  -3  742.25  153.29
  -3  -2  -3  729.79  139.28
   3   2   3  750.66  133.66
   3   2   3  702.13  130.28
  -4  -2  -3   84.08  219.42
  -4  -2  -3  192.46   41.61
  -4  -2  -3  218.35   44.65
   4   2   3  220.00   41.06
  -5  -2  -3   -5.60    6.22
  -5  -2  -3    8.41    9.04
  -5  -2  -3  -30.90  195.73
   5   2   3    2.52    9.04
  -6  -2  -3   79.91   18.94
  -6  -2  -3   86.35   20.02
  -6  -2  -3  119.18   93.83
  -6  -2  -3  108.02  252.73
   6   2   3   44.29   18.66
  -7  -2  -3  118.65  112.61
  -7  -2  -3  114.20   28.94
  -7  -2  -3   91.38  350.22
  -7  -2  -3  124.07   29.81
   7   2   3  127.88   28.59
  -8  -2  -3  448.20  417.88
  -8  -2  -3  266.11  153.19
  -8  -2  -3  131.88   34.78
   8   2   3  147.22   34.16
  -9  -2  -3   -6.69  104.16
  -9  -2  -3  -22.26  384.02
  -9  -2  -3   41.56   18.38
 -10  -2  -3  146.56  155.10
 -10  -2  -3  134.30  451.06
 -10  -2  -3  164.92   40.66
 -11  -2  -3 -793.42  532.97
 -11  -2  -3    9.42  152.32
 -11  -2  -3   28.96   21.86
  13  -3  -3   70.75   22.79
  13  -3  -3   43.37   63.81
  12  -3  -3  -20.27   48.93
  12  -3  -3   11.08   14.18
  11  -3  -3  -17.24   50.31
  11  -3  -3   43.69   16.65
  10  -3  -3    4.39   11.67
  10  -3  -3  -35.41   32.17
  10  -3  -3  -34.11   77.97
   9  -3  -3  193.08  199.24
   9  -3  -3  424.44  124.03
   9  -3  -3  447.83   77.80
   8  -3  -3   97.85   57.63
   8  -3  -3  149.01   27.96
   8  -3  -3  101.01   26.83
   8  -3  -3  155.79  109.82
   7  -3  -3  -45.82   71.23
   7  -3  -3   15.29    8.18
   7  -3  -3  107.20   45.61
   7  -3  -3   15.10    8.18
  -7   3   3    3.36    9.26
   6  -3  -3    1.11    5.48
   6  -3  -3   -6.20   33.64
   6  -3  -3   28.30   80.22
   6  -3  -3    0.90    5.79
   5  -3  -3  729.96  142.30
   5  -3  -3  796.03  205.44
   5  -3  -3  772.76  142.35
   4  -3  -3 1040.15  230.69
   4  -3  -3 1190.03  283.80
   3  -3  -3  -18.32   65.50
   3  -3  -3    5.23   15.09
   3  -3  -3  -10.06   32.26
   2  -3  -3  671.74  147.86
   2  -3  -3  477.98  112.87
   1  -3  -3  358.56   63.05
   1  -3  -3  304.52   83.49
   1  -3  -3   59.51  140.12
  -1   3   3  278.94   49.27
   0  -3  -3   17.84   12.53
   0  -3  -3   29.67   72.71
   0  -3  -3  -10.90   26.18
   0   3   3    6.58    3.89
   0   3   3    2.03    5.42
  -1  -3  -3    5.94   10.23
  -1  -3  -3  -58.57   66.87
  -1  -3  -3   24.45   27.29
   1   3   3   -3.47    3.93
   1   3   3   -0.96    5.25
  -3  -3  -3   92.03   85.27
  -4  -3  -3    4.50   10.87
  -4  -3  -3   38.73   10.41
  -4  -3  -3   52.54  147.60
   4   3   3   23.74    9.82
  -5  -3  -3  217.84   43.49
  -5  -3  -3  -12.20  218.54
  -5  -3  -3  201.14   41.46
   5   3   3  187.90   39.43
  -6  -3  -3    5.59    9.20
  -6  -3  -3  -23.09   10.50
  -6  -3  -3   -3.08  258.72
   6   3   3   29.30   10.96
  -7  -3  -3 -304.57  384.10
  -7  -3  -3  264.64   54.97
   7   3   3  303.03   53.16
  -8  -3  -3  139.62  392.44
  -8  -3  -3  257.91   60.77
   8   3   3  333.04   58.75
  -9  -3  -3   97.11   28.82
  -9  -3  -3 -213.90  414.17
 -10  -3  -3  100.73   30.83
 -10  -3  -3 -396.12  429.34
 -11  -3  -3   71.34   30.07
 -11  -3  -3 -534.04  489.65
  13  -4  -3   -6.69   13.59
  13  -4  -3  -10.07   71.40
  12  -4  -3  140.04   83.50
  12  -4  -3  191.21   40.85
  11  -4  -3   30.06   56.24
  11  -4  -3   47.18   16.25
  10  -4  -3  144.09   28.84
  10  -4  -3   27.38   96.46
  10  -4  -3  152.78   73.20
   9  -4  -3  292.77   58.80
   9  -4  -3  340.98   58.47
   9  -4  -3   90.18  159.33
   9  -4  -3  278.98   98.56
   8  -4  -3   -2.86    7.37
   8  -4  -3   -3.41   42.35
   8  -4  -3   -6.34    6.99
   8  -4  -3   34.57   85.04
   7  -4  -3   44.72  126.62
   7  -4  -3  214.43   42.17
   7  -4  -3  288.89   82.52
   7  -4  -3  232.65   42.38
   6  -4  -3  111.68   51.34
   6  -4  -3   33.12   89.12
   6  -4  -3   81.14   30.46
   5  -4  -3 1288.43  269.11
   5  -4  -3 1233.65  329.09
   4  -4  -3 1024.59  247.67
   4  -4  -3  876.77  195.62
   3  -4  -3  502.64  111.53
   3  -4  -3  506.55  143.02
   2  -4  -3   27.27   16.52
   2  -4  -3   -2.30   78.41
   2  -4  -3   -5.49   32.33
   1  -4  -3  279.74   59.50
   1  -4  -3   11.39  132.95
   1  -4  -3  271.43   80.79
  -1   4   3  278.95   46.07
   0  -4  -3  262.41   66.64
   0  -4  -3   42.16  116.98
   0  -4  -3  222.85   46.63
   0   4   3  196.30   35.12
   0   4   3  196.82   36.77
  -1  -4  -3   11.84   12.08
  -1  -4  -3   70.24   79.88
   1   4   3   13.64    4.01
   1   4   3    0.50    5.42
  -3  -4  -3  328.57   65.23
   3   4   3  275.41   55.90
  -4  -4  -3  144.55  160.38
  -4  -4  -3   48.56   15.52
   4   4   3   46.22   13.63
  -5  -4  -3   34.48   12.45
  -5  -4  -3   15.38   14.22
  -5  -4  -3  -62.79  160.36
   5   4   3   27.21   11.50
  -6  -4  -3  139.11   32.51
  -6  -4  -3 -311.39  221.55
   6   4   3  174.55   29.47
  -7  -4  -3  -69.29  320.93
  -7  -4  -3  233.98   53.47
   7   4   3  285.20   49.62
  -8  -4  -3    5.84   20.03
  -8  -4  -3  107.93  295.49
  -9  -4  -3   29.93   24.73
  -9  -4  -3   19.25  304.80
 -10  -4  -3 -442.48  368.70
 -10  -4  -3  -78.44   22.03
  13  -5  -3   25.34   68.00
  13  -5  -3   35.59   15.14
  12  -5  -3  174.39   91.08
  12  -5  -3  195.61   40.89
  11  -5  -3   57.85   18.08
  11  -5  -3   74.64   67.79
  11  -5  -3   69.80   17.66
  10  -5  -3  119.66   24.35
  10  -5  -3   57.33   65.06
  10  -5  -3   67.01  101.34
  10  -5  -3  105.79   23.62
   9  -5  -3    1.25    5.84
   9  -5  -3   -3.88    5.76
   9  -5  -3  -60.93   43.63
   9  -5  -3  -80.65   71.79
   8  -5  -3    2.30   90.33
   8  -5  -3   85.41   53.51
   7  -5  -3  191.82   70.22
   7  -5  -3   81.39  110.05
   7  -5  -3  164.26   44.68
   6  -5  -3   66.55   94.40
   6  -5  -3  192.38   61.86
   6  -5  -3   60.09   28.98
   5  -5  -3  699.59  141.88
   5  -5  -3  546.72  179.01
   4  -5  -3   -5.92   16.74
   4  -5  -3   25.08   76.66
   4  -5  -3   -9.56   35.14
   3  -5  -3  -27.00   15.50
   3  -5  -3   23.01   87.56
   3  -5  -3  -47.21   30.69
   2  -5  -3  -25.44   32.31
   2  -5  -3  -14.48   14.79
   2  -5  -3   44.86   85.09
   1  -5  -3  851.44  218.15
   1  -5  -3  834.07  176.79
  -1   5   3  797.99  150.41
  -1   5   3  844.48  146.41
   0  -5  -3  302.53   58.71
   0  -5  -3  289.27   78.25
   0   5   3  234.29   46.11
  -1  -5  -3   99.78   28.37
  -1  -5  -3   19.32   96.41
   1   5   3  107.64   20.43
  -2  -5  -3  374.36   76.42
  -2  -5  -3  111.30  177.62
   2   5   3  362.77   63.28
  -3  -5  -3    8.62   11.13
  -3  -5  -3  -41.87  137.98
   3   5   3   -2.69    5.62
  -4  -5  -3  381.79   69.67
  -4  -5  -3  -52.36  263.73
   4   5   3  354.94   58.68
  -5  -5  -3  -33.87  177.95
  -5  -5  -3   -3.64   11.74
   5   5   3    4.59    8.84
  -6  -5  -3 -175.58  204.71
  -7  -5  -3  218.65  252.23
  -7  -5  -3  145.02   35.23
  -8  -5  -3   17.30   21.25
  -8  -5  -3 -140.75  252.10
  -9  -5  -3   43.31   27.02
  -9  -5  -3 -319.46  276.30
 -10  -5  -3  -22.58   28.34
 -10  -5  -3  -92.56  386.90
  12  -6  -3   55.94   75.73
  11  -6  -3    9.06   58.30
  10  -6  -3   -7.04   57.71
  10  -6  -3  -15.96   86.02
   9  -6  -3   41.70  111.44
   9  -6  -3  213.77   79.33
   8  -6  -3   30.12  104.74
   8  -6  -3  260.20   82.44
   7  -6  -3   84.31   30.21
   7  -6  -3  104.26   56.92
   7  -6  -3   27.05   95.30
   6  -6  -3  719.22  219.74
   6  -6  -3  842.48  174.79
   5  -6  -3  469.72  107.09
   5  -6  -3  459.86  139.58
   4  -6  -3  115.61   32.18
   4  -6  -3  161.24   56.45
   4  -6  -3  -40.52   83.01
   3  -6  -3  -20.74   74.76
   3  -6  -3   56.80   43.38
   3  -6  -3   94.94   27.70
   2  -6  -3  565.31  148.78
   2  -6  -3  497.90  115.71
  -2   6   3  523.05   92.81
   1  -6  -3 1212.67  307.42
   1  -6  -3 1142.75  251.50
  -1   6   3 1197.32  214.67
   0  -6  -3  -12.48  107.59
   0  -6  -3  161.91   56.67
   0  -6  -3  140.10   39.63
   0   6   3  163.48   28.62
  -1  -6  -3   13.92   16.26
  -1  -6  -3  -30.53   76.68
   1   6   3    9.76    5.07
  -2  -6  -3   -5.42   14.52
   2   6   3    4.39    4.85
  -3  -6  -3  429.15   90.37
   3   6   3  397.78   74.75
  -4  -6  -3  226.04   45.50
  -4  -6  -3  135.26  221.01
   4   6   3  168.70   35.65
  -5  -6  -3   48.46   18.18
  -5  -6  -3 -131.49  170.59
  -6  -6  -3  169.47  235.95
  -7  -6  -3 -253.13  224.12
  -8  -6  -3   93.61  269.42
  -9  -6  -3 -187.00  294.03
  12  -7  -3  -33.57   69.21
  11  -7  -3    9.21   64.84
  10  -7  -3   35.59   65.32
  10  -7  -3   96.24  113.88
   9  -7  -3  -57.38   90.65
   9  -7  -3  353.30   94.95
   8  -7  -3   -8.16  120.21
   8  -7  -3  261.46   89.26
   8  -7  -3  240.11   51.10
   7  -7  -3   17.75   26.84
   7  -7  -3  -44.93   50.59
   7  -7  -3  -10.79   88.88
   6  -7  -3  419.79  103.38
   6  -7  -3   28.56  145.76
   6  -7  -3  375.43   68.87
   5  -7  -3  111.54   51.43
   5  -7  -3   -0.81   23.24
   5  -7  -3   13.85   96.83
   4  -7  -3   -6.03   20.82
   4  -7  -3  -42.99   39.89
   4  -7  -3   58.08  107.76
   3  -7  -3  -36.69   81.66
   3  -7  -3   39.90   40.89
   3  -7  -3   14.19   21.51
   2  -7  -3  371.06   70.33
   2  -7  -3  384.76   95.96
   2  -7  -3   49.08  161.49
   1  -7  -3    7.54  100.03
   1  -7  -3   83.56   31.61
   1  -7  -3  174.26   52.53
  -1   7   3   96.20   19.03
   0  -7  -3  -32.71   98.96
   0  -7  -3   24.90   19.54
   0  -7  -3   28.61   33.64
  -1  -7  -3  -18.65  112.69
  -1  -7  -3  164.84   36.89
  -2  -7  -3  168.21   44.21
  -3  -7  -3  645.23  139.54
  -4  -7  -3   32.25   18.40
  -6  -7  -3   19.37  238.84
  -7  -7  -3   53.71  253.26
  -8  -7  -3 -240.05  264.72
  -9  -7  -3  -54.99  322.28
  12  -8  -3   44.01   80.43
  11  -8  -3   76.25   80.82
  10  -8  -3   56.22  120.73
  10  -8  -3  144.76   87.42
   9  -8  -3   50.49  151.59
   9  -8  -3  358.53   73.48
   9  -8  -3  428.15  115.58
   8  -8  -3  -63.30   54.65
   8  -8  -3   -1.84   24.07
   8  -8  -3  -18.17  103.55
   7  -8  -3  113.39   39.54
   7  -8  -3  104.99   69.10
   7  -8  -3   11.31  116.68
   6  -8  -3  101.36   63.16
   6  -8  -3   -6.11  107.86
   6  -8  -3   64.83   30.11
   5  -8  -3  195.84   67.53
   5  -8  -3  -58.52  104.44
   5  -8  -3  117.28   38.72
   4  -8  -3  345.73  106.81
   4  -8  -3  312.88   78.96
   3  -8  -3  286.36   55.65
   3  -8  -3  -49.03  127.71
   3  -8  -3  265.33   74.87
   2  -8  -3  391.08   88.13
   2  -8  -3  486.79  116.40
  -2   8   3  351.75   67.72
   1  -8  -3    0.20   34.65
   1  -8  -3   -3.10   19.93
   1  -8  -3  -23.00  115.75
   0  -8  -3  -46.28  101.33
   0  -8  -3  213.00   40.62
  -1  -8  -3   -5.14   21.70
  -2  -8  -3  337.61   79.49
  -3  -8  -3  419.33   96.13
  -8  -8  -3 -137.66  298.39
  11  -9  -3  131.76   95.49
  10  -9  -3   19.90   77.14
  10  -9  -3    8.48  127.24
   9  -9  -3   39.58   35.74
   9  -9  -3  146.58   77.42
   9  -9  -3  -69.85  116.69
   8  -9  -3   24.40   67.71
   8  -9  -3   86.44  127.33
   8  -9  -3  -29.10   27.54
   7  -9  -3    5.96   58.33
   7  -9  -3  -10.67   23.66
   7  -9  -3  -88.24  109.66
   6  -9  -3   -1.99  131.93
   6  -9  -3  114.59   39.33
   6  -9  -3  134.26   66.42
   5  -9  -3  -27.03  143.41
   5  -9  -3  322.13   63.04
   5  -9  -3  317.34   89.57
   4  -9  -3  -41.06  110.00
   4  -9  -3  114.97   35.45
   4  -9  -3   51.88   52.59
   3  -9  -3  120.00  137.07
   3  -9  -3   73.91   47.48
   3  -9  -3   14.12   29.04
   2  -9  -3    1.85  103.83
   2  -9  -3  -24.10   21.06
   2  -9  -3   14.14   38.11
   1  -9  -3  318.78   72.36
   1  -9  -3  151.41   46.59
   1  -9  -3  -24.46  135.16
   0  -9  -3   96.08   35.61
  -1  -9  -3   86.41   34.63
  -2  -9  -3  219.91   58.48
  -3  -9  -3  -18.53   21.48
  10 -10  -3  122.79   83.74
  10 -10  -3   18.58  137.78
   9 -10  -3  -65.49   28.83
   9 -10  -3   -4.49  120.09
   9 -10  -3  -30.38   68.42
   8 -10  -3 -118.97  118.25
   8 -10  -3  132.12   44.55
   8 -10  -3   73.00   74.20
   7 -10  -3   29.30  127.97
   7 -10  -3  -73.99   48.43
   7 -10  -3   52.36   35.66
   6 -10  -3  185.62   54.76
   6 -10  -3  218.59   85.54
   6 -10  -3   76.29  160.74
   5 -10  -3  843.77  236.02
   5 -10  -3  841.39  190.08
   4 -10  -3   18.72   48.29
   4 -10  -3   25.68   29.19
   4 -10  -3  -14.55  105.73
   3 -10  -3  132.54  151.15
   3 -10  -3   73.66   49.92
   3 -10  -3   41.04   35.31
   2 -10  -3   18.57  118.08
   2 -10  -3  -23.85   28.04
   2 -10  -3   42.69   42.59
   1 -10  -3  440.14  105.21
   0 -10  -3   64.60   36.12
  -1 -10  -3   36.43   30.79
  -2 -10  -3  125.60   42.54
   9 -11  -3  -78.59   29.57
   9 -11  -3  -18.35   66.49
   9 -11  -3  -50.04  138.22
   8 -11  -3    9.11  148.05
   8 -11  -3   58.15   72.26
   8 -11  -3   17.27   38.47
   7 -11  -3   37.22   63.09
   7 -11  -3   28.57  143.34
   7 -11  -3    3.18   30.84
   6 -11  -3  200.48   73.91
   6 -11  -3    3.85  146.25
   6 -11  -3   86.28   43.56
   5 -11  -3   13.44   36.82
   5 -11  -3   43.14   51.36
   5 -11  -3  -46.89  135.73
   4 -11  -3  -46.65   44.03
   4 -11  -3   13.73   30.49
   4 -11  -3   69.55  139.07
   3 -11  -3  -21.89   41.71
   3 -11  -3   -5.68   30.65
   2 -11  -3  223.54   66.72
   2 -11  -3  229.36   83.20
   1 -11  -3   76.50   38.47
   0 -11  -3   19.99   33.60
  -1 -11  -3  -11.80   28.67
  -2 -11  -3   36.81   34.47
   7 -12  -3  -55.72   52.61
   7 -12  -3   47.94   39.12
   6 -12  -3   84.93   64.19
   6 -12  -3   57.85   44.75
   5 -12  -3   25.15   54.81
   5 -12  -3   87.47   43.73
   4 -12  -3  338.19  113.69
   4 -12  -3  370.12   95.14
   3 -12  -3   14.33   34.19
   3 -12  -3   42.06   47.10
   2 -12  -3  282.74   80.46
   1 -12  -3  118.00   49.97
   0 -12  -3  -20.36   29.78
  -1 -12  -3   91.00   45.33
  -2 -14   4   78.08   40.52
  -1 -14   4   82.82   42.67
   0 -14   4  282.45   76.29
   1 -14   4   15.61   32.92
   2 -14   4    6.35   30.76
   3 -14   4   41.15   37.34
   4 -14   4   16.94   36.69
   5 -14   4   88.85   47.61
   6 -14   4   47.97   45.54
  -4 -13   4   76.57   38.38
  -3 -13   4  101.92   41.19
  -2 -13   4  -24.26   26.85
  -1 -13   4   80.97   37.45
   0 -13   4   28.61   34.02
   1 -13   4   78.59   35.81
   2 -13   4   64.82   35.38
   3 -13   4  399.35   99.97
   4 -13   4  313.97   84.02
   5 -13   4   16.84   35.39
   6 -13   4  110.28   50.74
   7 -13   4   48.78   43.16
   8 -13   4  250.33   75.85
  -5 -12   4  -15.39   25.93
  -4 -12   4  401.67   96.68
  -3 -12   4  143.45   45.64
  -2 -12   4  -33.77   21.06
  -1 -12   4  107.58   40.83
   0 -12   4   72.12   32.09
   1 -12   4  324.51   81.85
   2 -12   4   87.69   39.68
   3 -12   4  172.95   54.50
   4 -12   4  253.73   70.69
   5 -12   4  -41.88   25.01
   6 -12   4   25.97   36.23
   7 -12   4  155.69   55.06
   8 -12   4  177.24   59.40
   9 -12   4   -2.92   37.31
  -7 -11   4   41.85   32.32
  -6 -11   4   10.95   26.11
  -5 -11   4  102.82   38.53
  -4 -11   4  302.34   75.10
  -3 -11   4   -0.45   21.81
  -2 -11   4   33.40   24.12
  -1 -11   4  -20.71   20.03
   0 -11   4  392.87   93.98
   1 -11   4  130.24   39.96
   2 -11   4   19.63   24.37
   3 -11   4  176.10   55.86
   3 -11   4  215.76   40.56
   4 -11   4   83.73   35.89
   5 -11   4  268.79   71.26
   6 -11   4   58.49   35.57
   7 -11   4  601.97  141.69
   8 -11   4  253.40   71.45
   9 -11   4   60.47   38.93
  10 -11   4   86.06   43.09
  -8 -10   4   51.50   32.57
  -7 -10   4  131.43   44.47
  -6 -10   4  -19.00   21.14
  -5 -10   4  297.32   73.04
  -4 -10   4  235.73   60.51
  -3 -10   4   35.02   22.23
  -2 -10   4  241.50   61.05
  -1 -10   4  177.68   48.67
   0 -10   4  582.99  105.06
   0 -10   4  594.24  131.01
   1 -10   4  463.73   85.52
   1 -10   4  512.30  110.04
   2 -10   4   67.28   27.97
   2 -10   4   46.96   11.81
   2 -10   4   23.92   11.50
   3 -10   4   24.06   10.14
   3 -10   4    6.93    9.13
   3 -10   4    0.83   23.43
   4 -10   4  291.89   54.77
   4 -10   4  277.64   53.74
   4 -10   4  240.84   71.32
   5 -10   4  494.09   88.25
   5 -10   4  383.34  107.83
   5 -10   4  495.50   88.88
   6 -10   4   31.64   15.33
   6 -10   4   15.74   29.00
   7 -10   4  227.10   46.97
   7 -10   4  198.49   61.47
   8 -10   4   47.64   32.09
   9 -10   4   46.04   32.84
   9 -10   4    6.18    6.12
   9 -10   4   -1.81    5.20
  10 -10   4   13.15    9.23
  10 -10   4    5.37   29.60
  10 -10   4    3.72    7.14
  11 -10   4  131.31   29.17
  11 -10   4  148.80   50.13
  11 -10   4  131.52   27.99
  -9  -9   4   72.21  257.51
  -9  -9   4  -23.95   27.11
  -9  -9   4  -72.07  156.43
  -8  -9   4  130.52  263.37
  -8  -9   4  154.85  171.06
  -8  -9   4  219.40   55.46
  -7  -9   4  166.56   48.10
  -7  -9   4  169.70  155.60
  -6  -9   4   39.19  128.28
  -6  -9   4   67.46   28.04
  -5  -9   4  188.92   46.63
  -5  -9   4  140.17  129.91
  -5  -9   4  161.91   35.62
  -4  -9   4    5.52   19.08
  -4  -9   4   24.13   10.25
  -3  -9   4  129.60   40.00
  -3  -9   4  152.28   29.28
  -2  -9   4   11.75   19.56
  -2  -9   4   34.25   10.25
  -1  -9   4  478.18  109.77
  -1  -9   4  489.92   87.74
   0  -9   4  469.74   82.18
   0  -9   4  415.42  102.43
   0  -9   4  453.76   82.72
   1  -9   4   -1.67    6.20
   1  -9   4   30.76   17.74
   1  -9   4    9.85    8.20
   2  -9   4   29.28   11.59
   2  -9   4   50.23   11.76
   2  -9   4   20.47   20.22
   3  -9   4  207.18   43.99
   3  -9   4  244.47   45.46
   3  -9   4  235.18   62.60
   3  -9   4  230.53   58.73
   4  -9   4 1389.98  247.70
   4  -9   4 1265.77  345.33
   4  -9   4 1446.35  242.27
   4  -9   4 1307.50  289.85
   5  -9   4   28.94   13.16
   5  -9   4   55.20   26.97
   5  -9   4   12.34   12.49
   5  -9   4   19.76    5.83
   5  -9   4   24.24    6.12
   5  -9   4  -49.36   22.71
   6  -9   4  372.52   85.32
   6  -9   4  353.11  100.48
   6  -9   4  318.03   65.64
   6  -9   4  361.56   65.93
   6  -9   4  341.60   67.21
   7  -9   4  110.80   23.51
   7  -9   4   80.52   26.89
   7  -9   4  135.14   39.42
   7  -9   4  107.50   23.99
   7  -9   4  142.54   54.34
   8  -9   4   42.56   15.11
   8  -9   4  134.84   50.74
   8  -9   4   78.32   34.68
   8  -9   4   77.67   21.96
   8  -9   4   37.18   13.51
   9  -9   4   97.38   56.29
   9  -9   4   79.67   40.39
   9  -9   4  117.20   24.92
  10  -9   4  126.16   61.12
  10  -9   4   41.00   15.87
  10  -9   4  113.55   37.44
  11  -9   4  168.65   91.05
  11  -9   4  257.70   51.02
  11  -9   4  257.22   69.68
 -10  -8   4  232.96  324.29
  -9  -8   4   86.24   49.50
  -9  -8   4   63.32  251.67
  -9  -8   4  131.13   41.30
  -8  -8   4   -8.48  270.63
  -8  -8   4  220.19   69.97
  -8  -8   4  578.44   76.42
  -7  -8   4   47.00   35.01
  -7  -8   4   17.41   23.76
  -7  -8   4   81.11  167.89
  -6  -8   4   10.07   29.88
  -6  -8   4   32.70   14.34
  -6  -8   4   56.00   22.33
  -6  -8   4  -32.15  162.57
  -5  -8   4   23.29   10.32
  -5  -8   4  -10.53   18.69
  -4  -8   4  295.93   56.80
  -4  -8   4  313.98   71.07
  -3  -8   4  523.15  113.45
  -3  -8   4  302.67  195.09
  -3  -8   4  509.29   91.94
  -3  -8   4  523.04   93.07
  -2  -8   4  142.18   24.48
  -2  -8   4  129.50   23.11
  -2  -8   4   47.18   30.91
  -1  -8   4  738.62  129.32
  -1  -8   4  720.87  131.29
  -1  -8   4  704.68  155.62
   0  -8   4  185.69   36.12
   0  -8   4  207.66   36.99
   0  -8   4  186.76   47.56
   1  -8   4  218.58   40.45
   1  -8   4  182.15   51.53
   1  -8   4  215.34   40.32
   2  -8   4   25.16   10.76
   2  -8   4   37.10   19.61
   2  -8   4   30.06    7.84
   2  -8   4   40.80   10.95
   3  -8   4  434.52  120.59
   3  -8   4  542.42  141.14
   3  -8   4  572.15  104.58
   3  -8   4  549.66   99.31
   3  -8   4  567.30  101.46
   4  -8   4 1181.89  252.85
   4  -8   4 1203.65  216.30
   4  -8   4 1152.09  211.43
   4  -8   4 1129.48  301.86
   4  -8   4 1224.14  224.71
   5  -8   4   54.65   15.39
   5  -8   4   23.86   14.22
   5  -8   4   40.43   29.28
   5  -8   4   39.37   11.59
   5  -8   4   43.66   23.52
   6  -8   4   83.42   23.68
   6  -8   4   61.78   40.76
   6  -8   4  105.68   22.15
   6  -8   4  101.60   23.75
   6  -8   4   86.50   35.03
   7  -8   4   86.57   39.43
   7  -8   4   43.92   28.73
   7  -8   4   90.11   18.82
   7  -8   4   44.80   16.05
   7  -8   4   65.66   21.14
   8  -8   4   93.79   23.57
   8  -8   4   95.12   49.71
   8  -8   4  158.27   40.20
   8  -8   4   75.64   26.18
   9  -8   4    3.90   24.59
   9  -8   4   34.83   18.12
   9  -8   4   32.89   39.28
   9  -8   4    8.43   11.43
  10  -8   4   40.02   15.92
  10  -8   4   42.48   29.72
  10  -8   4   81.52   48.45
  11  -8   4   69.05   20.55
  11  -8   4   49.94   54.74
  12  -8   4   -6.23   49.94
  12  -8   4   -4.38   14.46
 -10  -7   4   84.41   50.80
 -10  -7   4   25.94   34.42
 -10  -7   4   60.37  246.43
  -9  -7   4  202.82   61.49
  -9  -7   4  204.74   55.21
  -9  -7   4  142.85  246.97
  -8  -7   4   99.21   52.32
  -8  -7   4  114.39  220.09
  -8  -7   4  216.09   50.23
  -7  -7   4   -5.59   18.26
  -7  -7   4   16.25  173.00
  -7  -7   4  -26.71   30.57
  -6  -7   4   -0.85   20.68
  -6  -7   4   52.77   33.21
  -6  -7   4    3.02  147.30
  -5  -7   4  -28.11  123.29
  -5  -7   4   15.90   26.84
  -5  -7   4   -4.13   18.70
   4   7  -4  385.81   74.22
  -4  -7   4  367.07   67.27
  -4  -7   4  339.36   82.42
   3   7  -4   53.84   16.44
  -3  -7   4   59.46   20.83
  -3  -7   4   77.04   16.17
   2   7  -4  145.92   33.96
  -2  -7   4  189.76   41.56
  -2  -7   4  142.82   31.15
  -2  -7   4  176.24   31.19
   1   7  -4  458.85   88.48
  -1  -7   4  469.68   87.68
  -1  -7   4  430.33   82.14
  -1  -7   4  489.28  101.39
  -1  -7   4  453.39   83.43
   0  -7   4  583.39  105.00
   0  -7   4  541.77   98.59
   0  -7   4  529.78  118.52
   0  -7   4  530.88  100.24
   1  -7   4   85.62   28.21
   1  -7   4  112.93   19.89
   1  -7   4   76.65   19.53
   1  -7   4   87.16   19.38
   2  -7   4  163.20   47.96
   2  -7   4  189.97   38.35
   2  -7   4  196.30   37.48
   2  -7   4  210.57   38.18
  -3   7  -4 1059.56  211.53
   3  -7   4 1156.35  210.58
   3  -7   4 1052.02  235.57
   3  -7   4 1132.01  202.07
   3  -7   4 1094.91  281.30
   3  -7   4 1122.84  197.66
  -4   7  -4   61.50   16.76
   4  -7   4   55.93   23.64
   4  -7   4   88.47   17.86
   4  -7   4  102.26   18.61
   4  -7   4   63.54   15.59
   4  -7   4    5.83   25.33
  -5   7  -4  142.52   30.87
   5  -7   4  142.96   29.57
   5  -7   4  149.01   47.96
   5  -7   4  127.37   30.38
   5  -7   4  141.02   38.54
   5  -7   4  121.95   29.53
  -6   7  -4    4.17   10.51
   6  -7   4  -29.59   16.67
   6  -7   4   -7.98    9.47
   6  -7   4  -11.96   23.27
   6  -7   4  -13.23   10.63
   6  -7   4    8.84    9.33
   7  -7   4  773.78  158.38
   7  -7   4  644.60  132.24
   7  -7   4  745.23  190.13
   7  -7   4  723.87  137.35
   8  -7   4  505.34  125.54
   8  -7   4  585.51  154.29
   8  -7   4  581.01  107.92
   9  -7   4    1.34   15.26
   9  -7   4   12.21   35.50
   9  -7   4    4.22   12.18
   9  -7   4   18.92   23.08
  10  -7   4  104.88   36.13
  10  -7   4   71.07   51.39
  10  -7   4  109.94   29.66
  10  -7   4   81.28   24.25
  11  -7   4    7.87   14.74
  11  -7   4   51.91   47.73
  12  -7   4   32.77   51.70
  12  -7   4   20.45   17.39
 -11  -6   4   70.20   49.00
 -11  -6   4   70.43  355.26
 -11  -6   4   -2.09   43.28
 -10  -6   4 -205.90  306.65
 -10  -6   4    9.78   35.57
 -10  -6   4    6.98   39.20
  -9  -6   4   79.63   52.70
  -9  -6   4   75.03  269.11
  -9  -6   4  273.85   54.82
  -8  -6   4   20.56   24.19
  -8  -6   4   40.96   35.84
  -8  -6   4  165.46  223.59
  -7  -6   4  185.50   43.29
  -7  -6   4  132.97   47.34
  -7  -6   4   37.72  222.85
   6   6  -4   -0.85   10.42
  -6  -6   4  -82.73  138.54
  -6  -6   4  -18.94   19.31
  -6  -6   4  -40.04   24.27
   5   6  -4  584.91  112.34
  -5  -6   4  595.33  125.27
  -5  -6   4  511.01  119.91
   4   6  -4  408.48   72.16
  -4  -6   4  240.83   75.95
  -4  -6   4  373.49   80.65
   3   6  -4   10.14    8.63
  -3  -6   4   -6.64   10.77
  -3  -6   4   11.60   21.99
  -3  -6   4   15.79    8.13
   2   6  -4  528.45  105.75
  -2  -6   4  582.18  105.49
  -2  -6   4  520.87   98.45
  -2  -6   4  572.71  100.24
  -2  -6   4  521.23  117.61
   1   6  -4   -1.45    6.70
  -1  -6   4    8.44    5.96
  -1  -6   4    5.98    6.64
  -1  -6   4   12.38   12.98
  -1  -6   4    0.76    6.92
   0   6  -4 2102.06  403.49
   0  -6   4 2095.47  403.01
   0  -6   4 2165.86  376.81
   0  -6   4 2192.88  446.83
   0  -6   4 2119.46  385.12
  -1   6  -4  995.28  206.39
   1  -6   4 1084.40  196.98
   1  -6   4 1090.51  192.83
   1  -6   4 1136.18  205.96
   1  -6   4 1122.58  229.50
  -2   6  -4  196.55   42.79
   2  -6   4  214.70   40.82
   2  -6   4  215.84   40.38
   2  -6   4  204.82   41.89
   2  -6   4  223.15   50.80
  -3   6  -4  127.60   30.00
   3  -6   4  144.45   29.70
   3  -6   4  163.12   29.32
   3  -6   4  153.07   41.66
   3  -6   4  144.49   36.36
   3  -6   4  118.26   29.03
  -4   6  -4    9.08    8.55
   4  -6   4    3.61    9.04
   4  -6   4   32.42   18.40
   4  -6   4  -11.05    8.57
   4  -6   4   18.33    8.24
   4  -6   4    5.90   15.41
  -5   6  -4  131.64   27.04
   5  -6   4   83.14   25.81
   5  -6   4  148.08   34.58
   5  -6   4  166.32   27.43
   5  -6   4  127.78   40.57
   5  -6   4   93.12   25.31
  -6   6  -4  158.11   27.83
   6  -6   4  114.09   32.49
   6  -6   4   77.57   24.65
   6  -6   4   76.74   24.52
   6  -6   4  121.24   25.00
  -7   6  -4  429.88   92.90
   7  -6   4  534.31   91.22
   7  -6   4  447.14  105.46
   8  -6   4  188.95   39.02
   8  -6   4  143.45   45.01
   9  -6   4   44.19   24.34
   9  -6   4   43.69   20.67
  10  -6   4    3.46   13.05
  10  -6   4   12.44   18.13
  11  -6   4   98.88   27.25
  12  -6   4  165.47   39.84
 -11  -5   4  113.96   50.57
 -11  -5   4 -232.65  387.35
 -11  -5   4  112.55   45.42
 -10  -5   4   65.90   34.94
 -10  -5   4   93.82  348.31
 -10  -5   4   -8.70   31.28
  -9  -5   4  259.15  309.51
  -9  -5   4  152.41   44.33
  -9  -5   4   75.65   41.92
   8   5  -4    1.62   13.17
  -8  -5   4  155.73  287.35
  -8  -5   4   47.16   26.93
  -8  -5   4   -2.00   24.72
   7   5  -4  390.44   66.33
  -7  -5   4  -82.26  306.15
  -7  -5   4  332.60   73.79
  -7  -5   4  371.40   74.19
   6   5  -4   49.09   14.50
  -6  -5   4 -179.01  147.23
  -6  -5   4   55.83   26.76
  -6  -5   4   34.44   22.00
   5   5  -4  685.81  133.42
  -5  -5   4  701.34  148.38
  -5  -5   4  684.91  140.65
   4   5  -4  596.88  110.03
  -4  -5   4  561.17  122.12
  -4  -5   4  507.33  115.75
   3   5  -4    0.36    7.75
  -3  -5   4   26.12    8.46
  -3  -5   4   10.54   66.31
  -3  -5   4  -13.42   18.11
  -3  -5   4    1.64    8.14
  -3  -5   4   -6.69   11.43
   2   5  -4   20.23    9.83
  -2  -5   4   24.95   13.20
  -2  -5   4   -2.30   19.80
  -2  -5   4   14.76    8.84
  -2  -5   4   38.57    9.40
   1   5  -4  515.50  103.13
  -1  -5   4  537.07  102.87
  -1  -5   4  576.88   98.15
  -1  -5   4  424.35  114.70
  -1  -5   4  595.36   96.33
   0   5  -4 1132.44  221.06
   0  -5   4 1177.10  244.92
   0  -5   4 1190.89  220.78
   0  -5   4 1161.99  210.93
   0  -5   4 1155.68  206.41
  -1   5  -4   12.55    8.27
   1  -5   4   10.37    7.74
   1  -5   4    0.10   12.16
   1  -5   4    0.06    6.94
   1  -5   4    4.73    6.58
  -2   5  -4   78.04   21.72
   2  -5   4  102.88   21.75
   2  -5   4  111.99   21.99
   2  -5   4   89.24   20.77
   2  -5   4   82.38   26.06
   2  -5   4  116.46   28.39
  -3   5  -4   93.03   23.75
   3  -5   4  118.33   24.01
   3  -5   4  109.93   29.41
   3  -5   4  138.13   24.60
   3  -5   4   90.85   22.99
  -4   5  -4  941.97  170.09
   4  -5   4  965.08  169.85
   4  -5   4  816.17  188.87
   4  -5   4  916.64  159.17
   4  -5   4  786.34  162.56
  -5   5  -4  215.25   45.15
   5  -5   4  198.19   43.75
   5  -5   4  237.46   52.34
   5  -5   4  222.34   42.56
   5  -5   4  212.57   44.42
  -6   5  -4  589.06  107.02
   6  -5   4  499.72  120.72
   6  -5   4  589.32  100.40
   6  -5   4  489.62  103.49
   6  -5   4  546.20  106.28
  -7   5  -4  440.70   91.89
   7  -5   4  503.48   89.57
   7  -5   4  445.82  103.14
  -8   5  -4  -11.42   11.65
   8  -5   4    2.99   18.37
   8  -5   4   25.59   15.18
  -9   5  -4   96.32   27.82
   9  -5   4   91.79   26.29
  10  -5   4  -31.34   14.72
  10  -5   4    1.20   13.56
  11  -5   4  332.86   73.05
  11  -5   4  370.83   74.59
  12  -5   4  169.70   40.77
 -12  -4   4   45.99  545.89
 -12  -4   4   65.99   44.83
 -12  -4   4  226.49   57.67
 -11  -4   4  143.16   41.76
 -11  -4   4   -2.32   28.97
 -11  -4   4   81.67  431.33
  10   4  -4  122.28   32.01
 -10  -4   4  393.85  404.60
 -10  -4   4   95.34   39.95
   9   4  -4    7.71   13.41
  -9  -4   4   37.55  322.20
  -9  -4   4    4.81   22.38
   8   4  -4  380.06   77.89
  -8  -4   4  482.53  477.80
  -8  -4   4  370.10   82.32
  -7  -4   4  127.82  236.04
  -7  -4   4   -3.59   19.36
   6   4  -4  306.75   52.76
  -6  -4   4  -16.55  233.01
  -6  -4   4  329.92   57.99
   5   4  -4  277.10   53.71
  -5  -4   4  228.12   56.98
   4   4  -4   43.40   14.25
  -4  -4   4   35.78   21.50
  -4  -4   4  -31.64   93.34
  -4  -4   4   63.68   18.50
  -4  -4   4   75.50   15.04
   3   4  -4  600.40  121.82
  -3  -4   4  612.21  135.30
  -3  -4   4  500.58  125.91
  -3  -4   4  747.38  122.02
   2   4  -4  584.97  113.09
  -2  -4   4  677.53  105.76
  -2  -4   4  540.21  125.35
  -2  -4   4  554.83  112.87
   1   4  -4 1277.37  248.27
   1   4  -4 1338.30  330.11
  -1  -4   4 1353.71  248.18
  -1  -4   4 1345.36  237.10
  -1  -4   4 1312.30  274.67
  -1  -4   4 1221.79  231.81
   0   4  -4 1077.22  273.38
   0   4  -4 1182.64  206.46
   0  -4   4 1079.55  192.65
   0  -4   4 1025.46  228.17
   0  -4   4 1061.48  206.12
   0  -4   4 1093.12  196.94
  -1   4  -4   89.75   19.66
   1  -4   4   75.91   17.84
   1  -4   4  159.42   44.88
   1  -4   4   80.93   23.06
   1  -4   4   69.84   18.49
   1  -4   4   90.27   19.25
  -2   4  -4  118.02   23.25
   2  -4   4  108.84   26.61
   2  -4   4  109.10   22.23
   2  -4   4   73.61   21.76
   2  -4   4  109.10   22.52
  -3   4  -4  377.30   71.70
   3  -4   4  375.52   68.23
   3  -4   4  371.75   68.90
   3  -4   4  350.57   71.35
   3  -4   4  366.33   80.61
  -4   4  -4  461.91   93.70
   4  -4   4  483.61  104.46
   4  -4   4  490.48   88.11
   4  -4   4  505.22   90.04
  -5   4  -4   39.21   13.68
   5  -4   4   54.24   15.63
   5  -4   4   36.14   14.02
   5  -4   4   52.38   18.43
  -6   4  -4  324.35   63.19
   6  -4   4  285.28   60.53
   6  -4   4  335.54   70.84
   6  -4   4  292.05   59.05
  -7   4  -4   78.23   21.92
   7  -4   4   74.86   25.72
   7  -4   4   81.47   21.97
  -8   4  -4   33.31   16.37
   8  -4   4   24.51   15.78
  -9   4  -4   26.51   18.56
   9  -4   4   65.18   21.15
 -10   4  -4  118.35   33.42
  10  -4   4  123.26   33.34
 -11   4  -4   86.12   32.64
  11  -4   4  142.47   31.67
  11  -4   4  102.65   32.16
  12  -4   4  -37.78   13.07
  12   3  -4   81.31   25.25
 -12  -3   4   26.40   31.93
 -12  -3   4   11.69  571.15
  11   3  -4   11.80   16.43
 -11  -3   4   -4.20   22.33
 -11  -3   4 -465.87  395.27
  10   3  -4  271.01   44.48
 -10  -3   4   96.17   43.29
   9   3  -4   56.07   18.62
  -9  -3   4   27.15   20.17
   8   3  -4  524.92  110.73
  -8  -3   4  612.28  113.81
   7   3  -4   26.30   13.58
  -7  -3   4   35.94   17.02
   6   3  -4  130.18   27.06
  -6  -3   4   91.79   28.53
   5   3  -4  -16.44    7.05
  -5  -3   4    1.28   13.11
   4   3  -4  488.16   96.70
  -4  -3   4  522.35   98.90
   3   3  -4  160.85   26.12
  -3  -3   4   40.20  112.18
  -3  -3   4  101.21   29.16
   2   3  -4  233.41   54.68
   2   3  -4  164.45   37.85
  -2  -3   4  180.61   42.32
  -2  -3   4  140.29   42.14
  -2  -3   4  225.76   36.41
   1   3  -4 2211.10  560.39
   1   3  -4 2190.05  420.96
  -1  -3   4 2207.08  393.24
  -1  -3   4 2322.48  465.12
  -1  -3   4 2203.23  402.16
   0   3  -4    5.18    7.09
   0   3  -4   -6.38   13.88
   0  -3   4   -6.59    6.77
   0  -3   4    4.81    6.28
   0  -3   4   12.50    8.89
  -1   3  -4  131.71   30.93
   1  -3   4  168.76   29.52
   1  -3   4  155.63   34.71
   1  -3   4  145.03   29.98
  -2   3  -4  235.68   41.75
   2  -3   4  198.17   38.99
   2  -3   4  201.45   46.31
   2  -3   4  185.49   40.35
  -3   3  -4 1876.00  351.84
   3  -3   4 1858.09  336.50
   3  -3   4 1846.91  388.50
   3  -3   4 1846.82  328.90
  -4   3  -4  821.23  154.70
   4  -3   4  785.08  148.29
   4  -3   4  856.00  144.92
   4  -3   4  776.45  170.77
  -5   3  -4   83.97   19.35
   5  -3   4   65.96   17.57
   5  -3   4   72.08   19.52
   5  -3   4   63.87   20.75
  -6   3  -4  163.29   32.75
   6  -3   4  144.62   30.51
   6  -3   4  135.77   32.30
   6  -3   4  137.68   36.13
  -7   3  -4  202.63   46.70
   7  -3   4  248.17   47.10
  -8   3  -4  467.03   91.55
   8  -3   4  436.17   87.38
  -9   3  -4   -6.06   15.32
   9  -3   4   -0.91   13.78
 -10   3  -4  300.97   54.38
  10  -3   4  181.25   48.51
 -11   3  -4  197.61   38.51
  11  -3   4  101.63   32.87
  11  -3   4  111.28   33.50
 -12   3  -4   45.11   23.71
  12  -3   4   10.41   18.04
  13   2  -4   46.70   61.91
  12   2  -4   23.78   18.38
 -12  -2   4   23.16   25.34
  11   2  -4   95.29   28.90
 -11  -2   4  110.40   33.73
  10   2  -4   54.63   18.70
 -10  -2   4   25.01   20.65
   9   2  -4  195.05   47.44
  -9  -2   4  244.63   49.73
   8   2  -4    2.00   11.08
  -8  -2   4  -43.82   10.63
   7   2  -4  258.39   46.88
  -7  -2   4  177.22   46.85
   6   2  -4   30.09   12.95
  -6  -2   4   40.33   14.29
   5   2  -4 1314.41  239.76
  -5  -2   4 1199.37  240.11
   4   2  -4 2072.01  395.67
  -4  -2   4 2109.29  396.32
   3   2  -4   46.51   11.33
   3   2  -4   -1.42   22.55
  -3  -2   4   29.13   13.40
   2   2  -4  423.17   87.85
   2   2  -4  495.32  120.09
  -2  -2   4  499.52   90.47
   1   2  -4   46.38   22.27
   1   2  -4   14.09    7.68
  -1  -2   4   -2.06   16.61
  -1  -2   4    1.56    6.70
   0   2  -4   61.11   13.59
   0   2  -4   48.99   24.89
   0  -2   4   68.02   13.91
   0  -2   4    2.41   20.75
   0  -2   4   48.68   14.75
   0  -2   4   56.60   12.94
  -1   2  -4  959.04  193.49
   1  -2   4 1053.57  213.47
   1  -2   4  999.68  180.98
   1  -2   4 1070.18  185.35
  -2   2  -4  269.94   55.24
   2  -2   4  309.52   52.44
   2  -2   4  295.32   53.42
   2  -2   4  270.19   60.70
  -3   2  -4 1042.39  187.61
   3  -2   4 1007.32  206.67
   3  -2   4  899.68  175.31
   3  -2   4  981.70  179.65
  -4   2  -4  171.31   38.42
   4  -2   4  215.65   37.26
   4  -2   4  178.62   37.92
   4  -2   4  185.32   41.86
  -5   2  -4  166.31   35.19
   5  -2   4  158.37   34.39
   5  -2   4  162.50   37.79
   5  -2   4  161.97   33.32
  -6   2  -4  -12.56   10.04
   6  -2   4   11.05   10.62
   6  -2   4    7.75   10.78
  -7   2  -4  244.70   51.20
   7  -2   4  234.53   49.35
  -8   2  -4  126.22   30.51
   8  -2   4  113.71   29.90
  -9   2  -4   43.08   20.73
   9  -2   4   70.34   21.30
 -10   2  -4  153.51   35.75
  10  -2   4  119.77   34.88
 -11   2  -4   46.40   21.68
  11  -2   4  -45.71   14.15
  11  -2   4   31.35   18.22
 -12   2  -4  -44.24   17.02
  12  -2   4   27.13   19.74
  13   1  -4  -29.63   54.52
  13   1  -4   13.91   17.94
  12   1  -4  103.99   33.63
  12   1  -4  177.65   71.41
 -12  -1   4  162.85   38.75
  11   1  -4  106.21   27.21
 -11  -1   4   82.67   29.71
  10   1  -4  140.16   29.90
 -10  -1   4   78.60   29.68
   9   1  -4  406.01   87.86
  -9  -1   4  470.67   89.03
   8   1  -4  263.04   51.54
  -8  -1   4  220.22   51.17
   7   1  -4  141.48   31.87
  -7  -1   4  144.08   32.85
   6   1  -4    8.18    9.27
  -6  -1   4   -0.76    9.05
   5   1  -4 1003.78  193.06
   5   1  -4 1038.45  261.75
  -5  -1   4 1009.43  193.36
   4   1  -4  241.71   53.94
   4   1  -4  281.73   54.08
   4   1  -4  280.32   80.51
  -4  -1   4  304.31   55.02
   3   1  -4  477.80   96.69
   3   1  -4  644.73  136.95
  -3  -1   4  496.58   97.09
   2   1  -4  515.74  100.98
   2   1  -4  493.84  100.98
   2   1  -4  555.59  140.82
  -2  -1   4  588.63  101.89
   1   1  -4  565.03  138.89
   1   1  -4  564.46   99.70
   1   1  -4  508.58   99.17
  -1  -1   4  508.17  101.04
  -1  -1   4  478.60   92.93
   0   1  -4 2418.61  448.12
   0   1  -4 2386.45  446.59
   0   1  -4 2439.24  596.81
   0  -1   4 2381.36  427.19
   0  -1   4 2239.14  417.37
  -1   1  -4   36.27   21.16
  -1   1  -4   49.14   25.11
  -1   1  -4   45.56   12.19
   1  -1   4   52.73   12.58
   1  -1   4   45.25   12.21
   1  -1   4   54.33   13.40
  -2   1  -4  554.97  112.16
   2  -1   4  606.16  123.01
   2  -1   4  552.51  107.72
   2  -1   4  622.05  105.19
  -3   1  -4   12.25   40.40
  -3   1  -4   33.24   10.29
   3  -1   4   24.37    9.14
   3  -1   4   31.99   10.78
   3  -1   4   41.23   12.12
  -4   1  -4  302.92   65.78
   4  -1   4  342.82   61.48
   4  -1   4  363.18   64.54
  -5   1  -4  -15.14    9.55
   5  -1   4   43.98   12.21
   5  -1   4   18.92   10.64
  -6   1  -4  656.58  119.22
   6  -1   4  580.69  111.06
   6  -1   4  603.89  113.65
  -7   1  -4 1745.85  351.53
   7  -1   4 1962.38  336.64
  -8   1  -4   31.04   16.14
   8  -1   4   29.92   16.34
  -9   1  -4   34.45   19.82
   9  -1   4   68.47   20.67
 -10   1  -4  -21.01   15.83
  10  -1   4    1.27   15.21
 -11   1  -4  106.50   30.76
  13   0  -4   60.32   23.95
  13   0  -4   74.54   71.28
  12   0  -4   95.62   70.88
  12   0  -4  152.13   36.27
  11   0  -4   60.99   52.75
  11   0  -4  -18.61   12.22
  10   0  -4  547.41  173.69
  10   0  -4  207.55   47.83
  10   0  -4  221.44   82.94
 -10   0   4  176.43   48.52
   9   0  -4  -10.17   10.43
   9   0  -4   -0.36   32.35
  -9   0   4  -12.36   12.53
   8   0  -4  304.83  104.12
   8   0  -4  372.22   69.82
  -8   0   4  326.43   70.38
   7   0  -4   60.90   16.19
   7   0  -4   68.23   15.65
   7   0  -4   68.65   36.73
  -7   0   4   23.09   15.23
   6   0  -4  511.14   91.59
   6   0  -4  466.58  132.16
   6   0  -4  444.77   91.34
  -6   0   4  457.85   91.84
   5   0  -4  769.27  147.21
   5   0  -4  796.45  147.10
   5   0  -4  784.07  201.42
  -5   0   4  733.78  147.35
   4   0  -4   11.57    7.76
   4   0  -4    4.25   27.55
   4   0  -4   10.70    6.88
  -4   0   4    7.37    7.54
   3   0  -4  635.36  129.40
   3   0  -4  739.08  178.71
   3   0  -4  667.24  129.35
  -3   0   4  719.14  129.64
   2   0  -4   14.11    5.68
   2   0  -4    6.49    5.31
   2   0  -4  -17.58   27.92
   1   0  -4  343.63   65.70
   1   0  -4  344.08   65.77
   1   0  -4  374.50   97.49
  -1   0   4  339.27   62.52
   0   0  -4 1984.84  372.69
   0   0  -4 1997.99  499.80
   0   0  -4 2051.26  372.48
   0   0   4 1888.10  356.63
   0   0   4 1934.04  348.46
  -1   0  -4   29.30    7.96
  -1   0  -4   39.56   57.50
  -1   0  -4   32.41  100.65
  -1   0  -4   23.99   22.48
  -1   0  -4   19.60   14.82
   1   0   4   38.61    9.94
   1   0   4   17.45    8.75
  -2   0  -4  698.32  134.08
   2   0   4  694.38  125.49
   2   0   4  722.78  128.75
  -4   0  -4  615.81  120.77
   4   0   4  655.96  115.92
   4   0   4  617.29  112.88
  -5   0  -4    1.20    8.94
  -5   0  -4   -8.15   51.77
   5   0   4    7.77    9.86
   5   0   4   -6.42    7.82
  -6   0  -4  254.24   55.63
  -6   0  -4  232.35  122.51
   6   0   4  301.16   54.44
  -7   0  -4  379.41   81.35
  -7   0  -4  451.49  171.17
   7   0   4  426.91   79.06
  -9   0  -4  266.55  521.39
 -10   0  -4 1160.46  634.10
 -10   0  -4  -22.55  131.78
 -11   0  -4 1566.40  790.52
 -11   0  -4  138.37  204.45
 -12   0  -4   57.40  172.73
 -12   0  -4   -7.71   20.39
 -12   0  -4  479.95  752.91
  13  -1  -4  287.65   92.73
  13  -1  -4  174.66   45.00
  12  -1  -4  234.59   51.98
  12  -1  -4  239.72   93.80
  11  -1  -4   -2.48   13.06
  11  -1  -4   66.72   52.81
  10  -1  -4   73.73   49.25
  10  -1  -4    7.32   12.81
  10  -1  -4    4.35   74.46
   9  -1  -4    3.49   12.32
   9  -1  -4   15.32   77.06
   9  -1  -4   43.47   38.89
   8  -1  -4  350.35   72.15
   8  -1  -4  484.49  116.33
  -8   1   4  338.14   73.23
   7  -1  -4   70.66   45.42
   7  -1  -4   65.20   22.59
   7  -1  -4  119.01   23.76
   7  -1  -4  306.14  119.01
  -7   1   4  120.09   25.42
   6  -1  -4  389.89  119.13
   6  -1  -4  383.17   80.55
   6  -1  -4  453.67   80.97
  -6   1   4  420.45   81.37
   5  -1  -4  313.98   62.97
   5  -1  -4  333.47   63.26
   5  -1  -4  340.16   96.21
  -5   1   4  321.22   63.66
   4  -1  -4   17.03    6.45
   4  -1  -4   10.97   27.51
   4  -1  -4   17.64   80.44
   4  -1  -4    1.00    5.91
   3  -1  -4   16.47    5.58
   3  -1  -4   18.90    5.43
   3  -1  -4   57.25   76.72
   3  -1  -4  -26.45   29.65
   2  -1  -4  316.30  120.76
   2  -1  -4  104.84   60.87
   1  -1  -4 1569.49  675.52
   1  -1  -4 1398.38  388.03
  -1   1   4 1557.87  269.26
   0  -1  -4  195.88  165.12
   0  -1  -4  340.27   91.62
   0   1   4  342.33   57.68
   0   1   4  308.50   59.25
  -1  -1  -4  284.33   64.52
  -1  -1  -4   83.16  111.69
  -1  -1  -4   52.67  174.32
   1   1   4  261.04   39.64
   1   1   4  213.93   38.02
  -2  -1  -4   37.51   60.76
  -2  -1  -4   21.40    6.75
  -2  -1  -4  -35.36   70.88
  -2  -1  -4   -6.91   13.02
   2   1   4   30.46    8.36
   2   1   4   29.61    9.50
  -3  -1  -4 2087.15  412.74
   3   1   4 2240.33  385.96
   3   1   4 2236.45  395.12
  -4  -1  -4  235.01   41.17
  -4  -1  -4   56.24  102.40
  -4  -1  -4   56.78  202.56
   4   1   4  235.92   38.80
   4   1   4  243.44   40.47
  -5  -1  -4  108.60  244.17
  -5  -1  -4  191.87   35.77
   5   1   4  160.08   33.06
   5   1   4  150.30   34.13
  -6  -1  -4  508.95  467.31
  -6  -1  -4  494.85  101.44
  -6  -1  -4  528.87  109.34
   6   1   4  524.98   97.42
  -7  -1  -4  589.81  387.73
  -7  -1  -4  -63.57   77.66
  -8  -1  -4   33.71  104.12
  -8  -1  -4  527.31  420.73
  -8  -1  -4   93.65   24.30
   8   1   4   65.94   22.80
  -9  -1  -4  -13.86  388.01
  -9  -1  -4   24.55  111.15
  -9  -1  -4    2.10   14.25
   9   1   4    9.41   14.17
 -10  -1  -4  305.10   65.00
 -10  -1  -4 -159.20  549.78
  10   1   4  332.78   64.05
 -11  -1  -4 -835.30  625.67
 -11  -1  -4  215.66   45.14
  13  -2  -4   53.54   21.51
  13  -2  -4   29.35   62.77
  12  -2  -4   -3.45   14.67
  12  -2  -4    0.86   52.31
  11  -2  -4  126.83   66.08
  11  -2  -4   71.20   22.85
  10  -2  -4  -25.03   35.47
  10  -2  -4    3.49   12.30
  10  -2  -4   79.23   94.62
   9  -2  -4 1112.90  513.44
   9  -2  -4 1088.63  210.51
   9  -2  -4 1137.75  297.51
   8  -2  -4  143.55   34.63
   8  -2  -4  185.34   67.36
   8  -2  -4  164.46   35.16
   8  -2  -4  268.67  130.07
   7  -2  -4  -39.91   27.12
   7  -2  -4    3.71    7.54
   7  -2  -4    9.36    8.22
   7  -2  -4   33.83   76.28
  -7   2   4   13.95   10.40
   6  -2  -4  344.81  145.62
   6  -2  -4  214.43   43.74
   6  -2  -4  258.13   77.86
   6  -2  -4  194.38   43.36
  -6   2   4  236.89   45.58
   5  -2  -4   46.47   76.17
   5  -2  -4   22.16   31.46
   5  -2  -4    4.10    5.20
   5  -2  -4    9.73    5.92
   4  -2  -4 1013.31  437.02
   4  -2  -4  880.68  247.40
   3  -2  -4   72.91   88.71
   3  -2  -4   81.89   44.70
   2  -2  -4 2731.37  701.81
   2  -2  -4 2788.56  578.81
   1  -2  -4 1379.12  284.14
   1  -2  -4 1342.47  347.77
  -1   2   4 1338.47  239.35
   0  -2  -4   -2.61   27.23
   0  -2  -4  -43.78   69.28
   0  -2  -4   32.18   11.94
   0   2   4   -3.34    5.27
   0   2   4   10.29    7.30
  -1  -2  -4  354.22   73.73
  -1  -2  -4  379.68   97.46
   1   2   4  333.81   63.55
   1   2   4  334.76   61.82
  -2  -2  -4  -97.14  100.49
  -2  -2  -4  -34.92   53.19
  -2  -2  -4   14.26    8.00
   2   2   4   16.76    6.78
   2   2   4   13.65    8.07
  -4  -2  -4   43.47  220.12
  -4  -2  -4  225.68   45.91
   4   2   4  285.78   46.12
   4   2   4  237.85   43.72
  -5  -2  -4  113.76   26.77
  -5  -2  -4  -29.20  219.14
   5   2   4  150.70   27.46
  -6  -2  -4   40.71   13.29
  -6  -2  -4  148.93  271.11
   6   2   4   13.75   12.32
  -7  -2  -4  199.06  384.73
  -8  -2  -4   98.79   32.41
  -8  -2  -4   42.71  387.52
   8   2   4  209.66   35.02
  -9  -2  -4  135.39  424.42
  -9  -2  -4   12.89   18.07
   9   2   4   54.32   18.22
 -10  -2  -4   79.67   25.42
 -10  -2  -4 -480.55  435.68
 -11  -2  -4 -217.28  564.10
 -11  -2  -4   46.04   24.91
  13  -3  -4   41.33   19.19
  13  -3  -4   79.49   66.04
  12  -3  -4   -1.03   13.00
  12  -3  -4   19.09   60.15
  11  -3  -4  103.82   25.73
  11  -3  -4   72.69   70.47
  10  -3  -4   -6.21   92.01
  10  -3  -4   46.24   56.64
  10  -3  -4   -5.68   10.26
   9  -3  -4  360.12   68.17
   9  -3  -4   26.78  181.26
   9  -3  -4  483.09  120.50
   9  -3  -4  393.12   68.68
   8  -3  -4   14.15  112.98
   8  -3  -4  154.25   67.80
   8  -3  -4  151.18   30.43
   8  -3  -4  146.72   30.39
   7  -3  -4   75.85   44.18
   7  -3  -4   23.57   94.34
   6  -3  -4    4.09   39.67
   6  -3  -4   74.92   95.19
   6  -3  -4   -2.80    4.01
   6  -3  -4    8.74    4.34
   5  -3  -4  135.30  129.55
   5  -3  -4  194.26   65.04
   4  -3  -4   75.20  134.81
   4  -3  -4  206.92   71.71
   4  -3  -4  277.64   54.21
   3  -3  -4  -10.15   33.08
   3  -3  -4    5.24   15.87
   3  -3  -4  -11.32   81.21
   2  -3  -4  643.99  139.71
   2  -3  -4  675.78  179.30
   1  -3  -4   -5.77   85.45
   1  -3  -4   85.19   50.06
   1  -3  -4  142.53   31.06
  -1   3   4  122.21   23.71
  -1   3   4  119.31   22.43
   0  -3  -4  482.00  121.29
   0  -3  -4  414.17   92.84
   0   3   4  455.64   78.99
   0   3   4  410.95   76.59
  -1  -3  -4    7.20   11.27
  -1  -3  -4   36.76   68.97
  -1  -3  -4  -17.54   25.52
   1   3   4    5.55    6.17
   1   3   4    6.74    5.09
  -3  -3  -4  434.15   89.88
   3   3   4  435.42   76.15
   3   3   4  392.10   78.36
  -4  -3  -4   40.80   13.39
  -4  -3  -4  -59.86  128.16
  -4  -3  -4   60.33   13.46
  -4  -3  -4   13.67   13.31
   4   3   4   86.86   14.94
  -5  -3  -4   61.97   13.35
  -5  -3  -4 -231.55  188.66
  -5  -3  -4   39.84   15.71
   5   3   4   40.22   14.21
  -6  -3  -4  118.33   30.48
  -6  -3  -4 -185.55  249.92
   6   3   4  184.68   30.78
  -7  -3  -4  280.26   57.67
  -7  -3  -4 -184.28  336.45
   7   3   4  333.92   56.07
  -8  -3  -4    7.15   17.61
  -8  -3  -4   82.65  319.57
   8   3   4   57.42   17.99
  -9  -3  -4 -311.71  354.14
  -9  -3  -4  150.55   37.98
   9   3   4  171.99   35.02
 -10  -3  -4  148.83   41.08
 -11  -3  -4 -361.62  444.29
  13  -4  -4  -59.91   57.44
  13  -4  -4    8.53   13.25
  12  -4  -4   75.87   21.23
  12  -4  -4   86.52   71.25
  11  -4  -4   69.99   56.17
  11  -4  -4   19.42   11.68
  10  -4  -4  310.42  114.27
  10  -4  -4  380.48   69.56
  10  -4  -4   48.46  183.89
  10  -4  -4  409.91   70.08
   9  -4  -4  104.21   19.99
   9  -4  -4   77.31   19.23
   9  -4  -4   14.33  102.83
   9  -4  -4   30.65   52.85
   8  -4  -4   19.09   99.16
   8  -4  -4   49.83   12.17
   8  -4  -4   84.19   57.14
   8  -4  -4   57.61   12.36
   7  -4  -4   94.13   55.71
   7  -4  -4   -3.57   92.29
   6  -4  -4   24.18  115.47
   6  -4  -4  366.81   78.47
   5  -4  -4 1307.86  332.88
   5  -4  -4 1255.14  270.47
   4  -4  -4  576.95  126.75
   4  -4  -4  565.50  162.28
   3  -4  -4  504.69  135.74
   3  -4  -4  440.44  101.84
   2  -4  -4  272.50   83.24
   2  -4  -4  295.16   58.94
   2  -4  -4   13.97  129.35
  -2   4   4  268.66   44.55
   1  -4  -4  488.71  127.30
   1  -4  -4  507.98   97.52
  -1   4   4  410.57   80.47
  -1   4   4  436.14   78.14
   0  -4  -4  570.41  152.37
   0  -4  -4  539.85  118.99
   0   4   4  539.38  100.93
   0   4   4  563.44   98.06
  -1  -4  -4   26.42   34.71
  -1  -4  -4   14.39   17.36
  -1  -4  -4   37.18   88.94
   1   4   4   62.18   11.27
   1   4   4   62.36   12.97
  -2  -4  -4  380.91   80.95
   2   4   4  383.59   66.35
   2   4   4  345.08   68.46
  -3  -4  -4    7.08  190.92
  -3  -4  -4  236.06   43.53
  -3  -4  -4   -0.32  109.87
   3   4   4  239.29   37.80
  -4  -4  -4   92.07   19.21
  -4  -4  -4  -62.58  136.97
   4   4   4   55.08   16.06
  -5  -4  -4 -267.20  190.44
   5   4   4   13.62   10.05
  -6  -4  -4  237.65   55.07
   6   4   4  319.87   54.66
  -7  -4  -4  329.40   71.76
  -7  -4  -4   45.15  354.36
   7   4   4  432.33   69.20
  -8  -4  -4   25.28   21.00
   8   4   4   14.85   13.65
  -9  -4  -4   35.14   25.55
  -9  -4  -4 -229.60  329.11
 -10  -4  -4 -248.72  392.40
 -10  -4  -4   12.07   28.86
  13  -5  -4   73.58   75.38
  12  -5  -4  177.51   40.11
  12  -5  -4  255.87   99.60
  12  -5  -4  225.15   40.80
  11  -5  -4  111.23   71.41
  10  -5  -4   22.50  103.63
  10  -5  -4  278.37   86.65
   9  -5  -4   -9.55   98.91
   9  -5  -4  157.87   70.18
   8  -5  -4  -16.39   94.92
   8  -5  -4   14.58   53.29
   7  -5  -4   60.21   54.47
   7  -5  -4  -46.70   84.79
   6  -5  -4   73.81   27.16
   6  -5  -4   58.25   51.68
   6  -5  -4   10.69   97.97
   5  -5  -4  465.03   84.87
   5  -5  -4  125.88  183.66
   5  -5  -4  474.71  120.00
   4  -5  -4   49.26   24.42
   4  -5  -4   51.75   43.59
   4  -5  -4  -17.55   86.01
   3  -5  -4   57.66   25.43
   3  -5  -4  116.44  106.38
   3  -5  -4   49.95   46.71
   2  -5  -4   57.59   23.65
   2  -5  -4   -1.69   79.96
   2  -5  -4   10.07   38.09
  -2   5   4   43.08   10.13
   1  -5  -4 1042.04  230.85
   1  -5  -4 1136.44  284.49
  -1   5   4 1057.08  197.51
  -1   5   4 1119.62  192.39
   0  -5  -4  133.76   50.27
   0  -5  -4  122.83   30.92
   0  -5  -4    0.64   90.62
   0   5   4  113.90   22.14
  -1  -5  -4   42.89   83.99
  -1  -5  -4   34.03   18.87
   1   5   4   42.23   10.78
  -2  -5  -4  128.25   30.95
  -2  -5  -4    1.63   92.19
   2   5   4  124.12   23.61
  -3  -5  -4  -63.20  179.81
  -3  -5  -4  157.05   31.66
   3   5   4  117.90   25.13
  -4  -5  -4 -155.88  198.50
  -4  -5  -4  168.99   35.94
   4   5   4  166.05   30.55
  -5  -5  -4 -226.53  185.22
   5   5   4   35.25   12.13
  -6  -5  -4  -49.97  213.47
  -7  -5  -4  -92.08  237.04
   7   5   4   83.85   20.85
  -8  -5  -4  -56.15  253.06
  -9  -5  -4 -215.24  298.27
  12  -6  -4   31.52   69.05
  11  -6  -4  124.98   86.14
  10  -6  -4  -16.76   96.08
  10  -6  -4  -23.88   68.96
   9  -6  -4   32.45   56.14
   9  -6  -4  -24.65   97.81
   8  -6  -4    3.10   59.68
   8  -6  -4   87.14  114.33
   7  -6  -4  272.76   86.67
   7  -6  -4  266.11   55.03
   7  -6  -4    3.58  120.33
   6  -6  -4  455.00  109.83
   6  -6  -4  541.78  148.77
   5  -6  -4   54.74   27.79
   5  -6  -4   71.05   49.00
   5  -6  -4   10.46  100.03
   4  -6  -4  227.78   54.51
   4  -6  -4   81.62  142.21
   4  -6  -4  276.91   81.85
   3  -6  -4   70.92   45.66
   3  -6  -4    6.66   21.98
   3  -6  -4   52.47   93.27
   2  -6  -4  647.93  172.00
   2  -6  -4  671.29  135.46
  -2   6   4  593.40  108.03
   1  -6  -4  933.00  211.48
   1  -6  -4 1112.77  261.45
  -1   6   4  986.99  179.66
   0  -6  -4  -35.01   76.96
   0  -6  -4   -0.16   33.91
   0  -6  -4   18.60   17.27
   0   6   4    4.51    5.29
  -1  -6  -4  329.51   64.60
   1   6   4  257.32   50.38
  -2  -6  -4   23.25   18.18
  -2  -6  -4   30.51   95.21
   2   6   4   20.23    7.95
  -3  -6  -4  162.77   45.56
   3   6   4  200.93   36.78
  -4  -6  -4  256.80   51.61
   4   6   4  191.50   41.80
  -5  -6  -4 -155.84  184.16
  -6  -6  -4  -22.05  218.79
  -7  -6  -4  -62.16  227.76
  -8  -6  -4   12.99  298.46
  -9  -6  -4 -305.19  305.57
  12  -7  -4  -16.58   75.41
  11  -7  -4   -2.91   66.90
  10  -7  -4  -75.37   63.25
  10  -7  -4   56.13  121.40
   9  -7  -4   88.11   72.74
   9  -7  -4  -13.21  114.65
   8  -7  -4   27.28  125.17
   8  -7  -4  160.78   80.19
   7  -7  -4   64.73  116.09
   7  -7  -4  -27.00   24.10
   7  -7  -4   51.41   61.89
   6  -7  -4   50.18   60.40
   6  -7  -4  -12.45  104.29
   6  -7  -4   25.83   28.41
   5  -7  -4    8.86  112.89
   5  -7  -4   83.44   57.73
   5  -7  -4   75.55   32.03
   4  -7  -4  447.77  102.15
   4  -7  -4  402.92  134.00
   3  -7  -4  -11.07   19.55
   3  -7  -4    2.57   43.67
   3  -7  -4   74.58  116.32
  -3   7   4   -9.64    5.37
   2  -7  -4  375.21   96.88
   2  -7  -4  -22.24  147.76
   2  -7  -4  385.44   69.65
  -2   7   4  289.93   51.03
   1  -7  -4  154.93   66.38
   1  -7  -4    4.69  119.27
   1  -7  -4  208.20   50.49
  -1   7   4  204.43   35.34
   0  -7  -4  -54.24   31.45
   0  -7  -4   16.43   20.20
   0  -7  -4   25.75  113.30
   0   7   4   11.33    5.99
  -1  -7  -4   32.06  114.42
  -1  -7  -4   28.19   21.24
  -2  -7  -4   91.73   30.64
  -3  -7  -4  284.68   66.97
  -6  -7  -4  -34.16  235.48
  -7  -7  -4 -215.57  261.80
  -8  -7  -4  -54.05  334.01
  11  -8  -4  113.30   87.63
  10  -8  -4  267.22  199.02
  10  -8  -4  302.88  121.82
   9  -8  -4  307.71   96.35
   9  -8  -4   59.10  133.54
   8  -8  -4   11.56  120.22
   8  -8  -4   41.68   63.42
   8  -8  -4    9.77   27.43
   7  -8  -4   90.18   34.16
   7  -8  -4   77.37   67.99
   7  -8  -4   17.78  118.87
   6  -8  -4   39.94   30.54
   6  -8  -4   13.72   57.40
   6  -8  -4  -41.04  104.14
   5  -8  -4  302.30   93.52
   5  -8  -4  490.90   69.43
   5  -8  -4  -51.56  132.04
   4  -8  -4  -67.45   81.43
   4  -8  -4  171.45   61.04
   4  -8  -4   84.75   31.43
   3  -8  -4   85.88   57.84
   3  -8  -4   88.32  132.84
   3  -8  -4  165.51   44.24
   2  -8  -4 -112.90  115.60
   2  -8  -4  326.87   72.39
   2  -8  -4  196.16   45.80
   1  -8  -4  -78.83   85.38
   1  -8  -4  -10.23   22.29
   1  -8  -4  -24.09   34.82
   0  -8  -4  204.53   42.51
   0  -8  -4  -17.93  107.29
  -1  -8  -4   93.13   33.75
  -2  -8  -4  389.37   90.35
  -3  -8  -4  283.07   68.40
  11  -9  -4 -142.77   64.95
  10  -9  -4  -87.09  107.32
  10  -9  -4  165.76   94.85
   9  -9  -4   10.88  134.75
   9  -9  -4  110.51   87.13
   8  -9  -4   24.94   68.18
   8  -9  -4   77.79   34.87
   8  -9  -4  -27.83  126.52
   7  -9  -4   20.69   33.74
   7  -9  -4   83.59  131.10
   7  -9  -4   86.55   66.39
   6  -9  -4  -42.45  129.94
   6  -9  -4   83.12   37.91
   6  -9  -4  142.76   71.06
   5  -9  -4  234.61   91.36
   5  -9  -4  257.84   63.58
   5  -9  -4  117.20  170.04
   4  -9  -4  149.60   40.91
   4  -9  -4   -6.20   49.55
   4  -9  -4  -24.15  111.46
   3  -9  -4   84.66   54.37
   3  -9  -4   51.36   33.26
   3  -9  -4   17.91  124.32
   2  -9  -4  -45.65  100.75
   2  -9  -4   19.80   29.90
   2  -9  -4  176.89   55.36
   1  -9  -4  153.54   40.35
   1  -9  -4   61.63  144.54
   1  -9  -4   42.77   48.96
   0  -9  -4   95.93   37.30
  -1  -9  -4   54.55   31.34
  -2  -9  -4  241.75   62.85
  10 -10  -4   -1.79   86.12
  10 -10  -4   48.62  146.44
   9 -10  -4  171.89  157.68
   9 -10  -4    8.54   72.74
   9 -10  -4   -9.20   34.63
   8 -10  -4   91.98   82.75
   8 -10  -4   31.62   38.51
   8 -10  -4   33.83  143.63
   7 -10  -4   12.23   59.54
   7 -10  -4   -5.39  129.41
   7 -10  -4    4.50   28.99
   6 -10  -4  146.00  184.04
   6 -10  -4  182.38   58.69
   6 -10  -4  269.33   95.90
   5 -10  -4   -5.46  141.35
   5 -10  -4   75.64   59.29
   5 -10  -4  -19.08   28.29
   4 -10  -4 -105.52  110.60
   4 -10  -4  -50.46   26.67
   4 -10  -4  -25.67   48.34
   3 -10  -4   54.50   35.43
   3 -10  -4   -5.16   43.00
   3 -10  -4  -60.95  100.22
   2 -10  -4  117.35   42.99
   2 -10  -4   90.90  145.21
   2 -10  -4   27.11   49.75
   1 -10  -4  473.13  113.38
   0 -10  -4   41.57   33.53
  -1 -10  -4  184.03   54.32
   9 -11  -4   90.45  170.60
   8 -11  -4  143.58   50.95
   8 -11  -4   42.17   78.22
   8 -11  -4  -24.24  148.32
   7 -11  -4   12.04  140.33
   7 -11  -4   31.55   59.96
   7 -11  -4   11.87   34.80
   6 -11  -4  -39.15  134.25
   6 -11  -4  254.60   62.19
   6 -11  -4  341.35   94.25
   5 -11  -4   52.10   54.50
   5 -11  -4  -59.13  110.30
   5 -11  -4   24.06   34.90
   4 -11  -4  -32.88   26.62
   4 -11  -4   55.84  151.17
   4 -11  -4  -14.88   48.66
   3 -11  -4    3.92   49.21
   3 -11  -4    3.40  120.80
   3 -11  -4    8.71   34.37
   2 -11  -4  220.68   59.34
   2 -11  -4  152.89   75.30
   1 -11  -4  140.75   50.34
   0 -11  -4  -16.73   29.31
  -1 -11  -4   75.11   41.92
   7 -12  -4   85.65  182.18
   6 -12  -4 -106.75  130.06
   6 -12  -4    4.32   58.23
   6 -12  -4    2.98   41.80
   5 -12  -4   31.95   59.55
   5 -12  -4    7.96   38.69
   5 -12  -4  109.21  173.66
   4 -12  -4   36.34   38.73
   4 -12  -4   23.32   51.02
   3 -12  -4   68.05   59.26
   3 -12  -4   78.58   46.41
   2 -12  -4  380.84   99.00
   1 -12  -4   68.13   41.27
   0 -12  -4  116.20   51.37
   2 -15   5  -57.15   30.17
   3 -15   5   26.49   40.47
  -2 -14   5   40.61   33.48
  -1 -14   5  259.06   71.73
   0 -14   5  404.17  101.67
   1 -14   5  -32.01   25.93
   2 -14   5   34.90   32.57
   3 -14   5   29.09   36.54
   4 -14   5  331.77   90.22
   5 -14   5  106.43   49.96
   6 -14   5  -13.31   42.71
  -4 -13   5   80.51   37.14
  -3 -13   5  184.09   55.18
  -2 -13   5   33.91   29.96
  -1 -13   5   91.69   38.85
   0 -13   5   21.51   28.45
   1 -13   5   57.78   34.74
   2 -13   5   -4.27   24.61
   3 -13   5  225.85   65.98
   4 -13   5  176.97   56.01
   5 -13   5  -16.69   31.12
   6 -13   5   25.23   38.07
   7 -13   5  -28.23   34.82
   8 -13   5  105.64   50.53
  -6 -12   5   40.32   31.71
  -5 -12   5   98.35   38.68
  -4 -12   5  262.85   68.48
  -3 -12   5   56.29   30.31
  -2 -12   5  -21.29   21.94
  -1 -12   5   47.03   29.23
   0 -12   5  213.66   57.20
   1 -12   5  249.00   66.02
   2 -12   5  -14.20   23.42
   3 -12   5  565.56  131.91
   4 -12   5  195.31   40.56
   4 -12   5  210.41   59.80
   5 -12   5  -46.09   25.34
   6 -12   5  -13.19   28.86
   7 -12   5  121.77   46.93
   8 -12   5  431.90  108.88
   9 -12   5   88.00   46.46
  -7 -11   5   12.44   28.91
  -6 -11   5   25.86   30.23
  -5 -11   5   91.47   35.49
  -4 -11   5  364.24   86.89
  -3 -11   5  -24.19   19.17
  -2 -11   5   -8.59   20.30
  -1 -11   5  143.43   43.18
   0 -11   5  457.04  107.04
   1 -11   5   84.04   35.63
   1 -11   5  103.02   21.79
   2 -11   5   87.02   33.39
   2 -11   5   84.76   20.76
   3 -11   5   42.07   37.61
   3 -11   5  161.95   27.52
   4 -11   5   22.24   13.46
   4 -11   5   34.94   14.03
   4 -11   5   20.31   27.90
   5 -11   5   14.80   13.41
   5 -11   5   42.75   15.68
   5 -11   5   40.10   30.60
   6 -11   5  184.26   44.04
   6 -11   5  277.91   63.52
   7 -11   5  430.09   75.48
   7 -11   5  282.01   92.70
   8 -11   5   66.43   38.78
   9 -11   5   27.21   33.40
  10 -11   5    9.88   32.25
  -8 -10   5   70.51   35.56
  -8 -10   5   12.67  150.95
  -7 -10   5   71.55  138.66
  -7 -10   5   37.01   29.54
  -6 -10   5   39.60   25.55
  -6 -10   5   75.92  118.54
  -5 -10   5  319.17   78.28
  -4 -10   5  250.14   62.77
  -3 -10   5  -12.85   18.51
  -2 -10   5   36.97   19.78
  -2 -10   5   22.10   10.39
  -1 -10   5  708.04  119.28
  -1 -10   5  560.28  145.61
   0 -10   5 1043.13  231.95
   0 -10   5 1102.64  192.95
   1 -10   5   39.59   12.60
   1 -10   5   58.84   14.82
   1 -10   5   67.89   29.50
   2 -10   5  183.07   35.34
   2 -10   5  124.35   46.09
   2 -10   5  191.17   35.37
   3 -10   5   11.35   23.91
   3 -10   5   50.52   13.75
   3 -10   5   43.33   14.01
   4 -10   5  278.66   73.32
   4 -10   5  285.17   57.15
   4 -10   5  299.92   56.25
   5 -10   5  304.60   56.33
   5 -10   5  250.84   56.61
   5 -10   5  347.23   76.32
   6 -10   5   40.35   10.93
   6 -10   5   78.85   18.56
   6 -10   5   67.10   32.51
   6 -10   5   35.89   10.62
   6 -10   5   35.69   16.48
   7 -10   5  549.37   89.48
   7 -10   5  415.90   86.55
   7 -10   5  437.10  107.32
   7 -10   5  467.57   86.86
   8 -10   5   28.44   32.76
   8 -10   5   99.32   24.36
   8 -10   5   63.52   16.84
   8 -10   5   69.25   17.52
   9 -10   5  131.77   34.92
   9 -10   5  104.53   45.51
   9 -10   5  125.92   27.32
  10 -10   5    8.46   10.45
  10 -10   5   34.98   34.08
  11 -10   5  129.07   29.38
  11 -10   5  132.01   48.01
  -9  -9   5    6.22   41.59
  -9  -9   5  127.89  229.38
  -9  -9   5  -42.42   27.88
  -8  -9   5   41.69   48.66
  -8  -9   5  267.53   52.94
  -8  -9   5  138.18  232.76
  -7  -9   5  149.67   45.13
  -6  -9   5   58.26   17.86
  -6  -9   5   40.15   26.29
  -5  -9   5  228.34   57.14
  -5  -9   5  223.75   44.45
  -4  -9   5  -19.00   16.87
  -4  -9   5   10.39   88.54
  -4  -9   5   23.55   10.92
  -3  -9   5   56.15  111.14
  -3  -9   5  261.41   44.39
  -3  -9   5  218.73   56.85
  -2  -9   5   58.58   14.49
  -2  -9   5   39.03   22.77
  -1  -9   5  488.09   87.65
  -1  -9   5  497.49  107.93
  -1  -9   5  457.14   86.86
   0  -9   5  282.40   69.37
   0  -9   5  336.44   54.82
   0  -9   5  270.30   53.74
   1  -9   5   22.06   10.09
   1  -9   5   15.55    6.50
   1  -9   5   10.15    7.98
   1  -9   5   20.01   19.11
   2  -9   5   -9.44   17.76
   2  -9   5   14.02    8.49
   2  -9   5   17.03   10.16
   2  -9   5    5.85    5.80
   3  -9   5   46.47   20.09
   3  -9   5   81.83   31.81
   3  -9   5  112.07   19.66
   3  -9   5   95.92   20.99
   4  -9   5  403.58   81.99
   4  -9   5  312.66   64.62
   4  -9   5  311.99   63.09
   4  -9   5  374.20   64.97
   5  -9   5   -2.41   19.04
   5  -9   5  -11.95   21.98
   5  -9   5   18.81   12.31
   5  -9   5   12.06   11.71
   5  -9   5   18.02    8.67
   6  -9   5  391.61   95.19
   6  -9   5  337.62   62.33
   6  -9   5  296.09   63.05
   6  -9   5  313.03   78.14
   6  -9   5  307.19   63.51
   7  -9   5   67.95   30.61
   7  -9   5   48.49   36.48
   7  -9   5   19.33   16.09
   7  -9   5   31.07   14.30
   7  -9   5   73.18   19.43
   8  -9   5  186.62   49.65
   8  -9   5  115.13   61.46
   8  -9   5  143.61   37.99
   8  -9   5  175.04   35.22
   9  -9   5   12.25   39.16
   9  -9   5   16.95   17.16
   9  -9   5   20.90   12.39
   9  -9   5   -4.98   27.61
  10  -9   5  164.94   49.04
  10  -9   5  150.80   34.12
  10  -9   5   91.47   62.71
  10  -9   5  172.57   40.35
  11  -9   5  207.19   60.81
  11  -9   5  216.17   46.18
 -10  -8   5  -57.68   44.33
 -10  -8   5  272.51  261.98
 -10  -8   5  -26.01   28.53
  -9  -8   5  199.49  240.32
  -9  -8   5   97.64   37.14
  -9  -8   5    9.09   45.57
  -8  -8   5  222.94   49.98
  -8  -8   5   80.24   53.31
  -8  -8   5  126.57  231.64
  -7  -8   5   29.35   33.97
  -7  -8   5    0.41   13.00
  -7  -8   5  172.41  174.74
  -7  -8   5  -15.10   19.36
  -6  -8   5  222.14   32.61
  -6  -8   5   90.01   45.23
  -6  -8   5  -66.23  162.97
  -6  -8   5  174.55   41.00
  -5  -8   5  -56.67   14.08
  -5  -8   5   14.33   29.08
  -5  -8   5   -1.20   10.09
  -4  -8   5  298.46   70.92
  -4  -8   5  304.75   57.44
  -3  -8   5  194.85   38.78
  -3  -8   5  210.02   38.67
  -3  -8   5  180.34   48.52
   2   8  -5   84.61   24.62
  -2  -8   5  167.71   23.88
  -2  -8   5  113.61   22.16
  -2  -8   5   36.68   74.14
  -2  -8   5   68.01   28.93
   1   8  -5  704.02  133.57
  -1  -8   5  713.12  132.56
  -1  -8   5  700.90  126.34
  -1  -8   5  661.72  124.18
  -1  -8   5  674.31  149.18
   0   8  -5   42.36   13.84
   0  -8   5   58.29   19.12
   0  -8   5   60.84   13.04
   0  -8   5   43.67   11.29
   0  -8   5   24.55   11.01
  -1   8  -5  237.65   57.04
   1  -8   5  280.37   53.49
   1  -8   5  293.73   55.58
   1  -8   5  334.80   54.32
   1  -8   5  277.78   67.35
  -2   8  -5   -6.95    8.44
   2  -8   5   13.67   16.63
   2  -8   5    3.56    6.30
   2  -8   5   -2.88    8.85
   2  -8   5   -1.73    8.03
  -3   8  -5 1434.06  262.36
   3  -8   5 1353.11  260.92
   3  -8   5 1455.50  291.82
   3  -8   5 1382.82  244.85
   3  -8   5 1300.86  250.07
  -4   8  -5 1075.08  200.70
   4  -8   5 1073.10  199.35
   4  -8   5 1052.58  191.53
   4  -8   5 1097.71  224.24
   4  -8   5  955.39  266.27
   4  -8   5 1046.19  187.46
   5  -8   5   64.11   14.86
   5  -8   5   15.07   22.29
   5  -8   5   58.21   16.94
   5  -8   5   58.94   17.26
   5  -8   5    6.95   24.89
   6  -8   5  267.82   54.00
   6  -8   5  317.10   81.47
   6  -8   5  292.16   67.98
   6  -8   5  204.39   54.17
   6  -8   5  299.82   55.60
   7  -8   5   -2.75   12.50
   7  -8   5    7.95   13.00
   7  -8   5   16.04   22.46
   7  -8   5   42.56   30.44
   8  -8   5  337.27  105.64
   8  -8   5  363.87   73.83
   8  -8   5  407.03   89.68
   9  -8   5   40.23   40.47
   9  -8   5  121.02   33.93
   9  -8   5   37.78   22.71
   9  -8   5   60.78   18.98
  10  -8   5  234.83   46.89
  10  -8   5  229.42   56.09
  10  -8   5   58.03   65.66
  10  -8   5  210.47   42.24
  11  -8   5  137.20   62.81
  11  -8   5  122.18   31.66
  12  -8   5    6.57   46.77
 -10  -7   5   21.60   45.27
 -10  -7   5  136.81  259.65
 -10  -7   5  -51.31   30.45
  -9  -7   5  231.74   81.08
  -9  -7   5  340.60   79.69
  -9  -7   5  362.06  326.18
  -8  -7   5  190.40   61.33
  -8  -7   5  240.15  233.73
  -8  -7   5  181.83   55.15
  -7  -7   5   24.59   34.71
  -7  -7   5   58.32   27.17
  -7  -7   5   47.63  153.90
  -6  -7   5   65.06   38.16
  -6  -7   5  -18.83  133.28
  -6  -7   5  150.39   35.16
  -5  -7   5  128.29   22.46
  -5  -7   5   49.87   34.84
  -5  -7   5   70.32   30.91
  -5  -7   5   23.46  125.45
   4   7  -5  556.60  107.13
  -4  -7   5  677.09   99.97
  -4  -7   5  292.51  110.85
  -4  -7   5  542.88  119.42
   3   7  -5  225.86   50.37
  -3  -7   5  223.50   56.56
  -3  -7   5  241.67   46.81
  -3  -7   5  262.84   49.80
  -3  -7   5  261.64   46.90
   2   7  -5   60.87   16.88
  -2  -7   5   48.74   14.21
  -2  -7   5   68.07   16.43
  -2  -7   5   58.69   21.23
  -2  -7   5   85.08   15.77
   1   7  -5    6.26    7.89
  -1  -7   5    2.79    7.57
  -1  -7   5   -2.56    5.56
  -1  -7   5    5.30    6.75
  -1  -7   5    2.01   11.63
   0   7  -5  279.58   60.92
   0  -7   5  333.67   57.24
   0  -7   5  333.62   70.63
   0  -7   5  298.48   59.68
   0  -7   5  301.05   57.10
  -1   7  -5  112.57   25.17
   1  -7   5  111.31   23.55
   1  -7   5  122.49   31.20
   1  -7   5  120.15   23.69
   1  -7   5   88.30   23.00
  -2   7  -5  313.45   68.24
   2  -7   5  310.94   78.21
   2  -7   5  371.44   67.05
   2  -7   5  362.75   63.74
   2  -7   5  334.67   64.49
  -3   7  -5  355.80   73.48
   3  -7   5  384.64   69.31
   3  -7   5  415.77   85.08
   3  -7   5  358.53   71.86
   3  -7   5  351.28   95.33
   3  -7   5  394.39   70.98
  -4   7  -5  108.41   27.81
   4  -7   5  158.20   28.21
   4  -7   5  113.74   34.91
   4  -7   5  146.82   39.84
   4  -7   5  129.18   27.98
   4  -7   5   91.64   26.29
  -5   7  -5    0.50   10.76
   5  -7   5   29.12   13.01
   5  -7   5   26.50   13.62
   5  -7   5   40.79   21.60
   5  -7   5   64.29   13.52
   5  -7   5   71.99   25.08
  -6   7  -5   16.83   13.88
   6  -7   5   -5.10   12.72
   6  -7   5   30.98   12.09
   6  -7   5   32.26   13.68
   6  -7   5   35.59   21.81
   6  -7   5    6.45   23.52
   7  -7   5  688.72  163.75
   7  -7   5  742.67  135.29
   7  -7   5  778.17  138.80
   8  -7   5   41.87   27.19
   8  -7   5  107.36   25.11
   9  -7   5   66.07   24.19
   9  -7   5  124.10   36.26
  10  -7   5   73.74   28.24
  10  -7   5  139.47   33.25
  10  -7   5  199.11   43.22
  11  -7   5  -10.85   14.06
  11  -7   5   28.21   42.06
  11  -7   5   29.49   19.91
  12  -7   5   47.70   20.64
  12  -7   5   32.02   48.02
 -11  -6   5  196.15  354.04
 -11  -6   5   71.03   45.70
 -11  -6   5  -10.70   41.80
 -10  -6   5   71.50  298.30
 -10  -6   5   57.99   41.61
 -10  -6   5   -7.86   36.20
  -9  -6   5   28.45  296.29
  -9  -6   5  241.31   59.68
  -9  -6   5  195.11   58.61
  -8  -6   5  109.86   42.18
  -8  -6   5  256.36  228.07
  -8  -6   5   57.14   34.25
   7   6  -5   96.49   23.14
  -7  -6   5   20.76   33.57
  -7  -6   5  -13.62  164.48
  -7  -6   5   88.47   30.60
   6   6  -5    7.52   11.42
  -6  -6   5   44.71   30.74
  -6  -6   5   17.88  128.77
  -6  -6   5   61.24   24.44
   5   6  -5  858.61  151.03
  -5  -6   5  577.52  156.55
  -5  -6   5  796.76  167.67
   4   6  -5  231.21   44.34
  -4  -6   5  150.23   50.67
  -4  -6   5  189.37   48.73
  -4  -6   5  176.53   40.28
  -4  -6   5  260.59   44.06
   3   6  -5    9.93    9.11
  -3  -6   5   -9.29   11.17
  -3  -6   5    7.52    8.02
  -3  -6   5  -22.96   21.22
  -3  -6   5    0.56    8.06
   2   6  -5   16.75    9.78
  -2  -6   5   40.79   10.30
  -2  -6   5   13.54    8.17
  -2  -6   5   26.89    8.99
  -2  -6   5   16.65   12.21
   1   6  -5  123.74   27.40
  -1  -6   5  149.81   27.57
  -1  -6   5  102.77   25.30
  -1  -6   5  119.46   31.39
  -1  -6   5  138.23   26.00
   0   6  -5 1440.64  275.04
   0  -6   5 1368.19  262.34
   0  -6   5 1431.35  304.62
   0  -6   5 1539.53  274.66
   0  -6   5 1458.89  256.78
  -1   6  -5  584.49  111.54
   1  -6   5  601.77  106.34
   1  -6   5  553.14  104.10
   1  -6   5  551.57  124.36
   1  -6   5  587.75  111.02
  -2   6  -5 1202.66  217.48
   2  -6   5 1085.16  202.99
   2  -6   5 1099.25  207.52
   2  -6   5 1228.00  241.24
   2  -6   5 1118.03  216.84
  -3   6  -5  743.14  133.87
   3  -6   5  699.62  176.66
   3  -6   5  695.49  127.64
   3  -6   5  683.29  148.91
   3  -6   5  696.05  133.22
   3  -6   5  647.17  125.01
  -4   6  -5  260.31   53.19
   4  -6   5  224.66   50.94
   4  -6   5  318.67   62.36
   4  -6   5  263.59   52.54
   4  -6   5  249.65   50.21
  -5   6  -5  253.14   53.07
   5  -6   5  244.62   61.00
   5  -6   5  252.94   50.47
   5  -6   5  265.71   52.80
   5  -6   5  271.10   52.52
  -6   6  -5   68.91   20.22
   6  -6   5   78.83   20.47
   6  -6   5   50.41   25.26
   6  -6   5   64.73   17.95
  -7   6  -5  665.11  126.91
   7  -6   5  659.35  122.11
   7  -6   5  668.81  118.96
   7  -6   5  588.39  142.48
  -8   6  -5  424.20   97.13
   8  -6   5  530.54   95.14
   8  -6   5  526.59  110.53
   9  -6   5   20.65   16.49
   9  -6   5   -3.11   20.59
  10  -6   5   -9.27   14.14
  11  -6   5  115.48   33.78
  11  -6   5  164.25   38.69
  12  -6   5  106.74   30.38
 -11  -5   5   15.43   38.57
 -11  -5   5   33.15   41.40
 -11  -5   5 -210.90  421.11
 -10  -5   5  164.29   48.48
 -10  -5   5  156.51  350.60
 -10  -5   5   94.62   48.39
   9   5  -5  113.73   30.12
  -9  -5   5   83.33   40.79
  -9  -5   5  157.18  313.00
  -9  -5   5  119.66   40.03
   8   5  -5  153.68   36.55
  -8  -5   5  140.28   45.84
  -8  -5   5  -41.89  269.10
  -8  -5   5  189.74   46.55
   7   5  -5  121.20   29.91
  -7  -5   5  154.68   37.13
  -7  -5   5  106.13   39.17
  -7  -5   5   41.80  214.34
   6   5  -5   77.21   18.55
  -6  -5   5   48.97   26.91
  -6  -5   5   87.04   24.70
  -6  -5   5 -122.03  129.87
   5   5  -5 1101.30  216.13
  -5  -5   5  992.42  220.23
  -5  -5   5 1180.41  216.09
  -5  -5   5 1189.74  239.65
   4   5  -5  436.99   89.82
  -4  -5   5  473.54  100.49
  -4  -5   5  503.97   89.78
  -4  -5   5  376.54   95.66
   3   5  -5  258.70   47.15
  -3  -5   5  142.27   51.11
  -3  -5   5  197.66   43.40
  -3  -5   5  256.37   46.53
  -3  -5   5  244.68   52.67
   2   5  -5   75.60   18.76
  -2  -5   5   85.69   18.85
  -2  -5   5   67.45   17.50
  -2  -5   5   99.23   23.78
  -2  -5   5   88.09   17.77
  -2  -5   5   20.69   26.77
   1   5  -5  775.72  140.75
   1   5  -5  692.69  186.62
  -1  -5   5  653.37  155.60
  -1  -5   5  755.79  134.03
  -1  -5   5  724.61  131.22
  -1  -5   5  800.16  140.48
   0   5  -5  842.61  159.04
   0  -5   5  855.77  158.71
   0  -5   5  814.40  151.65
   0  -5   5  784.48  176.38
   0  -5   5  854.79  148.47
  -1   5  -5   10.53    8.17
   1  -5   5   -8.80    6.85
   1  -5   5    2.85    7.10
   1  -5   5  -34.67    9.95
   1  -5   5   -4.03    7.71
   1  -5   5   94.27   77.80
  -2   5  -5  143.12   30.33
   2  -5   5  131.06   28.68
   2  -5   5  141.60   30.03
   2  -5   5  148.37   35.42
   2  -5   5  145.19   29.79
  -3   5  -5   13.50    8.68
   3  -5   5   -0.80    7.29
   3  -5   5    2.63    9.18
   3  -5   5   10.81    9.85
   3  -5   5    5.08   11.43
  -4   5  -5  353.58   76.87
   4  -5   5  367.53   76.63
   4  -5   5  464.73   88.13
   4  -5   5  430.22   73.86
   4  -5   5  405.48   75.52
  -5   5  -5   18.42   10.46
   5  -5   5    7.65    9.09
   5  -5   5  -13.37    8.86
   5  -5   5   17.20   14.39
   5  -5   5   15.41   10.76
  -6   5  -5  336.60   70.30
   6  -5   5  338.65   79.16
   6  -5   5  386.27   66.70
   6  -5   5  326.81   67.98
  -7   5  -5  171.14   35.57
   7  -5   5  121.35   32.12
   7  -5   5  139.25   38.68
   7  -5   5  162.48   34.56
  -8   5  -5   56.23   17.70
   8  -5   5   23.85   19.31
   8  -5   5   31.94   18.71
  -9   5  -5    5.83   15.73
   9  -5   5   -6.77   12.25
 -10   5  -5  386.62   82.04
  10  -5   5  378.87   78.79
  11  -5   5  588.82  123.31
  11  -5   5  659.84  125.31
  12  -5   5  129.61   34.68
 -12  -4   5   99.52   46.33
 -12  -4   5  377.46  530.34
  11   4  -5  -29.37   14.86
 -11  -4   5   55.22   32.51
 -11  -4   5  325.78  474.88
  10   4  -5   57.24   21.67
 -10  -4   5   30.29   30.53
 -10  -4   5  189.28  394.76
   9   4  -5  183.99   38.82
  -9  -4   5  158.08   44.75
  -9  -4   5  -77.35  333.78
   8   4  -5  256.21   61.05
  -8  -4   5  770.52  440.42
  -8  -4   5  308.47   66.60
   7   4  -5  124.48   32.31
  -7  -4   5  158.83   38.89
  -7  -4   5  247.98  291.64
   6   4  -5  208.30   36.72
  -6  -4   5   31.96  188.27
  -6  -4   5  142.17   40.34
   5   4  -5   89.71   19.55
  -5  -4   5   13.77   93.37
  -5  -4   5   86.11   27.05
   4   4  -5  226.05   43.83
  -4  -4   5  178.39   47.19
   3   4  -5   64.74   14.96
  -3  -4   5   61.21   25.04
  -3  -4   5   59.59   18.80
  -3  -4   5   58.65   14.70
  -3  -4   5   13.93   67.53
   2   4  -5  143.53   37.98
   2   4  -5  100.63   24.97
  -2  -4   5   77.87   32.84
  -2  -4   5  132.88   24.55
  -2  -4   5  118.90   30.41
   1   4  -5 1637.11  298.54
   1   4  -5 1450.86  397.19
  -1  -4   5 1611.95  285.04
  -1  -4   5 1570.11  329.72
  -1  -4   5 1589.12  278.75
   0   4  -5  208.27   36.12
   0   4  -5  152.24   47.41
   0  -4   5  178.96   39.84
   0  -4   5  166.04   33.19
   0  -4   5  158.81   33.94
  -1   4  -5  113.42   24.87
   1  -4   5  131.52   24.17
   1  -4   5  108.60   24.29
   1  -4   5  100.82   28.32
  -2   4  -5  375.44   70.85
   2  -4   5  368.95   66.59
   2  -4   5  372.00   68.15
   2  -4   5  334.79   78.20
  -3   4  -5 1346.63  247.12
   3  -4   5 1314.50  236.50
   3  -4   5 1271.57  231.12
   3  -4   5 1265.68  272.86
  -4   4  -5  381.67   74.90
   4  -4   5  398.94   84.31
   4  -4   5  419.99   72.55
   4  -4   5  333.05   70.55
  -5   4  -5   71.49   14.70
   5  -4   5    8.79   14.79
   5  -4   5   47.97   15.07
   5  -4   5   21.56   12.89
  -6   4  -5  593.15  113.97
   6  -4   5  618.23  109.60
   6  -4   5  593.34  125.81
   6  -4   5  541.61  106.24
  -7   4  -5  196.95   43.31
   7  -4   5  234.50   49.24
   7  -4   5  243.09   43.45
   7  -4   5  143.57   39.63
  -8   4  -5   29.53   17.54
   8  -4   5   63.47   20.22
  -9   4  -5   21.67   18.64
   9  -4   5   30.37   16.87
 -10   4  -5  237.95   61.92
  10  -4   5  354.86   62.87
 -11   4  -5  265.23   56.62
  11  -4   5  218.53   53.37
 -12   4  -5    0.15   22.57
  12  -4   5   57.97   22.15
 -12  -3   5  310.74  618.39
  11   3  -5  143.12   31.95
 -11  -3   5   76.23   34.61
  10   3  -5   51.00   19.10
 -10  -3   5   11.01   22.58
   9   3  -5  595.43  100.83
  -9  -3   5  397.99  100.30
   8   3  -5  704.78  124.01
  -8  -3   5  532.14  126.08
   7   3  -5   93.19   21.35
  -7  -3   5   49.82   23.44
   6   3  -5  224.29   42.67
  -6  -3   5  165.06   43.71
   5   3  -5   13.45    9.62
  -5  -3   5  -22.51   11.92
   4   3  -5  893.06  210.60
   4   3  -5  818.22  155.57
  -4  -3   5  735.39  157.39
   3   3  -5  124.29   23.98
   3   3  -5  126.66   39.15
  -3  -3   5   49.90   26.62
  -3  -3   5  127.22  138.31
   2   3  -5  568.03  152.91
   2   3  -5  642.54  113.32
  -2  -3   5  573.78  117.99
  -2  -3   5  556.28  105.92
   1   3  -5 2161.06  553.13
   1   3  -5 2180.15  414.72
  -1  -3   5 2227.99  396.33
  -1  -3   5 2199.18  387.47
  -1  -3   5 2182.75  458.02
   0   3  -5  -13.85   16.12
   0   3  -5   10.22    7.57
   0  -3   5    5.06    7.64
   0  -3   5   11.92    8.68
   0  -3   5   -4.45    7.13
  -1   3  -5   -8.75    6.73
   1  -3   5   -5.23    7.36
   1  -3   5   -9.99    6.57
   1  -3   5   -9.31    7.54
  -2   3  -5  500.47   95.36
   2  -3   5  489.62   89.61
   2  -3   5  482.54  104.99
   2  -3   5  511.14   91.82
  -3   3  -5 1207.82  218.58
   3  -3   5 1107.05  204.45
   3  -3   5 1128.17  240.94
   3  -3   5 1147.01  209.32
  -4   3  -5  373.55   68.10
   4  -3   5  365.71   66.49
   4  -3   5  332.48   74.74
   4  -3   5  310.16   64.15
  -5   3  -5    3.26   10.13
   5  -3   5   43.76   13.89
   5  -3   5   32.28   13.40
   5  -3   5   65.67   14.24
  -6   3  -5   41.96   14.56
   6  -3   5   62.06   17.18
   6  -3   5   37.94   14.65
   6  -3   5   38.18   16.29
  -7   3  -5  154.80   30.91
   7  -3   5  136.91   30.61
   7  -3   5   92.83   27.74
  -8   3  -5  267.77   57.77
   8  -3   5  268.12   55.37
  -9   3  -5   84.42   25.71
   9  -3   5   88.20   26.09
 -10   3  -5  292.74   62.89
  10  -3   5  272.35   60.00
 -11   3  -5   31.56   22.14
  11  -3   5   25.48   21.86
 -12   3  -5   51.04   25.23
  12  -3   5   13.39   19.89
  12   2  -5    2.90   17.21
  12   2  -5  -44.19   44.42
 -12  -2   5    5.17   21.65
  11   2  -5   36.74   19.58
  11   2  -5   30.21   48.54
 -11  -2   5   76.76   27.15
  10   2  -5   60.54   20.44
  10   2  -5   34.18   46.31
 -10  -2   5   41.06   22.34
   9   2  -5  186.29   38.57
  -9  -2   5  144.35   39.80
   8   2  -5  278.76   50.95
  -8  -2   5  193.69   50.51
   7   2  -5   36.45   14.67
  -7  -2   5   46.56   17.26
   6   2  -5   20.29   10.88
   6   2  -5  -27.97   23.49
  -6  -2   5   19.59   12.12
   5   2  -5  714.70  140.51
   5   2  -5  734.35  195.47
  -5  -2   5  751.42  141.28
   4   2  -5  370.58   81.14
   4   2  -5  421.31  115.10
  -4  -2   5  505.32   83.17
   3   2  -5    3.25    6.86
   3   2  -5   48.31   26.39
  -3  -2   5  -15.40   11.15
   2   2  -5   73.94   33.60
   2   2  -5   95.05   19.00
   2   2  -5   83.29   18.97
  -2  -2   5   74.65   18.07
  -2  -2   5   57.06   21.51
   1   2  -5  634.30  156.37
   1   2  -5  529.05  114.05
   1   2  -5  648.31  116.00
  -1  -2   5  632.42  107.05
  -1  -2   5  624.26  109.44
  -1  -2   5  515.15  118.26
   0   2  -5  751.76  145.85
   0   2  -5  729.71  150.71
   0   2  -5  803.21  197.34
   0  -2   5  796.20  160.99
   0  -2   5  744.06  139.76
   0  -2   5  758.83  136.43
  -1   2  -5  417.88   80.81
  -1   2  -5  446.91  110.03
   1  -2   5  424.40   88.81
   1  -2   5  396.74   77.91
   1  -2   5  417.03   75.97
  -2   2  -5 1219.40  235.20
   2  -2   5 1252.68  220.15
   2  -2   5 1249.19  259.17
   2  -2   5 1234.49  225.24
  -3   2  -5 1821.85  354.03
   3  -2   5 1852.54  338.81
   3  -2   5 1932.79  331.15
   3  -2   5 1872.08  390.24
  -4   2  -5  262.70   47.68
   4  -2   5  213.99   46.07
   4  -2   5  237.27   51.16
   4  -2   5  210.57   44.52
  -5   2  -5   85.29   23.33
   5  -2   5   87.35   24.74
   5  -2   5  105.33   23.77
   5  -2   5  123.12   25.01
  -6   2  -5   44.00   17.98
  -6   2  -5   40.38   52.81
   6  -2   5   68.03   18.85
   6  -2   5   60.70   16.80
  -7   2  -5  229.32   53.59
  -7   2  -5   82.60  105.18
   7  -2   5  359.19   52.90
   7  -2   5  282.61   53.28
  -8   2  -5   51.57   21.08
   8  -2   5   73.62   21.02
  -9   2  -5   57.11   21.92
   9  -2   5   50.64   20.67
 -10   2  -5  128.67  136.16
 -10   2  -5  189.89   45.95
  10  -2   5  208.58   44.87
 -11   2  -5  -16.30   17.08
 -11   2  -5 -142.23  105.97
  11  -2   5   -5.81   17.79
 -12   2  -5   33.18   24.17
  13   1  -5   17.28   18.20
  13   1  -5   -4.88   61.77
  12   1  -5  101.44   30.02
  12   1  -5  117.62   64.24
  11   1  -5   14.05   16.64
  11   1  -5  -10.61   48.00
  10   1  -5  256.07   91.13
  10   1  -5  236.52   53.21
 -10  -1   5  262.90   56.03
   9   1  -5  304.45  110.49
   9   1  -5  369.55   74.44
  -9  -1   5  387.04   76.37
   8   1  -5    4.57   43.00
   8   1  -5   65.71   18.08
  -8  -1   5   51.02   18.05
   7   1  -5  181.05   40.67
   7   1  -5  174.81   40.27
   7   1  -5  224.64   70.84
  -7  -1   5  204.08   41.82
   6   1  -5  -15.32   31.14
   6   1  -5  -13.16    7.36
   6   1  -5  -30.02    7.56
  -6  -1   5  -11.95    8.88
   5   1  -5 1550.81  307.97
   5   1  -5 1757.30  415.65
   5   1  -5 1610.71  308.23
  -5  -1   5 1653.06  308.53
   4   1  -5 1084.25  204.71
   4   1  -5 1113.03  204.64
   4   1  -5 1080.14  277.07
  -4  -1   5 1023.06  204.99
   3   1  -5  437.17   80.42
   3   1  -5  485.40  117.57
   3   1  -5  401.11   80.31
  -3  -1   5  392.02   80.94
   2   1  -5  272.11   53.86
   2   1  -5  296.20   82.00
   2   1  -5  247.61   53.73
  -2  -1   5  297.88   52.02
  -2  -1   5  321.86   56.31
   1   1  -5  322.09   67.66
   1   1  -5  400.18  101.36
   1   1  -5  384.19   68.32
  -1  -1   5  333.88   71.53
  -1  -1   5  360.03   65.71
  -1  -1   5  348.32   64.08
   0   1  -5  990.30  183.03
   0   1  -5  962.45  245.49
   0   1  -5  885.04  181.06
   0  -1   5  985.95  173.86
   0  -1   5  993.69  169.70
  -1   1  -5   50.17  114.08
  -1   1  -5   45.42   28.43
  -1   1  -5   18.61   20.37
  -1   1  -5   55.33   12.63
  -1   1  -5  160.27   72.89
   1  -1   5   49.33   13.33
   1  -1   5   58.29   14.55
   1  -1   5   41.98   13.04
  -2   1  -5  225.42  275.76
  -2   1  -5  353.27   68.91
  -2   1  -5  629.29  174.58
   2  -1   5  374.01   64.97
   2  -1   5  358.69   66.85
   2  -1   5  339.87   74.77
  -3   1  -5  693.00  128.64
   3  -1   5  683.63  140.48
   3  -1   5  609.81  123.45
   3  -1   5  676.20  120.41
  -4   1  -5  -31.44   36.19
  -4   1  -5   11.51    9.49
   4  -1   5    4.43    8.22
   4  -1   5    1.78    9.77
  -5   1  -5   90.18   27.40
   5  -1   5  155.26   27.36
   5  -1   5  132.91   27.75
  -6   1  -5  663.75  124.42
   6  -1   5  614.51  119.04
   6  -1   5  639.56  116.11
  -7   1  -5 1126.08  217.18
   7  -1   5 1138.37  207.92
  -8   1  -5   55.65  108.83
  -8   1  -5   26.85   15.85
   8  -1   5   -4.99   12.83
  -9   1  -5  -29.00   94.42
  -9   1  -5  176.21   36.13
   9  -1   5  145.30   34.12
 -12   1  -5 1620.42 1430.45
  13   0  -5   56.23   23.54
  13   0  -5   11.26   66.52
  12   0  -5   41.88   72.00
  12   0  -5  193.92   39.60
  11   0  -5   35.30   55.57
  11   0  -5   40.43   18.07
  10   0  -5  126.95   54.46
  10   0  -5  147.91  109.85
  10   0  -5   33.95   18.85
   9   0  -5  119.70   29.77
   9   0  -5  340.24  145.39
   9   0  -5  119.73   61.49
  -9   0   5   99.87   30.25
   8   0  -5   82.94   25.87
   8   0  -5  131.26   54.02
  -8   0   5  140.65   28.78
   7   0  -5   11.66   10.01
   7   0  -5   -3.05    7.62
   7   0  -5   10.65   34.05
  -7   0   5   -5.14    9.23
   6   0  -5  354.24   66.58
   6   0  -5  342.72   66.51
   6   0  -5  404.69  104.02
  -6   0   5  293.47   67.23
   5   0  -5  547.79  132.28
   5   0  -5  493.85   89.69
   5   0  -5  443.14   89.41
  -5   0   5  436.20   89.74
   4   0  -5  -11.52    6.25
   4   0  -5    1.79    6.65
   4   0  -5   15.86   28.17
  -4   0   5   20.09    7.68
   3   0  -5   39.09   36.11
   3   0  -5   51.87   11.27
   3   0  -5   37.79   10.77
  -3   0   5   35.12   11.34
   2   0  -5  440.42  132.49
   2   0  -5  512.85   91.20
   2   0  -5  461.33   91.04
  -2   0   5  460.51   86.04
   1   0  -5 1077.84  204.21
   1   0  -5 1107.58  204.26
   1   0  -5 1102.70  278.57
  -1   0   5 1046.65  191.71
  -1   0   5 1065.39  196.21
   0   0  -5  503.58   96.50
   0   0  -5  546.80  138.33
   0   0  -5  517.12   96.70
   0   0   5  471.80   93.44
   0   0   5  522.15   91.07
  -1   0  -5   58.74   67.44
  -1   0  -5   44.11   98.97
  -1   0  -5   55.07   12.06
  -1   0  -5   21.47   16.57
  -1   0  -5   47.62   31.22
   1   0   5   72.22   14.59
   1   0   5   49.38   12.62
  -2   0  -5  427.44   80.28
   2   0   5  413.24   75.38
   2   0   5  405.91   77.49
  -3   0  -5    7.78    7.90
  -3   0  -5   -8.48   50.43
  -3   0  -5  107.25  115.33
   3   0   5   12.71    9.04
   3   0   5   -2.33    7.68
  -4   0  -5  453.11  456.50
  -4   0  -5  603.16  108.30
   4   0   5  511.54  101.04
   4   0   5  594.14  104.00
  -5   0  -5  134.68  235.34
  -5   0  -5   42.16   13.30
   5   0   5   32.60   11.55
   5   0   5   15.75   12.06
  -6   0  -5  762.58  153.77
  -6   0  -5 1272.78  696.62
   6   0   5  772.09  143.68
   6   0   5  812.28  147.46
  -7   0  -5  964.56  472.89
  -7   0  -5  223.11   47.28
   7   0   5  182.03   45.09
  -8   0  -5  312.65  453.46
  -9   0  -5 -285.67  408.64
  -9   0  -5   82.08   23.24
   9   0   5   60.79   22.49
 -10   0  -5   60.37   23.56
 -10   0  -5  150.13  517.93
  10   0   5   56.40   23.90
 -11   0  -5  682.07  905.43
  13  -1  -5  229.07   94.32
  13  -1  -5  241.63   53.67
  12  -1  -5  134.77   32.34
  12  -1  -5   68.10   70.08
  11  -1  -5   14.04   15.58
  11  -1  -5   61.50   53.51
  10  -1  -5  122.48   63.11
  10  -1  -5   54.42   21.61
  10  -1  -5  196.59  111.15
   9  -1  -5  231.02  107.66
   9  -1  -5  909.98  238.34
   9  -1  -5  323.66   70.26
   8  -1  -5  321.05  108.11
   8  -1  -5  326.32   67.80
   8  -1  -5  330.77   67.55
  -8   1   5  367.41   71.05
   7  -1  -5   40.85   12.24
   7  -1  -5   29.29   43.89
   7  -1  -5   49.27   91.74
   7  -1  -5   19.15   10.75
  -7   1   5   25.35   13.47
   6  -1  -5  962.50  264.34
   6  -1  -5  993.95  188.70
   6  -1  -5 1021.13  188.62
  -6   1   5  955.12  189.29
   5  -1  -5  988.05  287.87
   5  -1  -5 1173.58  210.99
   5  -1  -5 1050.14  210.92
  -5   1   5 1162.13  211.71
   4  -1  -5  215.16   38.77
   4  -1  -5  171.30   68.47
   4  -1  -5  184.48   38.51
   3  -1  -5  142.18   61.95
   3  -1  -5  280.15  134.58
   2  -1  -5  944.37  265.98
   2  -1  -5  453.49  140.55
  -2   1   5  476.19   91.64
   1  -1  -5  601.77  267.83
   1  -1  -5  557.52  150.40
  -1   1   5  564.25  100.75
  -1   1   5  522.71   98.15
   0  -1  -5   77.94   99.91
   0  -1  -5   86.21   45.32
   0   1   5  119.58   22.35
   0   1   5  110.58   23.34
  -1  -1  -5  -16.66   23.80
  -1  -1  -5    7.50   69.22
  -1  -1  -5  -10.58   75.58
   1   1   5   24.95    8.36
   1   1   5   38.30   10.23
  -2  -1  -5  -12.12   61.82
  -2  -1  -5 -103.08  107.39
  -2  -1  -5   43.90   15.13
  -2  -1  -5   46.94   10.81
   2   1   5   75.45   14.95
   2   1   5   70.38   13.12
  -4  -1  -5  294.08   57.90
  -4  -1  -5   36.07  276.90
   4   1   5  308.12   57.29
   4   1   5  336.70   55.65
  -5  -1  -5  125.88   28.46
  -5  -1  -5  128.66  217.88
   5   1   5  122.34   28.52
   5   1   5  138.34   27.63
  -6  -1  -5  268.25   57.10
  -6  -1  -5  232.84  336.31
   6   1   5  302.02   56.18
  -7  -1  -5  298.90  442.10
  -8  -1  -5   87.20   24.55
  -8  -1  -5   17.00  380.54
   8   1   5   87.05   24.31
  -9  -1  -5   56.72  445.74
  -9  -1  -5   44.96   18.74
   9   1   5   32.18   19.07
 -10  -1  -5  292.35   63.01
 -10  -1  -5 -210.53  535.78
  10   1   5  327.58   62.67
 -11  -1  -5   45.25   22.59
 -11  -1  -5 -328.49  580.42
  13  -2  -5  119.68   30.41
  13  -2  -5   52.00   77.17
  12  -2  -5   -8.40   57.02
  12  -2  -5   26.35   16.66
  11  -2  -5  -62.57   49.72
  11  -2  -5   18.53   13.46
  11  -2  -5   30.48  109.89
  10  -2  -5   26.02   84.91
  10  -2  -5  -13.67   10.21
  10  -2  -5   11.57   54.48
   9  -2  -5  319.96   93.65
   9  -2  -5  201.26   43.16
   9  -2  -5  143.15  143.69
   8  -2  -5  270.26   55.94
   8  -2  -5  298.32   56.06
   8  -2  -5  329.80   97.19
   8  -2  -5  160.06  162.01
   7  -2  -5   73.56   20.15
   7  -2  -5   96.49   20.34
   7  -2  -5   89.26   54.42
   7  -2  -5  176.49  113.68
   6  -2  -5  163.46  108.65
   6  -2  -5   99.19   21.80
   6  -2  -5  225.46   63.43
   6  -2  -5   96.78   21.77
   5  -2  -5  129.60   26.78
   5  -2  -5  114.06  110.17
   5  -2  -5  197.79   62.95
   5  -2  -5  146.95   26.87
   4  -2  -5   70.07   42.26
   4  -2  -5   56.02   93.51
   3  -2  -5  -21.36   30.28
   3  -2  -5   11.18   85.35
   2  -2  -5  518.39  401.91
   2  -2  -5  991.61  230.42
  -2   2   5  925.01  155.41
   1  -2  -5  197.91   72.68
   1  -2  -5  135.22  140.92
  -1   2   5  228.18   43.04
  -1   2   5  233.05   41.57
   0  -2  -5  128.19   45.41
   0  -2  -5   -9.61   86.11
   0   2   5   96.35   18.25
   0   2   5   84.14   19.43
  -1  -2  -5  -29.51   98.20
  -1  -2  -5  -65.06   62.13
  -1  -2  -5   94.44   32.88
   1   2   5   38.89   10.81
   1   2   5   36.62    9.56
  -2  -2  -5   42.92   76.29
  -4  -2  -5  100.82  254.42
  -4  -2  -5  258.14   49.55
   4   2   5  273.71   50.14
   4   2   5  250.22   47.69
  -5  -2  -5  -46.34  396.35
   5   2   5  611.74   89.13
  -6  -2  -5 -349.84  265.46
  -6  -2  -5   91.84   22.27
   6   2   5  117.46   23.77
  -7  -2  -5 -355.16  335.39
   7   2   5  220.24   39.23
  -8  -2  -5   57.50  323.98
  -8  -2  -5   45.08   17.56
   8   2   5   40.90   17.69
  -9  -2  -5   24.84   18.99
  -9  -2  -5 -236.75  374.88
   9   2   5   88.88   22.26
 -10  -2  -5  118.02   33.13
  10   2   5  114.12   31.27
 -11  -2  -5   69.93   28.31
 -11  -2  -5 -574.84  513.13
  13  -3  -5   -2.88   13.66
  13  -3  -5  -21.89   67.97
  12  -3  -5   24.02   14.27
  12  -3  -5   -8.72   61.32
  11  -3  -5  177.61   73.45
  11  -3  -5   17.23  123.09
  11  -3  -5   59.52   18.86
  10  -3  -5  219.63   89.35
  10  -3  -5   19.41  145.45
  10  -3  -5  251.40   45.49
   9  -3  -5  855.13  154.10
   9  -3  -5  781.49  226.12
   9  -3  -5  391.01  384.29
   9  -3  -5  837.30  154.05
   8  -3  -5   59.20   13.20
   8  -3  -5   12.94  100.96
   8  -3  -5   40.72   13.01
   8  -3  -5   24.66   48.23
   7  -3  -5   58.16  114.50
   7  -3  -5  117.83   23.35
   7  -3  -5   74.06   54.60
   7  -3  -5  119.83   23.25
   6  -3  -5  -54.86   34.81
   6  -3  -5  -16.09   96.11
   5  -3  -5  341.81   83.96
   5  -3  -5   98.54  149.12
   4  -3  -5  727.22  167.37
   4  -3  -5  424.76  289.77
   3  -3  -5   44.59   43.53
   3  -3  -5   26.75   88.96
   2  -3  -5   96.61   48.38
   2  -3  -5  -34.39   75.37
   2  -3  -5   49.68   22.06
  -2   3   5   71.97   14.39
   1  -3  -5   65.46   38.86
   1  -3  -5   10.78   72.23
   1  -3  -5   -3.98   12.09
  -1   3   5   10.91    6.28
  -1   3   5   17.17    8.51
   0  -3  -5  400.79  132.07
   0  -3  -5  475.10  102.95
   0   3   5  472.76   85.32
   0   3   5  505.62   88.00
  -1  -3  -5    9.73   26.83
  -1  -3  -5  -11.33   72.03
  -1  -3  -5   25.93   12.31
   1   3   5    5.54    5.68
   1   3   5   15.54    7.81
  -2  -3  -5  596.07  125.38
   2   3   5  570.74  108.79
   2   3   5  605.60  105.78
  -3  -3  -5   96.70   92.81
  -4  -3  -5   -6.15   66.66
  -4  -3  -5 -201.96  143.07
   4   3   5    9.97    9.80
   4   3   5    6.14    8.02
  -5  -3  -5   11.78   12.46
  -5  -3  -5  -10.70    9.73
   5   3   5   22.52   11.02
  -6  -3  -5   48.13   16.91
   6   3   5   48.74   16.82
  -7  -3  -5  112.36   29.69
  -7  -3  -5  -80.12  263.25
   7   3   5  145.31   30.72
  -8  -3  -5 -337.47  320.06
  -8  -3  -5   13.41   16.76
   8   3   5   10.28   13.98
  -9  -3  -5  126.61   31.15
  -9  -3  -5 -394.32  331.42
   9   3   5  104.47   27.70
 -10  -3  -5 -247.07  416.07
 -10  -3  -5    7.70   22.84
  13  -4  -5  -45.83   53.85
  12  -4  -5   26.98   12.43
  12  -4  -5    9.34   64.55
  11  -4  -5   62.56   70.77
  11  -4  -5   31.39  109.60
  11  -4  -5   27.64   11.32
  11  -4  -5   27.93   11.18
  10  -4  -5   14.01    8.28
  10  -4  -5    8.45    7.87
  10  -4  -5   18.26  112.26
  10  -4  -5  -10.87   51.96
   9  -4  -5  -21.04  115.99
   9  -4  -5  191.55   74.93
   8  -4  -5    9.41   53.91
   8  -4  -5  106.02  117.80
   7  -4  -5   82.58   58.17
   7  -4  -5  110.77  125.19
   6  -4  -5  663.12  124.43
   6  -4  -5  137.59  197.80
   5  -4  -5  128.65  154.35
   5  -4  -5  310.28   84.90
   4  -4  -5   32.87   20.52
   4  -4  -5    9.57   97.89
   4  -4  -5   97.21   50.31
   3  -4  -5  163.46   69.14
   3  -4  -5   34.76  125.13
   3  -4  -5  259.17   49.10
   2  -4  -5  -46.60   82.09
   2  -4  -5   -2.53   15.58
   2  -4  -5   -5.99   38.16
  -2   4   5   34.75    8.41
   1  -4  -5  282.85   98.31
   1  -4  -5   46.39  163.49
   1  -4  -5  388.06   74.58
  -1   4   5  335.55   60.43
  -1   4   5  348.18   58.27
   0  -4  -5  470.92  128.75
   0  -4  -5  450.69   97.76
   0   4   5  492.99   82.77
   0   4   5  418.12   79.94
  -1  -4  -5  228.93   81.94
  -1  -4  -5   12.71  140.51
  -1  -4  -5  331.19   62.16
   1   4   5  299.44   49.25
   1   4   5  275.05   51.12
  -2  -4  -5 1308.29  263.28
   2   4   5 1266.77  227.45
   2   4   5 1202.84  221.66
  -3  -4  -5    1.94   84.10
  -3  -4  -5   10.06  157.62
  -4  -4  -5 -178.28  170.24
   4   4   5   80.82   16.67
  -5  -4  -5 -204.97  182.50
   5   4   5   20.11   10.27
  -6  -4  -5  -96.79  219.21
  -7  -4  -5  -10.92  230.51
  -8  -4  -5 -116.38  268.44
  -8  -4  -5   -6.51   16.04
   8   4   5   -8.50   12.81
  -9  -4  -5  -15.01   20.33
 -10  -4  -5 -272.70  368.81
 -10  -4  -5   -1.16   25.12
  12  -5  -5  184.91  102.54
  11  -5  -5  136.20   78.47
  11  -5  -5  -38.27  105.42
  10  -5  -5   40.28  137.00
  10  -5  -5  432.27  106.19
   9  -5  -5   66.58   65.50
   9  -5  -5  -31.59   96.20
   8  -5  -5  215.23   71.49
   8  -5  -5  -72.91  103.29
   7  -5  -5   76.42  116.82
   7  -5  -5  -24.13   51.30
   6  -5  -5   47.35  126.75
   6  -5  -5  232.99   78.67
   5  -5  -5  878.45  180.11
   5  -5  -5  722.40  228.48
   4  -5  -5   12.82   89.27
   4  -5  -5   22.42   20.56
   4  -5  -5   -4.57   45.07
   3  -5  -5   72.03   28.47
   3  -5  -5   -0.43   90.90
   3  -5  -5   55.64   53.14
  -3   5   5  113.25   19.73
   2  -5  -5   -4.07   17.42
   2  -5  -5   17.10   35.67
   2  -5  -5  -20.43   86.56
  -2   5   5    8.72    8.17
  -2   5   5  -21.00    5.35
   1  -5  -5  580.23  122.14
   1  -5  -5  546.90  157.76
  -1   5   5  526.81  101.54
  -1   5   5  564.86   98.43
   0  -5  -5  -76.38  113.17
   0  -5  -5  104.47   61.71
   0  -5  -5  222.43   46.25
   0   5   5  197.31   34.76
   0   5   5  185.88   32.22
  -1  -5  -5    3.01   86.50
  -1  -5  -5   26.44   16.42
   1   5   5   26.90    8.44
   1   5   5    6.21    5.24
  -2  -5  -5   57.01   22.45
  -2  -5  -5   15.12   99.97
   2   5   5   79.74   16.61
  -3  -5  -5   63.08   19.56
  -3  -5  -5  -12.55   92.72
   3   5   5   57.35   15.29
  -4  -5  -5   -8.55  185.54
   4   5   5   20.79   10.83
  -5  -5  -5  -57.01  198.09
   5   5   5   79.00   18.72
  -6  -5  -5  -56.68  249.12
   6   5   5  212.84   38.28
  -7  -5  -5 -145.23  245.15
   7   5   5  103.82   23.46
  -8  -5  -5 -173.62  276.74
  -9  -5  -5  -86.74  314.23
  12  -6  -5  -58.83   62.34
  11  -6  -5  -13.23  117.54
  11  -6  -5  202.29   89.26
  10  -6  -5   -5.50  118.90
  10  -6  -5  -74.75   51.41
   9  -6  -5  -44.87   98.64
   9  -6  -5  -29.09   60.85
   8  -6  -5   50.45  135.26
   8  -6  -5  223.91   86.28
   7  -6  -5    2.47   57.47
   7  -6  -5   20.20  112.49
   6  -6  -5  173.48   70.24
   6  -6  -5   48.77  130.58
   6  -6  -5  127.69   40.42
   5  -6  -5  -11.19   94.21
   5  -6  -5    7.36   23.03
   5  -6  -5  -44.85   43.65
   4  -6  -5   44.38   51.78
   4  -6  -5   52.03   25.38
   4  -6  -5   -1.99   92.37
   3  -6  -5   41.73   24.05
   3  -6  -5  -42.74   39.69
   3  -6  -5   -3.77   97.85
  -3   6   5   17.01    8.16
   2  -6  -5  683.76  132.69
   2  -6  -5  514.50  165.83
  -2   6   5  564.27  108.48
  -2   6   5  600.57  105.20
   1  -6  -5  434.79   88.83
   1  -6  -5  393.90  115.97
  -1   6   5  369.37   67.42
  -1   6   5  387.04   70.32
   0  -6  -5   21.04   38.75
   0  -6  -5   51.72   21.96
   0  -6  -5   13.11   94.65
   0   6   5   40.06   11.03
  -1  -6  -5  707.05  145.12
   1   6   5  655.15  122.33
  -2  -6  -5   16.54  109.19
  -2  -6  -5   51.66   21.61
   2   6   5   56.89   13.85
  -3  -6  -5  462.81   89.54
   3   6   5  370.08   74.04
  -5  -6  -5   48.49  222.11
  -6  -6  -5 -185.30  215.49
  -7  -6  -5  -17.67  264.78
  -8  -6  -5 -252.80  279.76
  12  -7  -5  -55.45   83.38
  11  -7  -5  211.42  101.39
  11  -7  -5   67.43  143.36
  10  -7  -5   -2.31   73.21
  10  -7  -5   37.13  128.47
   9  -7  -5   17.79  143.99
   9  -7  -5  594.07  122.08
   8  -7  -5  185.10   83.32
   8  -7  -5   25.09  129.72
   7  -7  -5  -29.56   55.23
   7  -7  -5  -66.83  104.19
   7  -7  -5   18.77   24.51
   6  -7  -5  154.61   39.76
   6  -7  -5  -93.79  106.78
   6  -7  -5  108.11   66.46
   5  -7  -5  161.08   68.19
   5  -7  -5   33.62   28.33
   5  -7  -5   16.70  100.44
   4  -7  -5    1.04  108.83
   4  -7  -5  138.24   61.80
   4  -7  -5   49.75   28.61
   3  -7  -5   19.50   47.25
   3  -7  -5   96.06   27.64
   3  -7  -5  -26.47   92.54
  -3   7   5   13.84    7.39
   2  -7  -5  654.54  169.21
   2  -7  -5  573.31  130.21
  -2   7   5  568.20  105.90
   1  -7  -5   -3.86  148.30
   1  -7  -5  184.80   58.00
   1  -7  -5  227.50   80.79
  -1   7   5  263.36   43.46
   0  -7  -5  106.54  129.02
   0  -7  -5   -7.58   19.71
   0  -7  -5   -1.41   39.49
  -1  -7  -5   16.95   20.82
  -1  -7  -5    4.40  116.24
  -2  -7  -5  -45.23  118.39
  -2  -7  -5   87.47   28.77
  -7  -7  -5  -76.71  291.46
  11  -8  -5  -62.94  123.81
  11  -8  -5   45.32   87.40
  10  -8  -5  -22.44   74.03
  10  -8  -5   31.85  143.03
   9  -8  -5   40.60  141.88
   9  -8  -5  164.18   88.08
   8  -8  -5 -121.76   53.86
   8  -8  -5   54.85  137.73
   7  -8  -5   90.12   38.51
   7  -8  -5   40.33   66.81
   7  -8  -5   30.84  128.47
   6  -8  -5   64.18   66.77
   6  -8  -5  -42.27  104.54
   6  -8  -5   50.40   30.39
   5  -8  -5  283.95  103.36
   5  -8  -5  109.13  183.59
   5  -8  -5  340.97   73.35
   4  -8  -5   12.83   48.48
   4  -8  -5  -68.44   94.18
   4  -8  -5   44.84   28.73
   3  -8  -5    4.81  142.15
   3  -8  -5  268.11   91.20
   3  -8  -5  315.05   66.03
  -3   8   5  264.89   46.66
   2  -8  -5  153.43   41.17
   2  -8  -5   -9.98  113.19
   2  -8  -5  155.77   61.70
   1  -8  -5   25.48   45.21
   1  -8  -5   83.68  130.47
   1  -8  -5   39.22   26.50
   0  -8  -5   91.78   30.89
   0  -8  -5  -48.83  125.58
  -1  -8  -5   -2.98  122.41
  -1  -8  -5   45.39   26.24
  -2  -8  -5  554.33  124.55
  10  -9  -5  273.61  109.58
  10  -9  -5    0.47  144.61
   9  -9  -5   39.10   84.28
   9  -9  -5   61.78  141.54
   8  -9  -5  -40.43  127.24
   8  -9  -5   89.37   76.07
   8  -9  -5  115.96   43.04
   7  -9  -5  -27.88   54.64
   7  -9  -5    7.02  131.93
   7  -9  -5   42.53   35.00
   6  -9  -5  -10.00  116.94
   6  -9  -5   54.56   70.00
   6  -9  -5  162.52   46.87
   5  -9  -5  182.74   86.99
   5  -9  -5  -68.72  140.14
   5  -9  -5  337.73   60.45
   4  -9  -5   16.63   30.00
   4  -9  -5 -139.29  108.14
   4  -9  -5  149.27   66.12
   3  -9  -5   59.61   57.06
   3  -9  -5   56.21  139.04
   3  -9  -5   68.11   34.30
   2  -9  -5    2.53  120.32
   2  -9  -5   64.80   53.43
   2  -9  -5   94.21   36.44
   1  -9  -5  124.00   41.39
   1  -9  -5  -63.36  135.06
   1  -9  -5  227.68   70.64
   0  -9  -5   -2.99   26.73
   0  -9  -5  -56.95  124.91
  -1  -9  -5  175.43   51.78
   9 -10  -5 -115.48  135.42
   9 -10  -5   50.60   86.13
   8 -10  -5  -65.21   29.03
   8 -10  -5   92.12   79.07
   8 -10  -5  -17.54  139.34
   7 -10  -5    0.96   33.88
   7 -10  -5  179.12  173.85
   7 -10  -5   87.92   76.49
   6 -10  -5  112.34  186.46
   6 -10  -5  264.13   98.36
   6 -10  -5  224.23   66.51
   5 -10  -5  -48.26  130.71
   5 -10  -5   52.96   68.68
   5 -10  -5   78.38   37.92
   4 -10  -5  -57.65  129.84
   4 -10  -5    0.44   31.41
   4 -10  -5   54.74   57.06
   3 -10  -5  -69.32  104.75
   3 -10  -5  -32.55   28.29
   3 -10  -5  -16.90   43.11
   2 -10  -5   95.71  166.38
   2 -10  -5  136.16   46.71
   2 -10  -5  114.19   62.96
   1 -10  -5  151.68   50.14
   1 -10  -5   88.55  171.92
   0 -10  -5   11.99   27.73
   8 -11  -5  -70.88  152.43
   7 -11  -5   89.02  155.37
   7 -11  -5   25.49   42.15
   7 -11  -5   70.61   73.56
   6 -11  -5  -16.71  160.61
   6 -11  -5  243.93   90.46
   6 -11  -5  157.46   53.80
   5 -11  -5  100.79   43.40
   5 -11  -5   17.06   60.02
   5 -11  -5   55.93  164.60
   4 -11  -5   23.44   55.66
   4 -11  -5  -68.66  120.07
   4 -11  -5   34.12   36.90
   3 -11  -5   47.25   35.37
   3 -11  -5  -56.92  144.40
   3 -11  -5  -21.31   45.55
   2 -11  -5   51.71   39.22
   1 -11  -5   -8.05   32.19
   0 -11  -5   15.00   36.30
   5 -12  -5  -57.13  165.01
   4 -12  -5  120.07   68.77
   3 -12  -5   65.83   69.87
   3 -12  -5  182.74   55.60
   1 -15   6   92.88   42.66
   2 -15   6  -24.65   32.40
   3 -15   6   57.32   43.31
  -2 -14   6  -34.92   27.08
  -1 -14   6  260.71   72.52
   0 -14   6  156.15   51.98
   1 -14   6  -22.47   30.72
   2 -14   6   79.03   42.40
   3 -14   6  127.08   47.60
   4 -14   6  327.43   89.56
   5 -14   6  -11.76   35.34
   6 -14   6  284.43   82.91
  -4 -13   6  152.78   50.07
  -3 -13   6  158.68   50.61
  -2 -13   6   22.17   27.37
  -1 -13   6  344.66   86.91
   0 -13   6   74.33   34.87
   1 -13   6  115.83   42.74
   2 -13   6   -4.06   27.90
   3 -13   6  306.87   79.82
   4 -13   6  199.85   61.88
   5 -13   6   23.97   34.40
   6 -13   6  -82.01   28.00
   7 -13   6    2.79   36.30
   8 -13   6    3.42   39.15
  -6 -12   6   13.25   29.56
  -5 -12   6  151.88   49.04
  -4 -12   6  194.08   54.97
  -3 -12   6   55.30   29.48
  -2 -12   6   75.39   32.77
  -1 -12   6   34.80   27.41
   0 -12   6   89.74   36.04
   1 -12   6   -5.74   23.25
   2 -12   6  200.82   57.34
   3 -12   6  617.30  111.62
   3 -12   6  593.97  141.34
   4 -12   6   78.62   37.90
   4 -12   6   80.63   21.73
   5 -12   6   38.64   33.55
   5 -12   6   34.90   16.45
   6 -12   6   42.00   16.43
   6 -12   6   -0.91   13.75
   6 -12   6   -6.47   30.26
   7 -12   6  370.78   70.85
   7 -12   6  308.46   88.68
   8 -12   6  199.40   45.32
   8 -12   6  197.51   64.14
   9 -12   6   35.86   35.64
  -7 -11   6  166.81   52.59
  -6 -11   6  -28.29   24.15
  -5 -11   6  426.26  101.92
  -4 -11   6  504.83  116.38
  -3 -11   6   14.38   21.13
  -2 -11   6   58.61   28.61
  -1 -11   6   -4.16   19.38
   0 -11   6  296.61   78.42
   0 -11   6  346.36   62.35
   1 -11   6  101.95   22.93
   1 -11   6   84.57   34.05
   2 -11   6  302.57   54.58
   2 -11   6  237.82   69.51
   3 -11   6  367.46   72.97
   3 -11   6  357.31   92.41
   3 -11   6  408.60   72.38
   4 -11   6    8.22   12.07
   4 -11   6   22.67   14.41
   4 -11   6   64.61   31.01
   5 -11   6   85.82   23.40
   5 -11   6   57.30   36.35
   5 -11   6  110.70   24.65
   6 -11   6   54.39   21.43
   6 -11   6   50.03   12.44
   6 -11   6   91.78   35.44
   6 -11   6   94.81   21.41
   6 -11   6   63.65   12.97
   7 -11   6  147.84   35.64
   7 -11   6  214.99   57.27
   7 -11   6  271.17   43.60
   7 -11   6  202.88   36.44
   8 -11   6  129.73   28.15
   8 -11   6   85.94   45.22
   8 -11   6  160.99   33.98
   8 -11   6  132.02   27.68
   9 -11   6    7.84   18.95
   9 -11   6   79.87   37.71
   9 -11   6   48.05   13.11
   9 -11   6   46.58   14.40
  10 -11   6   55.46   36.57
  10 -11   6   13.82   10.22
  -8 -10   6  -21.40   25.96
  -8 -10   6   62.61  163.91
  -7 -10   6  181.75  170.17
  -7 -10   6   76.88   35.56
  -6 -10   6   76.32  116.47
  -6 -10   6    4.08   21.92
  -5 -10   6  294.71  163.16
  -5 -10   6  223.02   61.15
  -4 -10   6   87.16   99.27
  -4 -10   6   46.79   26.41
  -4 -10   6   70.16   18.20
  -3 -10   6   -8.20    8.94
  -3 -10   6  -29.49   16.73
  -2 -10   6   13.49   19.09
  -2 -10   6  -12.64    8.93
  -1 -10   6  669.54  157.87
  -1 -10   6  764.70  131.20
   0 -10   6  577.84  105.75
   0 -10   6  513.08  128.36
   0 -10   6  607.03  104.74
   1 -10   6   35.89   22.41
   1 -10   6   36.28    9.02
   1 -10   6   11.80   11.67
   1 -10   6   12.57    9.55
   2 -10   6  258.57   49.33
   2 -10   6  256.36   65.77
   2 -10   6  262.83   49.42
   2 -10   6  220.54   48.88
   3 -10   6   78.02   19.40
   3 -10   6   89.51   30.18
   3 -10   6   79.99   17.62
   3 -10   6   62.62   19.93
   4 -10   6   24.32   14.00
   4 -10   6   32.63   14.70
   4 -10   6   41.03   11.82
   4 -10   6   94.32   30.17
   5 -10   6   -0.32    8.46
   5 -10   6   20.17   14.30
   5 -10   6   23.79   13.57
   5 -10   6   36.79   26.01
   6 -10   6  103.95   45.04
   6 -10   6  121.25   34.15
   6 -10   6  168.96   32.32
   6 -10   6  165.13   34.36
   7 -10   6  573.48   96.41
   7 -10   6  531.32   93.35
   7 -10   6  468.89   95.31
   7 -10   6  385.60  113.40
   8 -10   6   40.27   14.18
   8 -10   6   72.14   21.83
   8 -10   6   -4.23   27.09
   9 -10   6   21.67   12.46
   9 -10   6   -0.52   19.01
   9 -10   6   77.02   35.08
  10 -10   6    4.60   11.86
  10 -10   6   -6.15   17.50
  10 -10   6   41.17   31.60
  -9  -9   6  -12.52   32.07
  -9  -9   6  259.48  229.85
  -9  -9   6   -3.69   45.99
  -8  -9   6  115.28   70.59
  -8  -9   6  179.16  279.78
  -8  -9   6  361.37   58.71
  -8  -9   6  350.13   73.78
  -7  -9   6   40.90   40.97
  -7  -9   6   71.83   29.84
  -7  -9   6   66.99   21.49
  -6  -9   6   96.71   37.20
  -6  -9   6  142.41   29.23
  -5  -9   6  171.68   35.13
  -5  -9   6  158.10   44.83
  -4  -9   6  127.80   41.07
  -4  -9   6  174.47   32.76
  -3  -9   6  266.11   72.19
  -3  -9   6  336.16   58.52
  -3  -9   6  305.26   57.67
  -2  -9   6  -14.31   15.49
  -2  -9   6  -68.26   89.82
  -2  -9   6   -0.47    8.98
  -2  -9   6   21.41    7.34
  -1  -9   6  887.95  164.63
  -1  -9   6  939.97  172.66
  -1  -9   6  913.82  194.03
  -1  -9   6  881.23  161.71
   0  -9   6  474.20   90.95
   0  -9   6  495.25   92.11
   0  -9   6  482.18  112.04
   0  -9   6  531.46   96.54
   1  -9   6   61.06   14.31
   1  -9   6   47.30   11.70
   1  -9   6   26.32   19.87
   1  -9   6   15.47   10.98
   2  -9   6  134.12   30.94
   2  -9   6   75.99   18.70
   2  -9   6   59.25   17.11
   2  -9   6   71.03   18.45
   3  -9   6  333.94   72.25
   3  -9   6  393.70   71.43
   3  -9   6  473.85   89.82
   3  -9   6  376.39   70.22
   4  -9   6  486.20  114.93
   4  -9   6  484.91   95.67
   4  -9   6  483.91   94.42
   4  -9   6  549.32   98.69
   5  -9   6   49.83   15.57
   5  -9   6   25.88   14.90
   5  -9   6   14.73   23.61
   5  -9   6   24.77   11.67
   6  -9   6  255.08   51.87
   6  -9   6  200.50   49.57
   6  -9   6  255.37   51.27
   6  -9   6  284.36   65.32
   7  -9   6  146.37   49.25
   7  -9   6  166.02   38.74
   7  -9   6  191.95   39.95
   8  -9   6   -9.79   14.81
   8  -9   6   -2.71   25.05
   9  -9   6   50.43   21.68
   9  -9   6   19.16   29.24
  10  -9   6  101.92   40.16
  10  -9   6   71.29   29.05
  10  -9   6  106.11   26.23
  11  -9   6  150.33   32.78
  11  -9   6   85.89   43.29
  11  -9   6  130.29   37.84
 -10  -8   6  -31.09   32.94
 -10  -8   6  201.60  257.53
 -10  -8   6   17.93   51.33
  -9  -8   6  211.30  217.27
  -9  -8   6   -3.37   31.59
  -9  -8   6   39.36   44.48
  -8  -8   6  169.78   39.48
  -8  -8   6  132.31   57.44
  -8  -8   6  204.39   54.12
  -8  -8   6  221.91  228.17
  -7  -8   6   57.43   39.20
  -7  -8   6   80.59   27.35
  -7  -8   6   12.66   15.69
  -7  -8   6   69.03  151.02
  -6  -8   6   -6.97   19.83
  -6  -8   6    5.66   12.28
  -6  -8   6   34.89   34.33
  -6  -8   6   83.20  134.94
  -5  -8   6  -55.31   26.98
  -5  -8   6  -41.23   16.97
  -5  -8   6   28.32   12.51
  -4  -8   6  452.22   73.40
  -4  -8   6  363.63   87.82
  -4  -8   6  367.47   72.45
  -3  -8   6   69.02   19.94
  -3  -8   6   74.14   19.19
  -3  -8   6  126.12   22.46
  -3  -8   6   82.84   27.97
   2   8  -6  463.03   79.81
  -2  -8   6  301.65   88.68
  -2  -8   6  405.15   78.60
  -2  -8   6  446.68   74.08
  -2  -8   6  386.54   74.39
   1   8  -6  401.65   82.52
   1   8  -6  369.92  106.51
  -1  -8   6  449.34   80.89
  -1  -8   6  611.91  176.43
  -1  -8   6  400.28   76.84
  -1  -8   6  453.20   94.06
  -1  -8   6  436.60   76.01
   0   8  -6    0.26    9.35
   0  -8   6    1.58   14.40
   0  -8   6   18.49    9.98
   0  -8   6   -0.64    7.75
   0  -8   6   23.15    8.44
  -1   8  -6   50.39   17.70
   1  -8   6   92.15   17.68
   1  -8   6   61.80   16.03
   1  -8   6   82.89   17.71
   1  -8   6   51.24   23.37
  -2   8  -6  468.72   97.75
   2  -8   6  546.31   96.88
   2  -8   6  500.58   91.20
   2  -8   6  490.89   92.80
   2  -8   6  470.65  111.03
  -3   8  -6  837.72  158.93
   3  -8   6  802.87  177.22
   3  -8   6  870.75  148.57
   3  -8   6  837.64  157.70
   3  -8   6  769.92  151.31
  -4   8  -6  265.64   56.20
   4  -8   6  247.96   65.73
   4  -8   6  284.54   53.12
   4  -8   6  279.96   55.06
   4  -8   6  289.75   73.33
   4  -8   6  241.62   53.67
   5  -8   6   22.55   12.78
   5  -8   6   -7.65   18.39
   5  -8   6  -17.65   18.69
   5  -8   6   15.92   11.07
   5  -8   6   25.32   13.12
   6  -8   6   76.13   24.12
   6  -8   6  107.79   26.52
   6  -8   6  137.91   36.91
   6  -8   6   96.93   37.29
   7  -8   6  248.24   64.34
   7  -8   6  175.75   42.62
   7  -8   6  175.90   40.83
   7  -8   6  185.81   52.52
   8  -8   6  109.10   49.03
   8  -8   6  136.14   32.80
   8  -8   6  134.15   41.68
   8  -8   6  122.59   31.59
   9  -8   6  -15.66   22.19
   9  -8   6   21.41   17.10
   9  -8   6   -7.22   31.68
  10  -8   6  475.98   91.83
  10  -8   6  422.64  105.06
  11  -8   6   66.10   21.15
  11  -8   6  -20.94   45.61
  11  -8   6   69.75   26.94
 -10  -7   6  244.53  259.74
 -10  -7   6  -11.56   45.29
 -10  -7   6    7.25   38.31
  -9  -7   6  512.78  104.23
  -9  -7   6  367.16  103.86
  -9  -7   6  363.13  381.96
  -8  -7   6   20.38   42.79
  -8  -7   6  196.94  189.10
  -8  -7   6  103.53   39.09
  -7  -7   6   44.23   37.89
  -7  -7   6   51.05   27.72
  -7  -7   6  102.36  163.46
  -6  -7   6   97.71  128.66
  -6  -7   6   43.18   15.57
  -6  -7   6    4.50   33.04
  -6  -7   6    2.20   25.43
   5   7  -6  279.33   62.00
  -5  -7   6  260.64   71.02
  -5  -7   6  212.29   70.61
  -5  -7   6  406.52   59.33
   4   7  -6 1110.95  213.01
  -4  -7   6 1061.00  236.06
  -4  -7   6 1130.99  198.73
  -4  -7   6 1135.94  212.59
   3   7  -6   63.05   16.44
  -3  -7   6  -10.72   26.49
  -3  -7   6   49.43   13.46
  -3  -7   6   41.07   18.52
  -3  -7   6   54.76   14.63
  -3  -7   6   56.51   15.21
   2   7  -6  402.85   78.28
  -2  -7   6  398.13   71.70
  -2  -7   6  349.21   72.69
  -2  -7   6  349.08   86.86
  -2  -7   6  463.17   76.95
   1   7  -6   59.38   18.88
   1   7  -6   45.15   14.42
  -1  -7   6   15.34   16.66
  -1  -7   6   49.64   13.44
  -1  -7   6   40.65   13.42
  -1  -7   6   67.90   13.55
   0   7  -6  340.82   62.11
   0  -7   6  596.58  141.56
   0  -7   6  280.73   57.61
   0  -7   6  286.12   56.83
   0  -7   6  299.52   60.14
   0  -7   6  276.61   69.03
  -1   7  -6  139.77   35.79
   1  -7   6  174.77   33.74
   1  -7   6  197.52   35.69
   1  -7   6  181.21   42.70
   1  -7   6  153.66   33.87
  -2   7  -6   71.82   17.94
   2  -7   6   70.05   22.44
   2  -7   6   48.41   16.10
   2  -7   6   56.79   16.60
   2  -7   6   61.30   16.11
  -3   7  -6 1335.50  261.90
   3  -7   6 1369.38  250.16
   3  -7   6 1471.31  261.55
   3  -7   6 1353.52  290.52
   3  -7   6 1326.51  244.78
  -4   7  -6  170.05   30.00
   4  -7   6  139.06   38.59
   4  -7   6  135.51   29.66
   4  -7   6  101.28   27.62
   4  -7   6   96.47   34.94
   4  -7   6  101.30   27.47
  -5   7  -6    5.30   10.93
   5  -7   6    9.49   11.33
   5  -7   6  -19.29    9.84
   5  -7   6   18.92   10.59
   5  -7   6   48.08   19.12
  -6   7  -6  119.48   26.96
   6  -7   6   97.92   32.72
   6  -7   6  108.25   26.08
   6  -7   6   81.11   24.58
  -7   7  -6  232.65   47.02
   7  -7   6  213.28   53.90
   7  -7   6  140.48   41.61
   7  -7   6  283.82   46.69
   8  -7   6  366.20   76.38
   8  -7   6  384.85   75.16
   8  -7   6  395.33   89.92
   9  -7   6  118.91   30.91
   9  -7   6   89.08   33.48
  10  -7   6  116.64   36.41
  10  -7   6  162.13   43.49
  11  -7   6   23.41   21.13
  11  -7   6    1.33   15.16
  12  -7   6  -37.52   19.19
 -11  -6   6  149.37  337.58
 -11  -6   6   49.20   48.59
 -11  -6   6  106.07   52.63
 -10  -6   6   80.68   50.72
 -10  -6   6   85.54   48.23
 -10  -6   6  341.53  323.60
  -9  -6   6  182.03   50.86
  -9  -6   6  113.55   52.00
  -9  -6   6   58.28  252.63
   8   6  -6    7.85   15.90
  -8  -6   6   -5.37   24.28
  -8  -6   6  254.53  209.58
  -8  -6   6   36.68   35.00
   7   6  -6   19.01   14.65
  -7  -6   6   63.52  152.20
  -7  -6   6    9.71   22.88
  -7  -6   6   10.43   30.34
   6   6  -6   24.68   13.83
  -6  -6   6   48.49   31.40
  -6  -6   6  -23.74  109.14
  -6  -6   6   16.55   21.69
   5   6  -6  796.97  146.89
  -5  -6   6  521.43  152.84
  -5  -6   6  797.48  163.57
  -5  -6   6  791.81  137.20
   4   6  -6  428.83   76.38
  -4  -6   6  182.59   81.02
  -4  -6   6  407.98   75.79
  -4  -6   6  426.10   72.19
  -4  -6   6  368.47   85.66
   3   6  -6  143.80   26.74
  -3  -6   6  131.34   26.31
  -3  -6   6   64.03   35.90
  -3  -6   6   95.12   24.34
  -3  -6   6  101.64   30.31
   2   6  -6   28.14   19.53
   2   6  -6   44.98   12.10
  -2  -6   6   35.38   25.87
  -2  -6   6    7.78   13.41
  -2  -6   6   29.43   11.39
  -2  -6   6   43.56   12.15
  -2  -6   6   45.08   11.46
   1   6  -6  195.96   47.53
   1   6  -6  297.74   64.57
  -1  -6   6  251.03   45.62
  -1  -6   6  250.98   55.17
  -1  -6   6  219.06   47.35
  -1  -6   6  216.04   44.62
   0   6  -6  379.64   72.70
   0  -6   6  375.64   69.09
   0  -6   6  376.68   67.80
   0  -6   6  354.32   82.28
   0  -6   6  356.76   72.11
  -1   6  -6   67.26   18.60
   1  -6   6  101.09   19.13
   1  -6   6  102.62   18.72
   1  -6   6   51.92   22.08
   1  -6   6   49.70   17.19
  -2   6  -6  390.18   81.23
   2  -6   6  440.82   77.72
   2  -6   6  421.88   80.71
   2  -6   6  415.64   91.93
   2  -6   6  401.90   76.01
  -3   6  -6   53.84   16.19
   3  -6   6   44.03   15.08
   3  -6   6   82.00   22.14
   3  -6   6   53.77   16.27
   3  -6   6   55.32   15.46
  -4   6  -6  250.48   57.54
   4  -6   6  288.24   56.37
   4  -6   6  280.36   57.44
   4  -6   6  319.01   65.83
   4  -6   6  295.87   55.09
  -5   6  -6   -3.39   10.37
   5  -6   6  -10.06    9.72
   5  -6   6   -3.58    8.73
   5  -6   6  -21.31    9.37
   5  -6   6    2.85   14.80
  -6   6  -6  791.64  148.65
   6  -6   6  640.09  164.42
   6  -6   6  792.87  142.65
   6  -6   6  851.95  139.62
  -7   6  -6 1361.75  255.12
   7  -6   6 1344.72  244.28
   7  -6   6 1343.87  282.12
   7  -6   6 1275.44  238.18
  -8   6  -6  124.59   32.86
   8  -6   6  137.16   30.43
   8  -6   6  121.20   31.31
   8  -6   6  106.19   36.61
  -9   6  -6   66.55   22.66
   9  -6   6   30.49   24.45
   9  -6   6   47.12   20.51
  10  -6   6   26.48   20.10
  11  -6   6  102.11   31.19
  12  -6   6   19.29   21.88
  12  -6   6   60.40   27.17
 -11  -5   6  129.86   44.78
 -11  -5   6  -45.00  374.13
 -11  -5   6   -6.86   38.07
  10   5  -6  102.97   31.11
 -10  -5   6  102.24   46.13
 -10  -5   6  138.18   45.15
 -10  -5   6  202.40  332.89
   9   5  -6    4.56   16.26
  -9  -5   6   -3.68   28.55
  -9  -5   6   17.39   25.95
  -9  -5   6  260.58  288.72
   8   5  -6  174.21   41.79
  -8  -5   6  217.99   52.73
  -8  -5   6  136.10  279.93
  -8  -5   6  179.30   53.17
   7   5  -6   83.00   25.92
  -7  -5   6    8.98  187.68
  -7  -5   6  144.98   34.86
  -7  -5   6  153.08   40.65
   6   5  -6  163.18   32.99
  -6  -5   6   24.86  151.70
  -6  -5   6  131.32   42.19
  -6  -5   6  190.68   40.62
   5   5  -6  930.87  176.70
  -5  -5   6  931.65  184.86
  -5  -5   6  902.43  195.93
   4   5  -6   89.66   25.25
  -4  -5   6  103.07   24.46
  -4  -5   6  124.67  102.84
  -4  -5   6  136.85   32.28
  -4  -5   6  138.24   36.54
   3   5  -6  178.96   46.93
   3   5  -6  172.45   31.22
  -3  -5   6  137.01   28.96
  -3  -5   6   39.61   34.01
  -3  -5   6  150.54   35.12
   2   5  -6   18.30    9.13
   2   5  -6   10.55   17.89
  -2  -5   6   19.19    9.40
  -2  -5   6  -34.16   19.27
  -2  -5   6   -4.57   11.57
  -2  -5   6   36.16    9.61
   1   5  -6  820.92  173.11
   1   5  -6  945.20  230.91
  -1  -5   6  898.65  191.66
  -1  -5   6  976.65  161.82
  -1  -5   6  897.87  165.19
   0   5  -6  537.37  106.93
   0   5  -6  563.93  141.24
   0  -5   6  568.83  118.50
   0  -5   6  576.36  100.00
   0  -5   6  526.08  101.92
  -1   5  -6   23.47    9.31
   1  -5   6    4.74   11.48
   1  -5   6   -4.34    8.69
   1  -5   6   -4.47    8.33
  -2   5  -6  844.12  160.62
   2  -5   6  815.92  150.21
   2  -5   6  826.50  153.60
   2  -5   6  868.88  177.72
  -3   5  -6  254.36   48.86
   3  -5   6  212.21   46.61
   3  -5   6  211.47   45.63
   3  -5   6  267.30   55.26
  -4   5  -6  205.32   42.53
   4  -5   6  186.55   40.47
   4  -5   6  201.67   48.18
   4  -5   6  210.79   41.89
  -5   5  -6   19.06   11.16
   5  -5   6   14.82   13.54
   5  -5   6   -1.94   11.14
   5  -5   6   20.91   11.97
  -6   5  -6  510.57   91.46
   6  -5   6  474.23  102.56
   6  -5   6  449.59   89.02
   6  -5   6  402.85   85.91
  -7   5  -6  462.93   98.26
   7  -5   6  426.07   91.50
   7  -5   6  610.42   96.85
   7  -5   6  507.44  109.19
  -8   5  -6   -3.14   14.34
   8  -5   6   60.43   20.59
   8  -5   6   41.13   19.81
   8  -5   6   43.00   15.54
  -9   5  -6   -0.36   14.59
   9  -5   6   -1.07   14.89
 -10   5  -6  112.92   28.03
  10  -5   6   24.40   20.07
 -11   5  -6  130.17   37.08
  11  -5   6  128.83   36.78
 -12   5  -6   -4.68   25.43
  12  -5   6   -3.60   18.12
  12  -5   6  -34.42   19.89
  12   4  -6  144.71   74.70
  12   4  -6  162.43   38.96
 -12  -4   6  106.96   49.02
 -12  -4   6   26.24  498.80
  11   4  -6   -1.33   16.53
  11   4  -6   14.93   42.47
 -11  -4   6  -33.96   27.09
 -11  -4   6  -87.72  432.08
  10   4  -6  -10.54   14.80
 -10  -4   6   23.53  396.22
 -10  -4   6   15.48   29.35
   9   4  -6  263.57   42.35
  -9  -4   6 -144.93  312.87
  -9  -4   6   99.24   43.46
   8   4  -6  406.81   75.47
  -8  -4   6  477.29  399.91
  -8  -4   6  276.71   77.09
   7   4  -6    5.24   12.67
  -7  -4   6  -30.52   18.78
  -7  -4   6  299.46  259.76
   6   4  -6  211.39   43.66
  -6  -4   6  132.70  216.66
  -6  -4   6  211.79   48.98
   5   4  -6   65.53   16.83
   5   4  -6  102.45   36.45
  -5  -4   6   30.79   83.52
  -5  -4   6   25.22   23.16
   4   4  -6  114.11   36.87
   4   4  -6   82.18   19.29
  -4  -4   6   82.93   28.41
  -4  -4   6   34.50   90.31
   3   4  -6  114.67   37.22
   3   4  -6   99.51   22.64
  -3  -4   6  136.43   27.35
  -3  -4   6  121.17   22.37
  -3  -4   6   52.80   79.15
  -3  -4   6   94.45   31.91
   2   4  -6  819.45  150.75
   2   4  -6  822.14  202.34
  -2  -4   6  661.49  156.55
  -2  -4   6  785.83  140.85
  -2  -4   6  774.25  166.58
   1   4  -6 1703.83  322.58
   1   4  -6 1710.27  430.51
  -1  -4   6 1726.21  308.17
  -1  -4   6 1644.64  301.26
  -1  -4   6 1720.47  356.57
   0   4  -6   16.62    8.81
   0   4  -6   21.22   17.83
   0  -4   6   15.61    9.74
   0  -4   6   10.55   11.46
   0  -4   6    4.21    9.16
  -1   4  -6  246.85   53.01
   1  -4   6  275.93   51.36
   1  -4   6  257.36   59.16
   1  -4   6  283.18   50.27
  -2   4  -6  267.00   47.07
   2  -4   6  207.90   44.60
   2  -4   6  203.75   43.16
   2  -4   6  231.90   51.18
  -3   4  -6  766.12  151.71
   3  -4   6  760.65  167.46
   3  -4   6  815.23  145.69
   3  -4   6  839.67  142.28
  -4   4  -6  223.30   46.22
   4  -4   6  260.07   46.09
   4  -4   6  189.48   43.24
   4  -4   6  231.16   51.07
  -5   4  -6  249.77   45.84
   5  -4   6  212.86   49.50
   5  -4   6  171.71   41.71
   5  -4   6  226.45   44.52
  -6   4  -6  831.64  154.15
   6  -4   6  788.65  169.43
   6  -4   6  853.81  148.01
   6  -4   6  723.49  143.98
  -7   4  -6   32.25   15.91
   7  -4   6   50.78   18.20
   7  -4   6   47.13   15.13
   7  -4   6   15.77   16.00
  -8   4  -6   38.64   74.21
  -8   4  -6  154.85   34.53
   8  -4   6  154.61   34.89
   8  -4   6  135.63   32.04
  -9   4  -6    6.49   17.11
   9  -4   6   -5.30   13.70
 -10   4  -6  335.11   69.97
  10  -4   6  300.88   66.47
 -11   4  -6  223.98   56.66
  11  -4   6  271.14   55.94
 -12   4  -6    4.69   22.06
  12  -4   6   66.04   21.77
  12  -4   6   25.54   23.64
  12   3  -6   13.22   53.69
  12   3  -6   -0.36   18.24
 -12  -3   6   -2.38   25.38
 -12  -3   6 -774.18  528.93
  11   3  -6  -35.04   14.01
  11   3  -6   35.45   51.32
 -11  -3   6  -13.75   22.00
  10   3  -6  -54.15   40.23
  10   3  -6  -18.82   13.40
 -10  -3   6   47.30   22.90
   9   3  -6  196.66   44.70
   9   3  -6  189.29   76.03
  -9  -3   6  208.43   48.54
   8   3  -6  439.38   77.05
   8   3  -6  402.92  114.81
  -8  -3   6  289.26   77.26
   7   3  -6  123.38   28.29
   7   3  -6   74.39   46.19
  -7  -3   6  124.13   31.06
   6   3  -6  384.16   86.48
   6   3  -6  247.01   52.36
  -6  -3   6  208.90   54.95
   5   3  -6   48.97   31.64
   5   3  -6   48.33   14.82
  -5  -3   6   50.40   20.90
   4   3  -6  749.89  182.16
   4   3  -6  676.38  133.25
  -4  -3   6  676.06  136.08
   3   3  -6   43.15   27.59
   3   3  -6   67.19   13.93
  -3  -3   6   58.39   13.40
  -3  -3   6  -14.76   15.37
   2   3  -6  529.74  104.65
   2   3  -6  538.35  144.73
  -2  -3   6  532.36  110.52
  -2  -3   6  564.34   98.20
   1   3  -6 2759.44  690.26
   1   3  -6 2776.40  517.06
  -1  -3   6 2522.11  482.99
  -1  -3   6 2889.72  571.12
   0   3  -6  557.55  144.21
   0   3  -6  586.04  106.51
   0  -3   6  483.08   99.43
   0  -3   6  582.42  117.27
   0  -3   6  556.29  101.95
  -1   3  -6   -5.59   15.38
  -1   3  -6   -0.25    7.11
   1  -3   6   13.39    8.10
   1  -3   6  -10.55    7.54
   1  -3   6    7.21    8.17
  -2   3  -6  334.54   61.25
   2  -3   6  288.54   58.67
   2  -3   6  287.28   66.12
   2  -3   6  329.02   57.96
  -3   3  -6 1412.63  261.62
   3  -3   6 1335.26  250.56
   3  -3   6 1395.44  244.73
   3  -3   6 1361.47  288.27
  -4   3  -6  417.59   82.99
   4  -3   6  418.67   90.89
   4  -3   6  464.82   80.40
   4  -3   6  406.73   77.91
  -5   3  -6  168.04   34.39
   5  -3   6  191.74   33.87
   5  -3   6  155.03   36.34
   5  -3   6  109.28   33.11
  -6   3  -6   52.05   17.20
   6  -3   6   59.84   17.60
   6  -3   6   44.23   17.19
   6  -3   6   56.50   18.18
  -7   3  -6    1.86   12.93
   7  -3   6  -10.04    9.71
   7  -3   6  -19.67   10.62
  -8   3  -6   96.70   29.68
   8  -3   6  138.73   31.29
  -9   3  -6   21.90   19.85
   9  -3   6   30.45   17.79
 -10   3  -6  120.70   35.82
  10  -3   6  154.83   35.90
 -11   3  -6   24.53   22.18
  11  -3   6   -1.80   17.85
 -12   3  -6   27.22   23.57
  12  -3   6   16.72   22.55
  12   2  -6  122.27   73.58
  11   2  -6   37.10   18.42
  11   2  -6   10.28   45.20
 -11  -2   6   -1.78   19.78
  10   2  -6  140.79   58.10
  10   2  -6   59.29   23.84
 -10  -2   6   95.53   29.71
   9   2  -6  537.18  101.37
   9   2  -6  416.65  144.11
  -9  -2   6  509.37  102.29
   8   2  -6  104.89   27.35
   8   2  -6  131.08   56.53
  -8  -2   6  104.54   29.93
   7   2  -6   39.55   36.52
   7   2  -6   65.51   17.86
  -7  -2   6   49.63   19.33
   6   2  -6   55.09   15.88
   6   2  -6   65.94   36.83
  -6  -2   6   45.35   18.30
   5   2  -6  290.40   66.92
   5   2  -6  344.43   66.89
   5   2  -6  347.16  100.54
  -5  -2   6  420.82   70.72
   4   2  -6 1039.50  274.35
   4   2  -6  957.71  202.33
   4   2  -6 1161.95  202.74
  -4  -2   6 1105.62  204.04
   3   2  -6   27.23   10.57
   3   2  -6   31.50   28.98
   3   2  -6   38.50   11.20
  -3  -2   6   14.21   10.97
  -3  -2   6   50.65   16.07
   2   2  -6  275.45   55.24
   2   2  -6  265.07   54.83
   2   2  -6  301.53   82.43
  -2  -2   6  286.87   58.87
  -2  -2   6  279.36   51.85
   1   2  -6  139.26   29.11
   1   2  -6  177.37   32.82
   1   2  -6  128.16   49.85
  -1  -2   6  137.02   28.78
  -1  -2   6  152.23   28.43
  -1  -2   6   85.20   33.28
   0   2  -6  374.48   65.90
   0   2  -6  379.45   87.93
   0   2  -6  294.11   59.19
   0  -2   6  282.85   55.52
   0  -2   6  285.47   65.20
   0  -2   6  316.77   57.86
  -1   2  -6  315.64   86.47
  -1   2  -6  482.02  114.41
  -1   2  -6  427.27   81.43
   1  -2   6  424.79   76.49
   1  -2   6  434.14   78.50
   1  -2   6  418.18   89.41
  -2   2  -6 2030.39  415.51
   2  -2   6 2340.39  397.90
   2  -2   6 2219.75  458.32
   2  -2   6 2218.35  388.70
  -3   2  -6  842.64  165.20
   3  -2   6  861.64  181.33
   3  -2   6  888.10  154.83
   3  -2   6  873.70  158.47
  -4   2  -6   13.56   42.73
  -4   2  -6   22.92   10.90
   4  -2   6    2.95   10.23
   4  -2   6   28.97    9.58
   4  -2   6   18.74   11.38
  -5   2  -6  219.69   43.19
   5  -2   6  156.72   41.31
   5  -2   6  242.48   41.32
  -6   2  -6  280.37   63.81
   6  -2   6  375.65   61.34
   6  -2   6  293.08   61.80
  -7   2  -6  476.21   92.92
   7  -2   6  466.33   89.05
   7  -2   6  439.48   86.21
  -8   2  -6   35.25   17.33
   8  -2   6   10.49   14.21
  -9   2  -6  162.56   43.32
   9  -2   6  230.37   44.99
 -10   2  -6  221.04   49.04
  10  -2   6  200.50   47.82
 -12   2  -6 2622.23 2092.25
  13   1  -6   23.56   64.17
  12   1  -6  115.44   75.16
  12   1  -6  142.27   35.78
  11   1  -6  -18.17   13.94
  11   1  -6   37.65   54.01
  11   1  -6  -20.57  108.09
  10   1  -6  155.20   70.80
  10   1  -6  158.87   37.95
   9   1  -6  174.56   72.96
   9   1  -6  147.75   37.23
  -9  -1   6  180.93   40.49
   8   1  -6    0.66   11.42
   8   1  -6  -51.50   36.53
  -8  -1   6  -15.31   12.96
   7   1  -6   72.70   20.10
   7   1  -6   79.46   49.13
  -7  -1   6   82.35   22.27
   6   1  -6   69.12   18.54
   6   1  -6  129.45   49.56
   6   1  -6   53.39   17.87
  -6  -1   6   81.31   19.99
   5   1  -6 1212.84  218.82
   5   1  -6 1069.85  218.39
   5   1  -6 1206.72  298.46
   4   1  -6  366.37  102.84
   4   1  -6  318.75   68.98
   4   1  -6  389.33   69.26
   3   1  -6  266.40   45.27
   3   1  -6  231.89   73.12
   3   1  -6  219.53   45.24
  -3  -1   6  184.27   42.99
   2   1  -6  503.18  146.46
   2   1  -6  512.16  102.03
   2   1  -6  607.71  102.14
  -2  -1   6  489.93   95.95
  -2  -1   6  509.14  104.05
   1   1  -6  256.92   52.70
   1   1  -6  257.62   82.34
   1   1  -6  277.87   53.26
  -1  -1   6  229.32   56.54
  -1  -1   6  278.27   51.00
  -1  -1   6  322.92   53.01
   0   1  -6  296.22   52.08
   0   1  -6  238.62   48.62
   0   1  -6  213.13   73.98
   0  -1   6  166.06   53.27
   0  -1   6  277.95   48.92
   0  -1   6  277.67   47.18
  -1   1  -6  129.20   70.05
  -1   1  -6   29.67    8.96
  -1   1  -6   57.57   28.52
  -1   1  -6   45.52  107.94
  -1   1  -6   -9.21   17.26
   1  -1   6   34.49   10.38
   1  -1   6   16.85    9.20
   1  -1   6   25.27   11.27
  -2   1  -6 1423.05  268.70
  -2   1  -6 1315.46 1034.74
   2  -1   6 1443.62  295.75
   2  -1   6 1393.11  257.49
   2  -1   6 1428.73  251.50
  -3   1  -6  624.43  495.02
  -3   1  -6  640.54  117.80
  -3   1  -6  433.38  281.79
   3  -1   6  598.45  110.45
   3  -1   6  682.03  113.62
  -4   1  -6 -178.68  182.29
  -4   1  -6    7.19    9.08
  -4   1  -6  -28.82   41.68
   4  -1   6   -4.85    8.91
  -5   1  -6   64.54  284.46
  -5   1  -6    7.02   41.86
  -5   1  -6   10.10   10.84
   5  -1   6    0.65    8.48
   5  -1   6   14.45   12.42
  -6   1  -6 1264.93 1001.82
  -7   1  -6  578.90  112.73
   7  -1   6  544.23  107.69
   7  -1   6  600.43  105.50
  -9   1  -6  290.41  541.63
 -10   1  -6  552.75  585.53
  10  -1   6   28.10   19.98
 -11   1  -6 2187.16 1765.09
  13   0  -6   84.45   79.69
  13   0  -6   89.40   27.96
  12   0  -6  152.28   34.48
  12   0  -6   57.62   71.73
  11   0  -6   -8.36   13.98
  11   0  -6  -68.60   49.74
  11   0  -6   10.94   96.93
  10   0  -6  391.44   76.16
  10   0  -6  302.82  117.49
   9   0  -6   30.10   53.16
   9   0  -6   91.76   24.31
   9   0  -6  163.99  129.82
   8   0  -6   67.64   24.77
   8   0  -6  168.73   63.60
   8   0  -6  507.78  160.57
  -8   0   6  134.85   28.63
   7   0  -6   -4.52    8.02
   7   0  -6   15.09   10.15
   7   0  -6   59.61   41.33
  -7   0   6   -7.40   10.03
   6   0  -6  392.15   82.75
   6   0  -6  468.22  125.60
   6   0  -6  399.37   82.75
  -6   0   6  499.43   84.04
   5   0  -6  428.67   81.22
   5   0  -6  436.67   81.20
   5   0  -6  322.58  117.87
  -5   0   6  413.78   81.61
   4   0  -6   19.45   36.85
   4   0  -6   44.59   12.52
   4   0  -6   56.41   12.90
  -4   0   6   50.28   13.56
   3   0  -6  138.20   61.27
   3   0  -6  178.28   35.97
   3   0  -6  174.73   36.21
   3   0  -6  544.16  161.01
   2   0  -6  477.67  137.49
   2   0  -6   95.69   52.55
   2   0  -6  150.93   28.27
   2   0  -6  117.16   27.79
  -2   0   6  184.82   29.23
   1   0  -6 1555.17  294.24
   1   0  -6 1554.40  294.26
   1   0  -6 1585.41  399.56
  -1   0   6 1514.10  275.98
  -1   0   6 1604.01  282.68
   0   0  -6  277.02  112.75
   0   0  -6  130.12   25.81
   0   0  -6  121.82   25.69
   0   0  -6  123.29   50.52
   0   0   6  134.80   26.22
   0   0   6  134.04   27.35
  -1   0  -6  536.37  107.98
  -1   0  -6  530.01  272.60
  -1   0  -6  556.89  109.26
  -1   0  -6  641.86  154.53
   1   0   6  557.70  104.49
   1   0   6  624.10  101.87
  -2   0  -6   -6.33    6.30
  -2   0  -6  -52.31  105.38
  -2   0  -6   12.56   66.16
  -2   0  -6   15.06   16.35
   2   0   6    5.19    9.10
   2   0   6    4.00    7.26
  -3   0  -6  121.50  142.43
  -3   0  -6  107.97  260.80
  -3   0  -6  310.21   57.02
   3   0   6  339.34   56.77
   3   0   6  365.08   55.29
  -4   0  -6  175.26  199.45
  -4   0  -6   83.40   21.25
  -4   0  -6   50.27   69.62
   4   0   6  102.43   21.09
   4   0   6   92.70   22.14
  -5   0  -6  132.14  232.45
  -5   0  -6  188.46   30.70
  -5   0  -6   -6.98   74.69
   5   0   6  154.12   30.18
   5   0   6  156.94   29.02
  -6   0  -6  906.41  738.16
  -6   0  -6  896.08  173.59
   6   0   6  978.55  166.91
   6   0   6  849.17  162.30
  -7   0  -6  310.11  437.22
  -7   0  -6   59.48   23.42
   7   0   6  137.08   26.34
  -8   0  -6   72.56   22.64
  -8   0  -6  -59.37  404.32
   8   0   6   75.17   24.48
  -9   0  -6  318.22  513.87
  -9   0  -6   30.48   20.59
   9   0   6   79.22   22.09
 -10   0  -6 -253.72  534.11
 -10   0  -6  126.59   31.12
  10   0   6   95.18   29.15
 -11   0  -6 -221.50  655.98
 -11   0  -6   56.19   27.68
  11   0   6  148.34   32.39
  13  -1  -6  206.11   84.98
  13  -1  -6  121.42   34.26
  12  -1  -6   16.57   16.19
  12  -1  -6   98.05   70.01
  11  -1  -6  123.34  112.48
  11  -1  -6   36.64   19.10
  11  -1  -6   93.64   66.94
  10  -1  -6   14.41   13.62
  10  -1  -6   93.80   59.92
  10  -1  -6   42.87   96.32
   9  -1  -6  139.58  118.87
   9  -1  -6   83.54   22.68
   9  -1  -6   60.00   57.82
   8  -1  -6  789.67  219.23
   8  -1  -6  274.80   98.00
   8  -1  -6  255.60   54.54
   8  -1  -6  242.77   54.72
   7  -1  -6  -23.65   39.51
   7  -1  -6   -4.76    9.07
   7  -1  -6    5.56   91.32
   7  -1  -6   28.15   10.12
  -7   1   6    9.59   11.96
   6  -1  -6  608.41  121.56
   6  -1  -6  646.92  121.64
   6  -1  -6  736.51  181.30
   5  -1  -6   -2.14    5.73
   5  -1  -6   53.17   42.34
   5  -1  -6   22.27   80.19
   4  -1  -6  588.49  170.65
   4  -1  -6  217.80   71.66
   4  -1  -6  194.90   38.58
   4  -1  -6  195.46   38.51
   3  -1  -6   44.95   44.90
   3  -1  -6  133.60   98.43
   2  -1  -6 1414.79  372.10
  -2   1   6 1456.65  256.33
   1  -1  -6 1194.37  329.02
   1  -1  -6 1194.42  572.36
  -1   1   6 1305.95  225.91
  -1   1   6 1293.33  231.49
   0  -1  -6  114.31   50.71
   0  -1  -6  100.98  104.14
   0   1   6  125.26   23.67
   0   1   6  106.98   24.59
  -1  -1  -6  206.73   70.32
  -1  -1  -6  129.21  133.77
   1   1   6  231.86   44.85
   1   1   6  251.55   43.17
  -2  -1  -6   23.09    5.43
  -2  -1  -6   20.43    6.96
  -2  -1  -6   41.77   71.19
  -2  -1  -6  -87.17  107.84
   2   1   6   12.01    8.44
   2   1   6   20.63   10.49
  -3  -1  -6    0.91   91.59
  -3  -1  -6  143.50   34.79
  -3  -1  -6   -9.72  171.32
  -3  -1  -6  161.31   30.43
   3   1   6  223.74   33.63
   3   1   6  173.82   30.62
  -4  -1  -6  116.16   24.03
  -4  -1  -6   -3.23  204.84
  -4  -1  -6  -18.46   74.36
   4   1   6  131.98   24.47
   4   1   6  148.27   26.10
  -5  -1  -6 -170.05  235.07
  -5  -1  -6   54.53   12.51
  -5  -1  -6  -28.40   58.33
   5   1   6   27.55   11.29
   5   1   6    8.53   12.41
  -6  -1  -6  403.24   87.85
  -6  -1  -6  100.72  450.51
   6   1   6  529.21   87.65
   6   1   6  497.03   83.02
  -7  -1  -6 -363.00  333.46
  -7  -1  -6  -17.71   10.53
   7   1   6    2.23   12.86
  -8  -1  -6 -180.73  338.30
  -8  -1  -6   25.86   14.83
   8   1   6   12.92   14.90
  -9  -1  -6   23.33   17.54
  -9  -1  -6 -121.18  437.28
   9   1   6   53.87   20.70
 -10  -1  -6  176.52   41.29
  10   1   6  161.26   40.76
 -11  -1  -6   35.16   24.31
 -11  -1  -6 -463.16  582.41
  11   1   6   81.91   26.80
  13  -2  -6  228.98  105.28
  13  -2  -6  229.84   50.51
  12  -2  -6   48.93   18.37
  12  -2  -6   14.57   55.19
  11  -2  -6   65.08   21.11
  11  -2  -6   98.33  134.79
  11  -2  -6  159.33   76.77
  10  -2  -6   -7.46   45.07
  10  -2  -6  -19.07    9.87
  10  -2  -6    3.38   96.72
   9  -2  -6  479.09  221.28
   9  -2  -6  280.45  113.32
   9  -2  -6  339.17   68.88
   9  -2  -6  347.92   69.06
   8  -2  -6  335.12   62.18
   8  -2  -6  328.27  106.89
   8  -2  -6  286.59   62.17
   8  -2  -6  363.28  196.93
   7  -2  -6   72.74   14.19
   7  -2  -6   39.94   13.29
   7  -2  -6  139.98  101.87
   7  -2  -6  -25.27   46.87
   6  -2  -6  226.39   72.81
   6  -2  -6  160.34   31.43
   6  -2  -6  158.74   31.36
   6  -2  -6  183.34  137.53
   5  -2  -6  315.76  164.35
   5  -2  -6  222.93   90.03
   4  -2  -6  478.18  238.48
   4  -2  -6  402.46  126.19
   3  -2  -6  -34.13   75.93
   3  -2  -6  -26.67   31.86
  -3   2   6  -15.92    7.15
   2  -2  -6  982.24  238.39
   2  -2  -6  572.05  411.55
  -2   2   6  922.64  156.95
   1  -2  -6  225.41  245.52
   1  -2  -6  590.82  144.61
  -1   2   6  502.52   92.23
  -1   2   6  530.31   89.69
   0  -2  -6   18.47   81.97
   0  -2  -6   -2.66   34.95
   0   2   6   49.48   10.79
   0   2   6   26.47   11.21
  -1  -2  -6  172.03   51.69
  -1  -2  -6   40.55   90.77
   1   2   6  121.47   23.70
   1   2   6  117.45   25.14
  -2  -2  -6  169.87  120.29
  -3  -2  -6   32.33   99.30
  -3  -2  -6 -115.23  178.74
   3   2   6  310.62   34.99
  -4  -2  -6  -13.18   67.39
  -4  -2  -6  -64.02  177.90
  -4  -2  -6    8.87    6.79
  -4  -2  -6  -13.27   10.25
   4   2   6   -4.25    9.87
   4   2   6    4.11    7.58
  -5  -2  -6 -233.45  224.88
  -5  -2  -6   74.97   22.46
  -6  -2  -6   28.23   12.95
   6   2   6   30.94   14.59
  -7  -2  -6  198.62   40.01
  -7  -2  -6 -266.98  284.02
   7   2   6  222.21   41.12
  -8  -2  -6   40.64   17.96
  -8  -2  -6 -187.43  367.47
   8   2   6   55.59   19.65
  -9  -2  -6 -216.35  390.65
  -9  -2  -6  142.96   34.90
   9   2   6  161.54   35.57
 -10  -2  -6  143.37   43.23
  10   2   6  224.87   44.12
  13  -3  -6  -68.30   62.87
  12  -3  -6   -5.43   57.70
  12  -3  -6   31.80   14.55
  11  -3  -6  104.39  141.87
  11  -3  -6   57.57   64.76
  11  -3  -6   61.24   17.77
  10  -3  -6  125.10   26.01
  10  -3  -6  188.66   80.54
  10  -3  -6  120.29   25.92
  10  -3  -6 -110.68  121.56
   9  -3  -6  141.60  181.29
   9  -3  -6  335.68  111.02
   9  -3  -6  272.21   54.34
   9  -3  -6  289.15   54.44
   8  -3  -6   10.72  114.27
   8  -3  -6   30.66   56.95
   7  -3  -6   -7.56   41.71
   7  -3  -6   23.24  112.68
   6  -3  -6   40.63   51.11
   6  -3  -6   44.63  110.62
   5  -3  -6  841.69  193.31
   5  -3  -6  486.09  338.78
   4  -3  -6   25.31   97.73
   4  -3  -6   61.64   45.12
   3  -3  -6  332.56   92.18
   3  -3  -6   61.55  141.03
  -3   3   6  265.13   45.67
   2  -3  -6   81.72  179.39
   2  -3  -6  395.40  107.62
  -2   3   6  389.14   62.94
   1  -3  -6  -40.93   74.20
   1  -3  -6  -24.77   34.86
  -1   3   6    7.50    8.67
  -1   3   6    5.39    7.04
   0  -3  -6   30.32   41.34
   0  -3  -6  -15.18   82.13
   0   3   6   77.35   16.50
   0   3   6   68.05   14.62
  -1  -3  -6   96.70   41.81
  -1  -3  -6   70.80   90.18
   1   3   6   66.62   15.66
   1   3   6   75.18   17.41
  -2  -3  -6   51.55   87.86
  -3  -3  -6   52.93   85.94
  -3  -3  -6   -4.72  155.52
  -4  -3  -6  -14.65   76.57
  -4  -3  -6  -87.88  175.59
   4   3   6    2.60    8.30
   4   3   6   32.24   11.72
  -5  -3  -6  -95.33  194.26
   5   3   6   27.01   12.29
  -6  -3  -6 -199.36  232.10
   6   3   6  115.84   23.63
  -7  -3  -6  -23.90  287.25
  -7  -3  -6  256.19   42.38
  -7  -3  -6   80.81   42.23
   7   3   6  303.21   44.12
  -8  -3  -6  -28.27  302.60
  -8  -3  -6   14.94   18.40
   8   3   6   30.80   16.52
  -9  -3  -6  113.32   34.81
   9   3   6  147.26   33.70
 -10  -3  -6   50.20   25.96
 -10  -3  -6 -568.68  394.19
  10   3   6   12.54   16.74
  12  -4  -6  160.31   98.55
  11  -4  -6   46.12  130.35
  11  -4  -6  -10.10   63.45
  10  -4  -6   76.34   60.65
  10  -4  -6  -63.52  113.40
   9  -4  -6   62.08   61.12
   9  -4  -6   48.70  125.49
   8  -4  -6  104.92   64.56
   8  -4  -6    0.60  119.00
   7  -4  -6  125.70  160.34
   7  -4  -6  234.59   83.90
   6  -4  -6  -30.03   42.65
   6  -4  -6  -36.47  105.93
   5  -4  -6  113.74  178.51
   5  -4  -6  720.78  124.11
   4  -4  -6   52.24  107.16
   4  -4  -6  -10.99   37.62
   3  -4  -6   17.83  112.55
   3  -4  -6  104.96   36.94
   3  -4  -6  161.59   67.70
  -3   4   6  159.38   27.45
   2  -4  -6   51.78   45.22
   2  -4  -6   31.06   88.14
   2  -4  -6  -16.19   15.22
  -2   4   6    5.58    6.85
  -2   4   6   11.84    8.36
   1  -4  -6  185.43   39.91
   1  -4  -6  117.12   59.50
   1  -4  -6   51.86  114.25
  -1   4   6  160.37   30.63
  -1   4   6  143.40   28.65
   0  -4  -6   -2.71   83.78
   0  -4  -6   68.39   39.45
   0  -4  -6    2.31   17.14
   0   4   6   47.72   10.07
   0   4   6   39.23   11.75
  -1  -4  -6   60.21  141.32
  -1  -4  -6  240.76   84.26
  -1  -4  -6  335.03   59.81
   1   4   6  264.52   49.48
   1   4   6  253.10   46.82
  -2  -4  -6  926.74  187.30
   2   4   6  849.78  157.55
   2   4   6  897.09  161.98
  -3  -4  -6  -12.11   82.61
  -3  -4  -6 -101.82  164.91
  -3  -4  -6   14.63   10.64
   3   4   6   -4.36    8.23
   3   4   6   -5.28    6.82
  -4  -4  -6  -43.75  192.08
  -4  -4  -6   30.47  103.80
   4   4   6   77.01   17.91
  -5  -4  -6 -179.62  206.45
   5   4   6   97.98   20.48
  -6  -4  -6   -8.65  347.39
   6   4   6  537.34   76.97
  -7  -4  -6 -149.61  298.59
   7   4   6  318.21   51.36
  -8  -4  -6  -68.25  273.09
   8   4   6   17.89   15.86
  -9  -4  -6 -367.29  315.19
   9   4   6   75.84   23.13
  12  -5  -6   68.35   83.33
  11  -5  -6  -28.19   70.04
  11  -5  -6   52.52  128.55
  10  -5  -6   96.42  144.03
  10  -5  -6   21.48   59.55
   9  -5  -6   12.76  121.05
   9  -5  -6  -29.62   58.02
   8  -5  -6  190.65   77.85
   8  -5  -6  -32.43  115.75
   7  -5  -6  -99.91  111.10
   7  -5  -6  293.79   81.09
   6  -5  -6  169.07  208.90
   6  -5  -6  630.09  133.89
   5  -5  -6  332.04   92.93
   5  -5  -6  101.09  141.76
   4  -5  -6    1.17  101.54
   4  -5  -6  115.16   59.11
   4  -5  -6   93.30   31.61
   3  -5  -6  -57.29  100.02
   3  -5  -6   98.30   33.36
   3  -5  -6   69.38   53.71
  -3   5   6  118.72   21.16
   2  -5  -6   84.07  148.53
   2  -5  -6  238.67   57.88
   2  -5  -6  195.10   81.16
  -2   5   6  257.06   43.82
  -2   5   6  232.63   45.89
   1  -5  -6  533.39  174.75
   1  -5  -6  591.49  136.86
  -1   5   6  646.90  112.40
  -1   5   6  649.38  115.98
   0  -5  -6   61.40   44.29
   0  -5  -6  -11.72   84.93
   0  -5  -6   52.09   23.22
   0   5   6   77.26   16.49
   0   5   6   67.50   13.96
  -1  -5  -6 -105.98   86.83
  -1  -5  -6   61.98   20.18
   1   5   6   36.52   12.40
   1   5   6   48.54   10.41
  -2  -5  -6  -10.63  117.32
  -2  -5  -6  136.06   37.36
   2   5   6  162.08   30.79
   2   5   6  159.10   28.48
  -3  -5  -6   76.38  112.29
   3   5   6   38.22   13.42
  -4  -5  -6  -59.75  197.77
   4   5   6   90.43   20.20
  -5  -5  -6  -73.77  204.31
   5   5   6   61.10   17.15
  -6  -5  -6 -135.73  290.04
   6   5   6  320.22   51.21
  -7  -5  -6  167.18  293.44
  -8  -5  -6 -108.46  293.16
  -9  -5  -6   73.84  342.94
  12  -6  -6  101.29  101.57
  11  -6  -6   81.88   88.57
  11  -6  -6   24.31  133.19
  10  -6  -6    5.27  128.86
  10  -6  -6  -14.64   70.08
   9  -6  -6 -102.40  111.18
   9  -6  -6   34.98   62.83
   8  -6  -6   88.92  155.30
   8  -6  -6  262.20   94.56
   7  -6  -6   74.26  134.11
   7  -6  -6  102.18   79.80
   6  -6  -6  415.45  107.65
   6  -6  -6  112.96  167.78
   5  -6  -6   93.50   34.39
   5  -6  -6    7.24  109.50
   5  -6  -6   79.88   64.01
   4  -6  -6   27.62   23.16
   4  -6  -6   56.87   50.47
   4  -6  -6    0.34  117.50
  -4   6   6   22.46   10.37
   3  -6  -6   22.57   49.14
   3  -6  -6  -52.00   90.93
   3  -6  -6   -9.12   20.62
  -3   6   6   34.61    9.50
   2  -6  -6  353.51   98.82
   2  -6  -6  255.90   64.39
   2  -6  -6  -22.15  155.10
  -2   6   6  311.64   51.23
  -2   6   6  261.09   47.65
   1  -6  -6  161.02   50.25
   1  -6  -6  -24.74  117.72
   1  -6  -6  249.75   78.96
  -1   6   6  274.49   39.98
   0  -6  -6    1.49  106.35
   0  -6  -6   -9.85   17.37
   0  -6  -6   31.83   40.01
   0   6   6   -6.83    7.12
  -1  -6  -6  124.13  147.07
  -1  -6  -6  176.84   42.06
   1   6   6  146.49   31.13
  -2  -6  -6  -61.71  101.24
  -2  -6  -6   57.92   22.16
   2   6   6   41.15   12.76
  -3  -6  -6   60.32  121.70
  -6  -6  -6  -80.77  242.17
  -7  -6  -6 -211.68  271.27
  -8  -6  -6  104.94  333.88
  11  -7  -6   34.40   85.82
  11  -7  -6 -123.04  128.25
  10  -7  -6  -61.33  114.89
  10  -7  -6 -137.14   60.80
   9  -7  -6  159.24   83.27
   9  -7  -6  -78.44  112.42
   8  -7  -6   11.79   68.77
   8  -7  -6   47.63  130.10
   7  -7  -6  -87.72  121.27
   7  -7  -6  196.55   84.91
   6  -7  -6   95.51   67.62
   6  -7  -6   12.20   26.20
   6  -7  -6    8.04  111.03
   5  -7  -6  -37.39  116.53
   5  -7  -6   90.94   33.34
   5  -7  -6   21.48   59.02
   4  -7  -6   62.57   58.21
   4  -7  -6   25.74   26.49
   4  -7  -6   29.01  110.03
  -4   7   6   21.64    9.95
   3  -7  -6  156.71   71.77
   3  -7  -6  161.22   48.58
   3  -7  -6   22.30  119.68
  -3   7   6  186.76   33.78
   2  -7  -6  836.48  224.79
   2  -7  -6  779.95  173.95
  -2   7   6  802.21  146.32
   1  -7  -6  159.40   68.81
   1  -7  -6   18.63  141.79
   1  -7  -6  114.01   44.30
  -1   7   6  189.16   32.54
   0  -7  -6    6.07   37.00
   0  -7  -6    1.38  119.61
   0  -7  -6   38.53   23.05
  -1  -7  -6  -38.23  109.61
  -1  -7  -6    3.12   19.91
  -2  -7  -6    5.13  120.76
  11  -8  -6  -70.22  128.36
  10  -8  -6    6.95  141.88
  10  -8  -6   84.89   85.59
   9  -8  -6  113.89   89.14
   9  -8  -6  -19.44  136.83
   8  -8  -6 -196.93   52.04
   8  -8  -6  -35.46  141.59
   7  -8  -6  -46.24  107.03
   7  -8  -6  -42.26   67.72
   6  -8  -6   15.55   28.82
   6  -8  -6   29.91   63.48
   6  -8  -6   36.68  139.94
   5  -8  -6  259.43   85.73
   5  -8  -6  182.14   46.63
   5  -8  -6  -58.74  108.50
   4  -8  -6   12.83   54.05
   4  -8  -6   68.75  144.95
   4  -8  -6   23.65   28.40
   3  -8  -6   11.74  132.81
   3  -8  -6  167.97   47.49
   3  -8  -6  245.25   80.43
   2  -8  -6   69.87   35.14
   2  -8  -6  -20.33  128.41
   2  -8  -6  137.32   59.49
   1  -8  -6   -8.36   43.87
   1  -8  -6  -67.05   93.15
   1  -8  -6   -8.33   23.71
   0  -8  -6 -105.87  107.04
   0  -8  -6  -12.48   23.04
  -1  -8  -6  186.80  177.49
  -1  -8  -6  200.01   53.49
  10  -9  -6   42.35  163.21
  10  -9  -6   75.79   98.52
   9  -9  -6   99.54  166.56
   9  -9  -6  -77.57   74.32
   8  -9  -6  -95.26  134.40
   8  -9  -6  162.77   90.23
   7  -9  -6  -11.24   28.65
   7  -9  -6   38.80  131.51
   7  -9  -6   91.35   78.43
   6  -9  -6  152.52   85.82
   6  -9  -6  159.56   45.93
   6  -9  -6  -81.69  139.86
   5  -9  -6  277.74   91.13
   5  -9  -6   44.10  148.35
   5  -9  -6  137.61   48.05
   4  -9  -6   -5.89   49.85
   4  -9  -6  -45.40   25.62
   4  -9  -6  -91.87   99.90
   3  -9  -6  -52.73  114.66
   3  -9  -6  202.71   74.22
   3  -9  -6  138.51   43.58
   2  -9  -6  -23.57   27.59
   2  -9  -6   70.03  157.10
   2  -9  -6   41.31   51.10
   1  -9  -6  -31.07  118.02
   1  -9  -6   41.45   56.26
   1  -9  -6   93.43   35.94
   0  -9  -6  -18.58  118.94
   0  -9  -6   41.96   31.79
   9 -10  -6   49.30  163.50
   8 -10  -6  -75.22  131.46
   8 -10  -6   73.47   85.76
   7 -10  -6   61.29   78.31
   7 -10  -6   53.07   39.53
   7 -10  -6   -9.47  165.72
   6 -10  -6  -72.91  112.70
   6 -10  -6  -32.37   64.12
   6 -10  -6  101.11   42.51
   5 -10  -6 -102.02  130.01
   5 -10  -6   14.79   35.06
   5 -10  -6   43.67   59.59
   4 -10  -6   38.82   32.30
   4 -10  -6   20.62   56.33
   4 -10  -6  -30.21  146.39
   3 -10  -6  -48.58  115.88
   3 -10  -6   19.69   55.42
   3 -10  -6   15.87   29.82
   2 -10  -6    1.68   54.61
   2 -10  -6  -30.13  157.51
   2 -10  -6   56.65   36.63
   1 -10  -6 -112.34  129.45
   1 -10  -6   93.35   36.24
   0 -10  -6    6.72   32.64
   7 -11  -6  -14.57  162.88
   6 -11  -6  159.84   83.65
   6 -11  -6  -68.10  144.58
   6 -11  -6   37.43   44.06
   5 -11  -6  -47.00   33.41
   5 -11  -6   40.31   64.69
   5 -11  -6   41.59  150.26
   4 -11  -6  180.55   79.74
   4 -11  -6  -55.08  158.01
   4 -11  -6  185.51   54.60
   3 -11  -6 -138.01  140.59
   3 -11  -6   65.22   37.51
   3 -11  -6  -43.53   46.36
   2 -11  -6  348.61   72.57
   2 -11  -6  -28.15  189.07
   1 -11  -6  111.43   48.63
   1 -15   7   87.86   44.51
   2 -15   7  160.03   57.34
   3 -15   7  117.79   51.30
  -3 -14   7   41.85   35.95
  -2 -14   7   42.26   33.91
  -1 -14   7  207.78   60.89
   0 -14   7   15.15   30.96
   1 -14   7   31.59   31.28
   2 -14   7    2.63   32.32
   3 -14   7  167.71   54.99
   4 -14   7  202.23   65.97
   5 -14   7  -11.30   34.92
   6 -14   7  203.30   67.83
  -4 -13   7  151.21   49.39
  -3 -13   7   94.85   38.34
  -2 -13   7  197.98   57.95
  -1 -13   7  305.43   78.98
   0 -13   7   78.67   36.14
   1 -13   7   83.17   35.81
   2 -13   7   45.81   30.86
   3 -13   7  297.61   78.27
   4 -13   7  293.26   78.28
   5 -13   7  -22.12   13.14
   5 -13   7   -4.52   31.76
   6 -13   7   74.02   40.30
   6 -13   7   50.42   21.03
   7 -13   7   12.33   35.72
   8 -13   7   85.75   48.25
   8 -13   7  132.03   32.86
  -6 -12   7   -4.35   28.48
  -5 -12   7   64.72   32.61
  -4 -12   7  124.97   42.13
  -3 -12   7  -27.58   20.12
  -2 -12   7   94.53   36.13
  -1 -12   7   31.38   28.10
   0 -12   7   45.74   26.39
   1 -12   7  -17.09   18.54
   1 -12   7  -18.26   10.25
   2 -12   7  141.53   47.91
   2 -12   7  162.22   33.74
   3 -12   7  310.14   84.49
   3 -12   7  347.52   65.15
   4 -12   7   29.91   15.36
   4 -12   7   15.77   29.16
   5 -12   7    8.76   14.98
   5 -12   7   -5.34   28.14
   5 -12   7  -11.65   11.90
   6 -12   7   31.19   17.61
   6 -12   7   57.21   35.06
   6 -12   7   40.52   17.83
   7 -12   7  397.20   73.05
   7 -12   7  369.21   73.57
   7 -12   7  298.67   92.10
   8 -12   7  186.61   38.09
   8 -12   7  277.44   59.15
   8 -12   7  145.39   28.03
   8 -12   7  124.14   27.66
   9 -12   7   31.11   11.13
   9 -12   7   40.90   10.12
   9 -12   7   -0.82   31.15
   9 -12   7   12.76   19.65
  -7 -11   7  149.85  154.25
  -7 -11   7   32.02   31.08
  -6 -11   7   64.55   32.02
  -6 -11   7   17.07  121.23
  -5 -11   7  491.38  104.78
  -5 -11   7  266.23  199.86
  -4 -11   7  452.92  105.68
  -3 -11   7  100.82   34.43
  -2 -11   7  131.24   29.30
  -2 -11   7  146.05   41.84
  -1 -11   7   51.11   26.33
  -1 -11   7   65.97   17.01
   0 -11   7  619.18  104.16
   0 -11   7  479.60  127.22
   1 -11   7   67.27   29.02
   1 -11   7   74.79   18.27
   1 -11   7  116.33   22.41
   2 -11   7  315.83   89.07
   2 -11   7  383.00   73.31
   2 -11   7  388.59   72.61
   2 -11   7  398.82   72.47
   3 -11   7  291.90   58.28
   3 -11   7  363.04   78.06
   3 -11   7  288.88   58.38
   3 -11   7  302.86   58.40
   4 -11   7   54.21   19.61
   4 -11   7   64.48   19.44
   4 -11   7   89.76   34.85
   4 -11   7   72.62   17.01
   5 -11   7  225.81   68.52
   5 -11   7  287.07   55.02
   5 -11   7  267.97   53.67
   5 -11   7  280.01   55.12
   6 -11   7   87.91   24.75
   6 -11   7   79.60   20.61
   6 -11   7  103.60   24.60
   6 -11   7   53.26   36.76
   7 -11   7  313.33   86.18
   7 -11   7  312.32   67.06
   7 -11   7  380.11   69.58
   8 -11   7   39.79   33.26
   8 -11   7   24.08   11.76
   8 -11   7   13.65   16.59
   9 -11   7   17.77   11.41
   9 -11   7  -38.57   15.40
   9 -11   7   51.17   32.95
  10 -11   7   22.22   20.97
  10 -11   7   -4.55   11.55
  10 -11   7  -13.59   28.93
  -8 -10   7   87.52   39.91
  -7 -10   7   24.27   27.52
  -6 -10   7   68.18   27.81
  -6 -10   7   -8.31   13.34
  -5 -10   7  201.11   67.96
  -5 -10   7  350.61   56.54
  -4 -10   7   56.64   24.61
  -4 -10   7   24.53   13.94
  -3 -10   7    3.28   16.26
  -3 -10   7   18.56   10.46
  -3 -10   7  -74.69  101.16
  -2 -10   7    6.16   11.14
  -2 -10   7   22.65   19.29
  -1 -10   7  357.95   71.78
  -1 -10   7  349.36   85.37
  -1 -10   7  376.68   68.33
  -1 -10   7  365.74   69.03
   0 -10   7  314.40   57.63
   0 -10   7  276.72   69.76
   0 -10   7  276.35   55.61
   0 -10   7  274.65   55.64
   1 -10   7   -7.86   16.90
   1 -10   7   26.48   11.52
   1 -10   7    2.34    8.24
   1 -10   7   -0.54    7.82
   2 -10   7  184.54   53.93
   2 -10   7  267.55   44.17
   2 -10   7  198.22   42.30
   2 -10   7  202.45   42.91
   3 -10   7   -2.34   10.22
   3 -10   7    5.75   20.06
   3 -10   7  -22.08   10.20
   3 -10   7   -7.10    7.87
   4 -10   7    5.23   22.39
   4 -10   7   24.88   13.81
   4 -10   7   18.81   14.47
   4 -10   7   24.35   11.35
   5 -10   7   33.61   19.30
   5 -10   7   69.74   31.71
   5 -10   7  100.11   20.24
   5 -10   7   78.23   21.28
   6 -10   7  410.13   77.11
   6 -10   7  350.54   74.60
   6 -10   7  409.14   93.98
   7 -10   7  141.97   53.32
   7 -10   7  171.35   41.37
   7 -10   7  221.71   41.78
   8 -10   7    4.82   28.36
   8 -10   7  -10.02   15.44
   8 -10   7  -36.31   13.06
   9 -10   7    6.84   29.51
   9 -10   7   49.27   21.67
  10 -10   7   90.68   40.53
  10 -10   7  104.98   30.95
  10 -10   7   86.43   24.97
  -9  -9   7  -40.95   43.79
  -9  -9   7   39.02   21.04
  -9  -9   7   22.25   33.17
  -8  -9   7  349.89   58.02
  -8  -9   7  331.84   74.00
  -8  -9   7   69.96   69.55
  -7  -9   7  -50.14   34.90
  -7  -9   7   -3.51   13.47
  -7  -9   7   30.28   25.00
  -6  -9   7  -18.82   38.65
  -6  -9   7  140.67   27.63
  -6  -9   7  122.81   35.77
  -5  -9   7   76.66   21.90
  -5  -9   7  118.66   24.12
  -5  -9   7  103.26   31.31
  -4  -9   7  102.49   25.28
  -4  -9   7  119.07   24.64
  -4  -9   7  104.47   32.78
  -3  -9   7  126.55   32.26
  -3  -9   7   95.53   22.85
  -3  -9   7  101.10   23.69
   2   9  -7  272.35   71.44
  -2  -9   7  234.20   61.55
  -2  -9   7  256.25   49.79
  -2  -9   7  240.23   49.85
  -2  -9   7  283.64   53.16
  -1  -9   7  898.87  379.44
  -1  -9   7 1093.21  197.11
  -1  -9   7 1081.67  193.37
  -1  -9   7 1175.94  206.65
  -1  -9   7  963.58  230.41
   0  -9   7  398.77   77.09
   0  -9   7  379.90   90.62
   0  -9   7  365.28   73.58
   0  -9   7  442.17   74.13
   1  -9   7  154.61   31.44
   1  -9   7  132.47   30.59
   1  -9   7  140.09   40.36
   1  -9   7  148.68   31.07
   2  -9   7   53.44   16.08
   2  -9   7   67.28   15.71
   2  -9   7   50.07   22.91
   2  -9   7   32.61   13.22
   3  -9   7  403.17   78.04
   3  -9   7  453.62   79.54
   3  -9   7  326.71   92.39
   3  -9   7  384.32   76.79
   4  -9   7  820.14  163.08
   4  -9   7  705.51  140.38
   4  -9   7  755.90  132.76
   4  -9   7  700.80  135.18
   5  -9   7  145.77   30.84
   5  -9   7  123.41   29.32
   5  -9   7  104.68   38.75
   6  -9   7  524.28   89.15
   6  -9   7  483.24   90.01
   6  -9   7  367.33  105.68
   7  -9   7    3.93   13.87
   7  -9   7   -0.05   15.30
   7  -9   7   -9.99   23.85
   8  -9   7   39.29   29.26
   8  -9   7   64.14   22.53
   8  -9   7   30.64   19.91
   9  -9   7   38.51   30.05
   9  -9   7  -20.08   15.62
  10  -9   7   70.52   28.28
  10  -9   7   96.18   37.47
  11  -9   7  183.00   44.12
  11  -9   7  156.66   39.59
 -10  -8   7   44.93   38.79
 -10  -8   7  -16.25   47.19
  -9  -8   7  261.10   63.34
  -9  -8   7  215.66  254.92
  -9  -8   7  112.41   65.06
  -9  -8   7  200.57   45.21
  -8  -8   7  173.41  218.25
  -8  -8   7  202.40   42.75
  -8  -8   7  132.10   61.44
  -8  -8   7  205.69   55.13
  -7  -8   7   57.18   39.79
  -7  -8   7  134.82  151.74
  -7  -8   7   16.38   23.67
  -7  -8   7    5.50   14.76
  -6  -8   7   55.91   17.85
  -6  -8   7  -15.36   35.00
  -6  -8   7   54.36   25.51
  -5  -8   7   -1.53   18.14
  -5  -8   7  -78.40   28.82
  -5  -8   7    0.61   11.37
  -4  -8   7  217.08   37.32
  -4  -8   7  139.73   44.42
  -4  -8   7   27.24   46.54
  -4  -8   7  251.53   38.31
   3   8  -7   32.25   25.47
   3   8  -7   29.92   14.88
  -3  -8   7   57.43   13.38
  -3  -8   7   58.38   15.50
  -3  -8   7   31.81   19.80
   2   8  -7  403.28   70.43
   2   8  -7  394.01   92.46
  -2  -8   7  313.27   63.79
  -2  -8   7  337.59   68.20
  -2  -8   7  297.57   77.05
  -2  -8   7  321.33   64.68
   1   8  -7  257.68   52.54
  -1  -8   7  277.79   48.90
  -1  -8   7  243.40   47.79
  -1  -8   7  257.79   59.82
  -1  -8   7  219.40   50.34
   0   8  -7   28.69   12.33
   0  -8   7   15.15   11.26
   0  -8   7   53.47   11.67
   0  -8   7   -4.86   15.06
   0  -8   7   39.51   12.62
   0  -8   7   42.29   62.57
  -1   8  -7   -2.90    9.51
   1  -8   7  -15.25    7.61
   1  -8   7  -17.27    7.02
   1  -8   7    1.69   13.57
   1  -8   7    9.36    9.52
  -2   8  -7  286.61   68.25
   2  -8   7  336.86   67.68
   2  -8   7  341.34   64.54
   2  -8   7  398.40   66.48
   2  -8   7  350.63   78.72
  -3   8  -7 1331.82  237.42
   3  -8   7 1215.74  236.22
   3  -8   7 1253.26  226.29
   3  -8   7 1173.53  263.24
   3  -8   7 1219.11  221.55
  -4   8  -7  208.53   43.60
   4  -8   7  185.73   53.22
   4  -8   7  193.23   41.28
   4  -8   7  175.57   49.31
   4  -8   7  191.46   40.85
   4  -8   7  197.61   40.17
  -5   8  -7  107.34   25.99
   5  -8   7  112.09   25.39
   5  -8   7  106.63   34.16
   5  -8   7   58.16   31.28
   5  -8   7   87.31   25.12
   6  -8   7    5.90   18.75
   6  -8   7    8.38   13.17
   6  -8   7   -4.43   13.16
   6  -8   7   -0.96   21.11
   7  -8   7   11.24   14.31
   7  -8   7   43.53   23.11
   7  -8   7    7.09   15.45
   8  -8   7  136.76   33.62
   8  -8   7  115.43   39.44
   8  -8   7  126.44   31.89
   9  -8   7   31.45   21.00
   9  -8   7   34.68   24.92
  10  -8   7  235.77   64.50
  10  -8   7  253.30   55.49
  11  -8   7  -24.59   18.92
 -10  -7   7  234.22  234.79
 -10  -7   7   30.95   41.24
 -10  -7   7   55.64   52.50
  -9  -7   7  210.87   65.52
  -9  -7   7  295.69  259.24
  -9  -7   7  232.83   72.56
  -8  -7   7   67.45   40.94
  -8  -7   7  169.10   55.37
  -8  -7   7  218.74  193.00
  -7  -7   7   38.99   27.44
  -7  -7   7   68.74   21.41
  -7  -7   7  116.58  150.46
  -7  -7   7   51.83   40.02
   6   7  -7   27.13   15.21
  -6  -7   7   14.19   14.20
  -6  -7   7   -0.68   97.65
  -6  -7   7    8.77   21.50
  -6  -7   7    8.64   35.78
   5   7  -7  205.19   42.24
  -5  -7   7  218.51   39.35
  -5  -7   7   86.64   50.06
  -5  -7   7  181.20   48.07
   4   7  -7  329.60   57.09
   4   7  -7  351.80   80.13
  -4  -7   7  196.95   61.51
  -4  -7   7  286.80   52.12
  -4  -7   7  143.34   62.84
   3   7  -7   34.84   24.09
   3   7  -7   82.81   16.78
  -3  -7   7  -12.06   28.83
  -3  -7   7   30.57   12.68
  -3  -7   7   38.85   18.59
  -3  -7   7   42.12   13.86
  -3  -7   7   59.07   14.96
   2   7  -7  655.05  169.85
   2   7  -7  666.41  127.72
  -2  -7   7  662.76  141.26
  -2  -7   7  668.81  121.16
  -2  -7   7  671.74  127.15
  -2  -7   7  632.25  118.82
   1   7  -7   12.98   15.83
   1   7  -7   15.10   11.80
  -1  -7   7   14.85    8.96
  -1  -7   7   14.69   15.43
  -1  -7   7   21.60    9.72
  -1  -7   7   33.31   11.45
   0   7  -7  798.23  144.61
   0  -7   7  753.95  160.39
   0  -7   7  819.98  144.04
   0  -7   7  726.60  137.45
   0  -7   7  662.44  134.45
  -1   7  -7    9.90    9.93
   1  -7   7    8.12    9.33
   1  -7   7   -2.50   12.87
   1  -7   7    5.39    7.94
   1  -7   7   12.34    9.95
  -2   7  -7 1179.91  229.71
   2  -7   7 1180.69  214.54
   2  -7   7 1303.53  229.22
   2  -7   7 1165.79  219.16
   2  -7   7 1165.43  254.32
  -3   7  -7 1420.10  258.54
   3  -7   7 1337.23  246.91
   3  -7   7 1319.00  241.39
   3  -7   7 1350.91  286.28
   3  -7   7 1344.33  257.82
  -4   7  -7  218.61   44.80
   4  -7   7  170.36   42.30
   4  -7   7  217.57   51.45
   4  -7   7  229.17   42.78
   4  -7   7  203.76   41.33
  -5   7  -7   32.70   15.06
   5  -7   7   43.00   19.71
   5  -7   7   -3.80   11.74
   5  -7   7   19.75   14.82
  -6   7  -7   41.94   19.06
   6  -7   7   72.36   20.31
   6  -7   7   52.14   24.12
   6  -7   7   51.97   18.91
  -7   7  -7  631.90  115.72
   7  -7   7  582.68  129.99
   7  -7   7  560.52  111.72
   7  -7   7  548.04  109.31
  -8   7  -7   20.91   18.06
   8  -7   7    4.35   13.87
   8  -7   7   36.97   22.53
   8  -7   7   14.09   17.87
   9  -7   7  128.71   35.33
   9  -7   7  142.23   41.43
  10  -7   7  170.78   41.74
  11  -7   7   46.17   24.28
  11   6  -7   22.23   55.23
 -11  -6   7  170.32  361.82
 -11  -6   7  171.91   53.27
 -11  -6   7  -15.87   47.81
  10   6  -7   67.05   66.47
 -10  -6   7  225.11  326.61
 -10  -6   7  292.51   61.40
 -10  -6   7  127.35   57.02
   9   6  -7  279.23   60.74
  -9  -6   7  310.16   76.70
  -9  -6   7  147.08  293.04
  -9  -6   7  312.69   72.98
   8   6  -7    7.50   15.43
  -8  -6   7  -55.77   33.12
  -8  -6   7   -9.10   25.16
  -8  -6   7  200.31  170.75
   7   6  -7  102.72   27.46
  -7  -6   7   61.35   34.21
  -7  -6   7  120.13   43.09
  -7  -6   7  193.54  167.27
   6   6  -7   56.79   20.79
  -6  -6   7   40.38   18.84
  -6  -6   7   74.35   27.10
  -6  -6   7  142.74   99.74
  -6  -6   7   62.68   35.48
   5   6  -7  817.30  146.60
   5   6  -7  781.18  198.02
  -5  -6   7  702.24  136.62
  -5  -6   7  797.64  163.18
  -5  -6   7  606.69  154.92
   4   6  -7  501.36   91.83
   4   6  -7  567.25  129.34
  -4  -6   7  195.05   95.32
  -4  -6   7  500.50   86.05
  -4  -6   7  523.89  104.25
   3   6  -7   -0.50    8.79
   3   6  -7   -5.97   20.56
  -3  -6   7   -9.97   14.69
  -3  -6   7   21.25   10.23
  -3  -6   7   38.13   27.53
  -3  -6   7   20.96   10.24
   2   6  -7  184.96   53.22
   2   6  -7  152.14   37.12
  -2  -6   7  216.36   36.24
  -2  -6   7  182.08   35.11
  -2  -6   7  141.95   46.90
  -2  -6   7  158.73   41.78
   1   6  -7  104.16   38.32
   1   6  -7  135.55   27.99
  -1  -6   7  121.68   25.69
  -1  -6   7  112.12   26.00
  -1  -6   7  165.01   29.15
  -1  -6   7   92.49   30.39
   0   6  -7  263.08   71.32
   0   6  -7  271.83   56.28
   0  -6   7  299.21   56.78
   0  -6   7  311.09   53.38
   0  -6   7  324.23   54.42
   0  -6   7  232.46   61.95
  -1   6  -7   61.77   14.22
   1  -6   7   19.86   11.20
   1  -6   7   27.23   14.99
   1  -6   7   23.09   11.68
  -2   6  -7  897.63  163.50
   2  -6   7  860.80  180.69
   2  -6   7  818.22  156.02
   2  -6   7  827.87  152.73
  -3   6  -7  154.30   35.65
   3  -6   7  136.37   40.12
   3  -6   7  250.98   36.41
   3  -6   7  141.59   34.75
  -4   6  -7   10.05   10.25
   4  -6   7  -23.25   10.22
   4  -6   7   -6.57   13.13
   4  -6   7    0.19   10.29
  -5   6  -7   46.10   16.44
   5  -6   7   44.69   17.41
   5  -6   7   46.78   16.54
   5  -6   7   41.23   19.59
  -6   6  -7  277.67   57.22
   6  -6   7  228.16   54.65
   6  -6   7  264.78   63.81
   6  -6   7  308.07   54.85
  -7   6  -7  206.67   41.35
   7  -6   7  213.60   41.02
   7  -6   7  183.18   45.70
   7  -6   7  117.31   36.54
  -8   6  -7    9.02   16.56
   8  -6   7   24.90   16.03
   8  -6   7   42.53   18.51
   8  -6   7    4.17   19.03
  -9   6  -7  186.04   47.92
   9  -6   7  223.17   53.74
   9  -6   7  216.76   48.03
 -10   6  -7    4.86   20.76
  10  -6   7   40.38   19.75
  11  -6   7  139.94   38.54
  11   5  -7   54.50   56.11
  11   5  -7    8.64   18.20
 -11  -5   7  159.70  396.29
 -11  -5   7  -28.25   34.91
 -11  -5   7  124.66   40.84
  10   5  -7  -41.53   43.76
  10   5  -7  -20.35   14.83
 -10  -5   7   20.85   33.12
 -10  -5   7  366.88  324.87
   9   5  -7  -15.14   40.34
   9   5  -7   20.60   16.74
  -9  -5   7  193.53  273.66
  -9  -5   7  -22.72   30.16
   8   5  -7  183.85   60.07
   8   5  -7  108.96   28.94
  -8  -5   7   33.90  242.83
  -8  -5   7   81.34   39.26
   7   5  -7   22.41   33.56
   7   5  -7    7.70   14.82
  -7  -5   7  -31.58  169.32
  -7  -5   7   24.26   28.04
   6   5  -7  528.85  105.56
   6   5  -7  473.32  147.19
  -6  -5   7  609.32  114.48
   5   5  -7  429.11  124.32
   5   5  -7  524.66   88.39
  -5  -5   7  401.08   82.85
  -5  -5   7  405.39   96.97
  -5  -5   7  422.97   99.24
   4   5  -7    2.96    9.93
   4   5  -7   13.24   23.96
  -4  -5   7   27.30   12.11
  -4  -5   7   24.90   23.00
  -4  -5   7   42.22   16.57
  -4  -5   7    9.53   53.70
   3   5  -7  171.31   44.03
   3   5  -7  120.17   26.92
  -3  -5   7   86.77   34.80
  -3  -5   7  109.89   30.16
  -3  -5   7  105.20   25.69
   2   5  -7   76.06   30.84
   2   5  -7   53.73   17.50
  -2  -5   7   61.81   17.07
  -2  -5   7   78.49   29.76
  -2  -5   7   93.38   18.00
  -2  -5   7   66.47   21.51
   1   5  -7 1026.02  243.71
   1   5  -7  914.53  181.91
  -1  -5   7  888.87  200.98
  -1  -5   7  983.52  173.71
  -1  -5   7  962.65  170.00
   0   5  -7  384.59  100.21
   0   5  -7  443.54   75.58
   0  -5   7  344.45   70.59
   0  -5   7  387.87   71.80
   0  -5   7  354.00   82.90
  -1   5  -7  833.12  161.85
   1  -5   7  840.48  154.69
   1  -5   7  819.02  151.17
   1  -5   7  883.67  178.72
  -2   5  -7  107.02   26.66
   2  -5   7  154.06   27.73
   2  -5   7   97.46   25.17
   2  -5   7  132.84   30.83
  -3   5  -7   -4.96    9.11
   3  -5   7   15.41   10.31
   3  -5   7    4.46   11.11
   3  -5   7   25.00   12.81
  -4   5  -7  133.08   30.88
   4  -5   7  167.48   31.63
   4  -5   7  135.09   29.77
   4  -5   7  119.09   34.29
  -5   5  -7   -8.79    9.62
   5  -5   7  -19.04    8.90
   5  -5   7  -12.56   11.71
   5  -5   7    2.37   12.61
  -6   5  -7 1269.82  254.93
   6  -5   7 1379.58  244.31
   6  -5   7 1420.33  238.87
   6  -5   7 1283.62  281.28
  -7   5  -7  162.58   37.52
   7  -5   7  191.68   37.95
   7  -5   7  162.09   40.90
   7  -5   7  124.55   34.01
  -8   5  -7   21.94   17.78
   8  -5   7   18.66   16.27
   8  -5   7   18.35   17.08
   8  -5   7   43.10   20.18
  -9   5  -7   38.81   21.92
   9  -5   7   69.32   23.72
 -10   5  -7  -38.55   17.88
  10  -5   7   39.48   19.01
 -11   5  -7  100.75   33.75
  11  -5   7  110.70   33.17
  12   4  -7   14.71   59.82
  12   4  -7   66.73   25.49
 -12  -4   7   94.87   44.31
 -12  -4   7   61.44  469.42
  11   4  -7   80.76   25.20
  11   4  -7   20.11   47.22
 -11  -4   7 -225.78  424.51
 -11  -4   7   41.71   34.34
  10   4  -7  247.36   44.37
  10   4  -7  191.84   79.96
 -10  -4   7  138.58   50.74
 -10  -4   7 -271.59  348.00
   9   4  -7  376.78   85.43
   9   4  -7  235.75   46.05
  -9  -4   7  199.12   53.65
  -9  -4   7 -459.50  313.51
   8   4  -7  315.08   66.76
   8   4  -7  477.16  110.33
  -8  -4   7  357.89   73.35
  -8  -4   7  -85.76  375.69
   7   4  -7   58.53   16.26
   7   4  -7   58.81   39.37
  -7  -4   7    5.69   22.43
  -7  -4   7 -289.33  196.55
   6   4  -7  544.06  133.44
   6   4  -7  464.65   90.61
  -6  -4   7  483.30  375.02
  -6  -4   7  380.42   94.77
   5   4  -7  170.66   66.15
   5   4  -7  206.39   43.41
  -5  -4   7  225.06   51.52
   4   4  -7   15.56   26.88
   4   4  -7   25.48   11.29
  -4  -4   7   50.51   69.20
  -4  -4   7   -9.05   19.43
  -4  -4   7   28.60   12.22
   3   4  -7   -2.18    8.48
   3   4  -7  -39.80   20.69
  -3  -4   7  -10.36    9.20
  -3  -4   7    9.11   20.47
  -3  -4   7   53.00   32.13
   2   4  -7 1426.10  281.42
   2   4  -7 1507.13  377.21
  -2  -4   7 1550.19  311.36
  -2  -4   7 1447.20  263.05
  -2  -4   7 1490.45  268.95
   1   4  -7 2074.45  376.91
   1   4  -7 2089.22  503.76
  -1  -4   7 1847.98  415.98
  -1  -4   7 2046.17  360.19
  -1  -4   7 1919.16  352.07
   0   4  -7  146.36   40.29
   0   4  -7  122.26   26.09
   0  -4   7  108.38   24.57
   0  -4   7   91.75   27.72
   0  -4   7  120.57   24.58
  -1   4  -7   10.12    9.99
  -1   4  -7   41.43   19.51
   1  -4   7   10.55    9.53
   1  -4   7   29.28   11.46
   1  -4   7   36.06   12.07
  -2   4  -7   -1.32    8.15
   2  -4   7   -1.28    9.46
   2  -4   7   -2.00    8.84
   2  -4   7   -1.29    8.82
  -3   4  -7  492.62  100.94
   3  -4   7  485.92   94.57
   3  -4   7  581.72  111.45
   3  -4   7  518.30   97.40
  -4   4  -7   86.57   20.23
   4  -4   7   65.08   18.70
   4  -4   7   63.59   20.84
   4  -4   7   81.58   20.84
  -5   4  -7   76.64   27.99
  -5   4  -7  288.00   77.30
   5  -4   7  111.94   28.50
   5  -4   7  117.91   31.38
   5  -4   7  117.48   28.92
  -6   4  -7   96.15   24.38
   6  -4   7   59.07   23.69
   6  -4   7  100.90   22.87
   6  -4   7  107.81   23.81
  -7   4  -7   30.72   15.27
   7  -4   7   24.33   14.89
   7  -4   7    8.44   11.97
   7  -4   7   54.37   18.18
  -8   4  -7  134.59   30.89
   8  -4   7   75.57   28.34
   8  -4   7  138.76   29.95
  -9   4  -7   22.69   20.05
   9  -4   7   27.64   19.19
 -10   4  -7  424.67   91.96
  10  -4   7  459.83   89.95
 -11   4  -7   32.17   24.26
  11  -4   7   64.51   24.81
  12   3  -7   -9.45   16.15
  12   3  -7  -24.38   56.84
  11   3  -7  -51.20   45.95
  11   3  -7   37.09   17.98
 -11  -3   7  -15.66   23.57
  10   3  -7   18.63   18.13
  10   3  -7   34.46   53.85
 -10  -3   7   -1.18   21.44
   9   3  -7  155.10   32.05
   9   3  -7  129.31   63.16
  -9  -3   7   71.64   31.56
   8   3  -7  111.24   67.16
   8   3  -7  184.87   38.91
  -8  -3   7  166.32   43.29
   7   3  -7   73.86   23.04
   7   3  -7   92.28   47.56
  -7  -3   7  113.88   28.22
   6   3  -7  107.80   27.01
   6   3  -7  144.85   53.71
  -6  -3   7  108.85   30.95
   5   3  -7  100.88   48.89
   5   3  -7  114.03   26.63
  -5  -3   7  123.43   30.85
   4   3  -7  286.12   58.58
   4   3  -7  258.07   85.83
  -4  -3   7  326.02   55.91
  -4  -3   7  269.90   62.49
   3   3  -7  431.22   96.11
   3   3  -7  293.96   63.79
  -3  -3   7  299.56   59.99
  -3  -3   7  361.58   70.96
   2   3  -7  855.78  163.49
   2   3  -7 1013.13  223.58
  -2  -3   7  883.62  152.95
  -2  -3   7  579.02  166.81
  -2  -3   7  899.47  156.44
   1   3  -7 1306.16  315.91
   1   3  -7 1356.46  236.75
   1   3  -7 1201.93  234.08
  -1  -3   7 1288.42  224.15
  -1  -3   7 1203.99  218.93
  -1  -3   7  885.34  238.91
  -1  -3   7 1269.28  258.67
   0   3  -7   72.81   14.77
   0   3  -7   36.14   24.22
   0   3  -7   63.46   29.36
   0  -3   7   30.66   13.14
   0  -3   7   52.04   16.36
   0  -3   7   30.47   12.98
  -1   3  -7   91.35   29.33
  -1   3  -7   58.62   27.64
  -1   3  -7  246.76  102.69
  -1   3  -7   55.42   15.98
   1  -3   7   47.33   15.39
   1  -3   7   64.60   17.78
   1  -3   7   47.77   16.29
  -2   3  -7  110.20   66.39
  -2   3  -7  321.73   61.07
   2  -3   7  401.32   59.46
   2  -3   7  298.14   59.97
   2  -3   7  319.41   66.66
  -3   3  -7  966.82  200.37
   3  -3   7 1068.34  220.56
   3  -3   7 1089.95  192.30
   3  -3   7 1088.12  187.81
  -4   3  -7   23.33   42.82
  -4   3  -7    7.56   10.44
   4  -3   7   20.52   10.27
   4  -3   7    2.01   11.72
   4  -3   7   35.11   11.14
  -5   3  -7  517.73  100.48
   5  -3   7  562.45   94.19
   5  -3   7  529.05   96.82
   5  -3   7  474.44  109.22
  -6   3  -7  212.93   48.21
   6  -3   7  263.74   51.51
   6  -3   7  167.09   46.10
   6  -3   7  249.52   46.61
  -7   3  -7   21.79   18.32
   7  -3   7   84.58   19.00
   7  -3   7   53.80   20.77
  -8   3  -7   24.12   18.47
   8  -3   7   53.10   17.95
   8  -3   7   79.30   22.11
  -9   3  -7  211.69   48.25
   9  -3   7  195.96   46.07
 -10   3  -7  209.39   52.87
  10  -3   7  273.10   54.76
 -11   3  -7  120.86   30.29
  11  -3   7   33.76   25.83
  12   2  -7   -3.62   58.20
  12   2  -7   -5.00   15.76
  11   2  -7   66.67   23.60
  11   2  -7   52.85   58.96
  10   2  -7  183.68   92.25
  10   2  -7  305.26   59.37
   9   2  -7  591.97  150.42
   9   2  -7  481.30   96.79
  -9  -2   7  437.86   98.19
   8   2  -7   72.73   20.78
   8   2  -7   57.89   52.02
  -8  -2   7   69.61   22.38
   7   2  -7  105.87   23.95
   7   2  -7   84.86   48.50
  -7  -2   7   72.71   25.72
   6   2  -7   24.56   11.09
   6   2  -7    2.44   34.91
   6   2  -7    3.18    9.14
  -6  -2   7  -13.76   12.06
   5   2  -7  460.32  141.40
   5   2  -7  468.79   98.32
   5   2  -7  559.34   98.81
  -5  -2   7  519.70  102.15
   4   2  -7  227.41   40.98
   4   2  -7  186.74   40.39
   4   2  -7  217.34   67.36
  -4  -2   7  155.11   42.37
   3   2  -7   -4.93   35.59
   3   2  -7  125.36   20.53
   3   2  -7   92.93   19.90
  -3  -2   7   97.71   25.66
  -3  -2   7   54.79   18.47
   2   2  -7  873.91  178.38
   2   2  -7  925.88  244.11
   2   2  -7  980.52  178.77
  -2  -2   7  926.77  181.97
  -2  -2   7  981.21  167.49
   1   2  -7   13.43   11.35
   1   2  -7    1.39    7.14
   1   2  -7  -14.31   28.01
  -1  -2   7   -2.84   16.44
  -1  -2   7   -7.35    7.68
  -1  -2   7   -4.79    8.29
   0   2  -7   -0.68   24.99
   0   2  -7  -12.47   15.70
   0   2  -7   14.07    7.61
   0  -2   7    2.80    9.64
   0  -2   7   38.92   20.80
   0  -2   7    6.59    7.92
  -1   2  -7  -34.60   18.72
  -1   2  -7   52.80   27.86
  -1   2  -7  -97.79  114.65
  -1   2  -7   37.77   11.49
   1  -2   7   38.04   12.46
   1  -2   7   63.65   12.59
   1  -2   7   36.47   12.36
  -2   2  -7  778.66  152.45
   2  -2   7  824.64  146.52
   2  -2   7  805.57  142.87
   2  -2   7  791.92  167.47
  -3   2  -7    0.24  238.80
  -3   2  -7  196.02   47.11
  -3   2  -7  473.26  135.68
   3  -2   7  229.32   45.10
   3  -2   7  246.32   50.48
   3  -2   7  245.14   46.98
  -4   2  -7  -38.58   47.87
  -4   2  -7 -240.56  276.19
  -4   2  -7   21.43   10.88
   4  -2   7   30.91   13.71
   4  -2   7   34.52   12.24
   4  -2   7   17.44    8.49
  -5   2  -7   -3.30    9.88
  -5   2  -7   -0.72   43.99
   5  -2   7   -1.82    8.99
   5  -2   7   -6.77   10.55
  -6   2  -7  177.43   37.66
   6  -2   7  172.00   36.42
   6  -2   7  146.33   35.40
  -7   2  -7  315.30   75.79
   7  -2   7  386.64   72.55
   7  -2   7  451.28   75.89
  -8   2  -7   -8.83   13.92
   8  -2   7    6.06   13.40
   8  -2   7    0.63   13.53
  -9   2  -7 1861.72 1559.25
 -10   2  -7 1788.20 1455.51
  12   1  -7   85.04   27.27
  12   1  -7  131.18   74.45
  11   1  -7   11.37   15.49
  11   1  -7 -120.78  104.65
  11   1  -7   57.01   62.46
  10   1  -7   96.85   27.30
  10   1  -7  105.71   62.69
   9   1  -7   35.00   16.59
   9   1  -7  -26.28   49.71
   8   1  -7   35.89   17.45
   8   1  -7   75.89   49.97
  -8  -1   7   69.16   21.22
   7   1  -7   25.34   12.66
   7   1  -7   81.77   46.37
  -7  -1   7    0.66   12.83
   6   1  -7  213.30   35.38
   6   1  -7  228.09   69.81
   6   1  -7  129.24   33.23
  -6  -1   7  127.33   33.97
   5   1  -7  903.70  169.16
   5   1  -7  870.99  237.25
   5   1  -7  935.00  169.16
  -5  -1   7  803.46  169.82
   4   1  -7    0.23    7.40
   4   1  -7  -10.68   31.41
   4   1  -7    3.10    7.63
  -4  -1   7    9.69   10.67
   3   1  -7  177.99   63.56
   3   1  -7  159.89   33.86
   3   1  -7  165.24   33.90
  -3  -1   7  143.92   32.95
  -3  -1   7  211.39   37.79
   2   1  -7  101.89   21.62
   2   1  -7   83.55   21.35
   2   1  -7   60.90   42.54
  -2  -1   7  121.24   23.20
  -2  -1   7  171.85   29.75
   1   1  -7  502.82   85.51
   1   1  -7  438.81   85.10
   1   1  -7  507.00  127.33
  -1  -1   7  385.85   89.98
  -1  -1   7  388.72   82.46
  -1  -1   7  438.02   80.72
   0   1  -7  330.75   60.69
   0   1  -7  392.41   62.62
   0   1  -7  271.50   91.18
   0  -1   7  314.70   57.56
   0  -1   7  336.54   60.50
   0  -1   7  144.11   64.07
  -1   1  -7  611.34  153.55
  -1   1  -7  599.76  112.20
  -1   1  -7  564.61  108.61
   1  -1   7  572.52  119.54
   1  -1   7  549.38  102.29
   1  -1   7  547.64  104.98
  -2   1  -7 1303.60  264.13
  -2   1  -7 1611.61  620.66
   2  -1   7 1446.91  253.61
   2  -1   7 1408.31  290.77
   2  -1   7 1337.30  247.42
  -3   1  -7  141.65   27.68
  -3   1  -7   26.59   85.66
  -3   1  -7   80.24   35.14
  -3   1  -7  164.00  180.38
   3  -1   7  153.09   27.40
  -4   1  -7  190.67   36.35
  -4   1  -7  226.26  272.86
  -4   1  -7   31.45   95.70
   4  -1   7  215.98   35.53
   4  -1   7  166.36   35.59
  -5   1  -7   48.69   16.82
  -5   1  -7  154.37  294.72
  -5   1  -7  -13.27   52.57
   5  -1   7   69.88   16.84
   5  -1   7   64.49   17.19
  -6   1  -7  506.53  109.29
  -6   1  -7  970.03  600.04
   6  -1   7  562.00  102.55
   6  -1   7  586.83  105.44
  -7   1  -7 1317.63  616.48
  -7   1  -7  442.55   99.96
   7  -1   7  480.24   97.05
   7  -1   7  540.29   94.95
  -8   1  -7   38.30   17.10
  -8   1  -7 -279.54  405.87
   8  -1   7    8.25   15.38
  -9   1  -7  450.05  686.96
 -10   1  -7  117.44  678.21
 -10   1  -7   16.43   18.28
  10  -1   7    8.25   17.72
 -11   1  -7  313.39  820.62
  13   0  -7   97.30   78.67
  12   0  -7  204.86   92.28
  12   0  -7  138.02   36.19
  11   0  -7   21.26   16.80
  11   0  -7   76.59  121.82
  11   0  -7   23.88   64.88
  10   0  -7  144.41   38.47
  10   0  -7  371.09  170.50
  10   0  -7  198.35   86.10
   9   0  -7    4.22   12.24
   9   0  -7   81.80   57.85
   9   0  -7  -39.48   98.93
   8   0  -7  298.50  105.13
   8   0  -7  284.34   64.55
   8   0  -7  757.31  232.21
   7   0  -7    1.36    8.13
   7   0  -7  -22.99   36.74
   7   0  -7    8.02    9.82
   7   0  -7   -3.36  102.72
   6   0  -7  903.14  226.93
   6   0  -7  898.14  158.40
   6   0  -7  748.39  158.13
   5   0  -7  514.73  138.76
   5   0  -7  488.19   90.71
   5   0  -7  470.47   90.66
  -5   0   7  436.41   91.48
   4   0  -7  443.37  154.11
   4   0  -7  110.75   24.93
   4   0  -7  115.46   52.29
   4   0  -7  120.53   25.42
   3   0  -7   -1.55    4.80
   3   0  -7   13.07   78.56
   3   0  -7   15.71   34.68
   3   0  -7    5.59    5.31
  -3   0   7    6.93    9.56
   2   0  -7   61.97   41.15
   2   0  -7   14.61   89.40
   2   0  -7    0.75    4.57
   2   0  -7    6.91    4.46
  -2   0   7    2.05    8.06
   1   0  -7  414.35  132.62
   1   0  -7  486.92   89.00
   1   0  -7  448.70   88.96
  -1   0   7  458.43   87.43
  -1   0   7  499.70   85.13
   0   0  -7  344.97   65.28
   0   0  -7  347.84   65.36
   0   0  -7  347.88  100.58
   0   0  -7  579.58  194.10
   0   0   7  285.11   62.94
   0   0   7  338.17   65.40
  -1   0  -7  403.21  251.71
  -1   0  -7  473.83   96.77
  -1   0  -7  543.54   97.47
  -1   0  -7  660.68  143.12
   1   0   7  530.00   94.37
   1   0   7  492.84   91.58
  -2   0  -7   96.08   28.55
  -2   0  -7   28.09   86.98
  -2   0  -7   73.57  140.24
  -2   0  -7   97.89   23.91
   2   0   7  130.27   24.84
   2   0   7  102.80   25.33
   2   0   7  120.85   24.42
  -3   0  -7   80.35   78.97
  -3   0  -7   56.86   17.54
  -3   0  -7   93.76  161.77
  -3   0  -7   30.02   23.86
   3   0   7   95.99   19.08
   3   0   7  127.45   21.53
  -4   0  -7   -1.00   58.93
  -4   0  -7  -30.06  207.76
  -4   0  -7    9.77    8.72
   4   0   7  -16.13    8.23
   4   0   7   -3.77   10.27
  -5   0  -7   64.34  345.88
  -5   0  -7  313.33   65.70
   5   0   7  387.14   63.44
   5   0   7  339.18   64.65
  -6   0  -7  231.41   48.87
  -6   0  -7   60.98  339.58
   6   0   7  242.92   46.83
   6   0   7  243.49   48.61
  -7   0  -7    7.33  412.49
  -7   0  -7   59.41   18.51
   7   0   7   44.46   18.97
   7   0   7   38.13   15.70
  -8   0  -7 -317.51  358.20
  -8   0  -7   89.59   21.20
   8   0   7   23.79   17.70
  -9   0  -7  -20.93   14.92
  -9   0  -7 -215.13  457.57
   9   0   7  -10.09   15.72
 -10   0  -7  167.08   44.85
  10   0   7  245.62   47.13
 -11   0  -7   75.23   27.61
 -11   0  -7 -807.45  673.75
  11   0   7  101.75   30.51
  13  -1  -7   16.83   64.46
  12  -1  -7   22.47   67.76
  12  -1  -7   -9.81   14.10
  11  -1  -7  152.04   80.32
  11  -1  -7   68.68  122.52
  11  -1  -7   40.61   18.91
  10  -1  -7   45.98   54.70
  10  -1  -7  -27.20   86.90
  10  -1  -7  -14.64   11.95
   9  -1  -7  416.02  182.02
   9  -1  -7  187.07   43.56
   9  -1  -7  202.02   90.96
   8  -1  -7  228.65   42.34
   8  -1  -7  577.27  195.67
   8  -1  -7  170.26   41.53
   8  -1  -7   99.98   78.91
   7  -1  -7   24.32   42.96
   7  -1  -7   10.27    9.36
   7  -1  -7 -115.45   84.88
   7  -1  -7   -1.81    7.74
   6  -1  -7  290.36  112.24
   6  -1  -7  334.31   67.88
   6  -1  -7 1072.97  252.42
   6  -1  -7  347.46   68.06
   5  -1  -7  147.98   29.94
   5  -1  -7  415.14  159.33
   5  -1  -7  144.89   29.93
   5  -1  -7  199.81   71.47
   4  -1  -7   62.11   56.17
   4  -1  -7  258.70  128.87
   3  -1  -7  226.79  101.38
   3  -1  -7  815.83  221.02
  -3   1   7  329.73   63.98
   2  -1  -7 1506.99  367.49
  -2   1   7 1417.18  257.36
  -2   1   7 1384.33  251.24
   1  -1  -7 1269.29  610.79
   1  -1  -7 1577.55  351.67
  -1   1   7 1343.25  245.98
  -1   1   7 1315.68  240.02
   0  -1  -7  158.20   50.79
   0  -1  -7  132.96  107.17
   0   1   7  104.91   22.48
   0   1   7   95.70   23.69
  -1  -1  -7  390.05  106.57
  -1  -1  -7  124.22  184.12
   1   1   7  369.02   67.73
   1   1   7  395.73   65.73
  -2  -1  -7   24.58  111.77
  -2  -1  -7   39.33   72.61
   2   1   7    0.95    7.46
   2   1   7   -3.02    8.85
  -3  -1  -7  578.71  127.22
  -3  -1  -7  680.27  125.93
   3   1   7  695.95  119.49
   3   1   7  701.70  122.68
  -4  -1  -7   48.51   13.36
  -4  -1  -7   20.26   72.82
  -4  -1  -7   70.53   22.42
  -4  -1  -7 -263.35  187.99
   4   1   7   66.87   15.74
   4   1   7   76.17   17.19
  -5  -1  -7 -335.38  250.49
  -5  -1  -7  169.26   32.14
  -5  -1  -7   -3.81   65.59
  -6  -1  -7  320.95   68.29
   6   1   7  320.67   65.28
   6   1   7  422.36   69.21
  -7  -1  -7  -79.22  309.29
  -7  -1  -7  -19.56   10.77
   7   1   7  -13.67   12.21
  -8  -1  -7 -181.20  395.31
  -8  -1  -7   49.89   18.47
   8   1   7   70.54   22.28
  -9  -1  -7   -1.27   15.47
  -9  -1  -7 -605.08  399.03
   9   1   7    6.84   17.23
 -10  -1  -7  134.07   32.79
 -10  -1  -7 -755.23  504.12
  10   1   7  139.54   33.59
  12  -2  -7   -8.31   13.27
  12  -2  -7   87.04   73.40
  11  -2  -7   52.22   17.19
  11  -2  -7   48.08   70.52
  11  -2  -7  -55.97  124.89
  10  -2  -7   53.80  124.52
  10  -2  -7   43.05   15.34
  10  -2  -7   73.48   68.03
   9  -2  -7  461.25  124.94
   9  -2  -7  296.32   63.58
   9  -2  -7  400.55  217.52
   9  -2  -7  328.44   63.43
   8  -2  -7   94.23   67.16
   8  -2  -7  -27.40  108.90
   8  -2  -7   62.52   17.11
   8  -2  -7   90.34   17.58
   7  -2  -7  100.67   61.07
   7  -2  -7   45.44   10.27
   7  -2  -7   44.61   10.30
   7  -2  -7   31.82  112.47
   6  -2  -7  185.27  153.03
   6  -2  -7  212.64   83.88
   5  -2  -7   81.51  116.55
   5  -2  -7   70.85   49.71
   4  -2  -7   55.74  108.67
   4  -2  -7  113.36   57.22
   3  -2  -7   82.20   53.33
   3  -2  -7   83.86  120.22
  -3   2   7   70.65   17.33
   2  -2  -7  499.77  390.70
   2  -2  -7  867.78  226.00
  -2   2   7  820.19  150.41
  -2   2   7  874.79  146.81
   1  -2  -7  473.92  136.12
   1  -2  -7  200.83  237.98
  -1   2   7  500.28   87.69
  -1   2   7  494.61   85.22
   0  -2  -7  -46.70   31.68
   0  -2  -7   76.67  103.82
   0   2   7    4.28    7.46
   0   2   7    7.06    9.06
  -1  -2  -7   -3.74   71.50
  -1  -2  -7   -7.32   26.32
   1   2   7   -4.16    6.43
   1   2   7  -21.61    6.67
  -2  -2  -7  151.95  104.11
  -2  -2  -7  -16.77  143.05
  -3  -2  -7  -44.46   71.91
  -3  -2  -7   55.90  156.96
  -4  -2  -7   70.72   87.50
  -4  -2  -7  -74.67  187.03
   4   2   7   71.29   19.60
   4   2   7   90.28   18.49
  -5  -2  -7 -267.85  202.90
  -5  -2  -7   -3.87   11.37
  -5  -2  -7  -11.05    7.55
  -5  -2  -7   46.52   75.96
   5   2   7    4.61   10.16
   5   2   7  -10.14   10.64
  -6  -2  -7   11.75   19.40
  -6  -2  -7 -400.04  240.26
  -6  -2  -7    6.12    9.96
   6   2   7    9.22   13.49
  -7  -2  -7   -2.02   12.20
  -7  -2  -7  -26.01  274.17
   7   2   7   10.85   13.41
  -8  -2  -7 -315.04  292.00
  -8  -2  -7   11.08   14.60
   8   2   7   14.50   15.69
  -9  -2  -7  270.20   62.48
   9   2   7  340.54   63.35
 -10  -2  -7 -486.13  436.99
 -10  -2  -7  110.19   31.38
  10   2   7   97.47   28.70
  12  -3  -7    9.11   77.83
  12  -3  -7   47.30   13.72
  12  -3  -7   32.34   14.27
  11  -3  -7   83.97  144.46
  11  -3  -7    3.84    8.31
  11  -3  -7   51.83   66.63
  10  -3  -7   32.83  148.26
  10  -3  -7   77.05   73.88
   9  -3  -7   23.55  141.95
   9  -3  -7  213.34   84.86
   8  -3  -7   61.50  130.88
   8  -3  -7  118.45   69.38
   7  -3  -7  -69.30   34.15
   7  -3  -7  -15.89  119.68
   6  -3  -7  -13.92  126.79
   6  -3  -7   33.68   56.28
   5  -3  -7  253.10  219.80
   5  -3  -7  452.36  120.49
   4  -3  -7   72.39  116.69
   4  -3  -7   89.08   57.54
  -4   3   7   60.28   16.77
   3  -3  -7  251.04  292.77
   3  -3  -7  544.56  168.67
  -3   3   7  680.50  107.41
   2  -3  -7  566.31  152.69
  -2   3   7  524.30   93.97
  -2   3   7  507.13   96.68
   1  -3  -7  -24.58   87.50
   1  -3  -7   16.00   45.24
  -1   3   7   72.19   16.91
  -1   3   7   65.92   14.61
   0  -3  -7   84.09   50.07
   0  -3  -7  -46.84   83.71
   0   3   7   94.25   21.34
   0   3   7  112.34   19.93
  -1  -3  -7  382.53  120.09
   1   3   7  419.53   75.54
   1   3   7  422.89   78.05
   2   3   7 1217.51  216.41
   2   3   7 1161.92  210.92
  -3  -3  -7  -98.12  169.41
  -3  -3  -7  -15.71   85.41
  -4  -3  -7   51.61   86.70
  -4  -3  -7 -191.42  181.20
   4   3   7   21.89   11.50
   4   3   7   -1.06    9.40
  -5  -3  -7 -330.04  203.62
   5   3   7   16.29   13.19
   5   3   7   19.71   10.72
  -6  -3  -7   30.21  244.24
   6   3   7  137.51   30.46
  -7  -3  -7 -268.85  270.81
   7   3   7  161.10   30.70
  -8  -3  -7  -99.62  311.99
   8   3   7   28.92   18.46
   9   3   7  384.79   77.53
  12  -4  -7    2.22   87.35
  11  -4  -7   69.36  144.79
  11  -4  -7   53.39   74.99
  10  -4  -7  274.31  106.28
  10  -4  -7  142.75  183.81
   9  -4  -7    2.68  130.83
   9  -4  -7  -52.83   48.57
   8  -4  -7 -115.77  116.15
   8  -4  -7    0.36   60.66
   7  -4  -7   94.90   68.44
   7  -4  -7   -2.42  125.86
   6  -4  -7  172.50   68.86
   6  -4  -7  -49.62  102.33
   5  -4  -7  444.88  100.40
   5  -4  -7   45.70  161.63
   4  -4  -7  151.70  135.29
   4  -4  -7   60.55   53.34
  -4   4   7   84.65   20.17
   3  -4  -7  226.73   94.28
   3  -4  -7   34.85  152.37
  -3   4   7  324.17   50.20
   2  -4  -7  -17.21   40.44
   2  -4  -7  -13.87   83.98
  -2   4   7    0.32    7.33
  -2   4   7    7.50    9.83
   1  -4  -7   74.81   47.11
   1  -4  -7    0.84   93.07
  -1   4   7   78.97   15.90
  -1   4   7   59.96   16.83
   0  -4  -7  -16.07  102.36
   0  -4  -7  133.13   56.16
   0   4   7  115.25   23.48
   0   4   7  105.39   21.44
  -1  -4  -7   68.02   51.82
  -1  -4  -7    1.88  109.66
   1   4   7  152.54   25.79
   1   4   7  128.70   27.39
  -2  -4  -7   41.83  169.06
   2   4   7  332.54   61.62
   2   4   7  362.98   58.40
  -3  -4  -7  -67.32   80.63
   3   4   7    9.41    7.90
   3   4   7    1.64    9.90
  -4  -4  -7   29.26  102.12
  -4  -4  -7 -189.88  188.61
   4   4   7    0.07    9.72
   4   4   7   11.62    9.17
  -5  -4  -7  -20.11  210.71
   5   4   7   33.66   14.20
  -6  -4  -7  -98.86  251.15
   6   4   7  185.57   34.72
  -7  -4  -7 -196.41  224.09
   7   4   7   15.10   14.27
  -8  -4  -7 -219.32  295.63
   8   4   7  131.02   29.27
  -9  -4  -7  -78.32  377.22
  12  -5  -7  -73.98   82.49
  11  -5  -7   63.01   83.81
  11  -5  -7   99.04  140.54
  10  -5  -7  -45.40  128.80
  10  -5  -7   84.08   80.84
   9  -5  -7   -4.73   60.33
   9  -5  -7   10.95  132.63
   8  -5  -7   67.33   68.57
   8  -5  -7 -209.50  103.57
   7  -5  -7   58.17   62.35
   7  -5  -7   29.87  131.77
   6  -5  -7  299.41  100.52
   6  -5  -7  202.95  196.87
   5  -5  -7   -8.68  116.47
   5  -5  -7  496.24  101.24
   4  -5  -7  -59.12  105.08
   4  -5  -7   57.52   57.77
  -4   5   7   37.07   12.09
   3  -5  -7    3.98   49.00
   3  -5  -7  -15.98   96.29
  -3   5   7    7.41    8.18
  -3   5   7    9.03   10.48
   2  -5  -7  427.87  139.73
   2  -5  -7  503.11  107.33
  -2   5   7  476.42   85.38
  -2   5   7  463.78   88.30
   1  -5  -7  597.02  165.36
   1  -5  -7  535.42  123.98
  -1   5   7  549.72  103.81
  -1   5   7  573.51  100.49
   0  -5  -7  -16.57  143.52
   0  -5  -7  170.00   78.56
   0  -5  -7  246.64   57.02
   0   5   7  259.31   43.70
   0   5   7  260.66   46.62
  -1  -5  -7  140.58  194.98
  -1  -5  -7  338.33   77.63
   1   5   7  360.21   62.07
   1   5   7  347.82   65.46
  -2  -5  -7  -19.06  104.09
   2   5   7   50.68   14.44
  -3  -5  -7   13.10  118.51
   3   5   7   81.39   19.17
   4   5   7  111.60   25.70
  -5  -5  -7    6.16  234.40
  -6  -5  -7  -54.17  232.84
  -7  -5  -7 -106.83  299.36
  -8  -5  -7  -76.66  311.87
  11  -6  -7  169.40   96.48
  11  -6  -7  -46.01  134.12
  10  -6  -7  -35.06   68.75
  10  -6  -7  -64.60  120.06
   9  -6  -7  103.85   80.97
   9  -6  -7   84.41  151.49
   8  -6  -7   32.74  146.02
   8  -6  -7  212.02   90.75
   7  -6  -7  201.17   87.75
   7  -6  -7   52.75  157.66
   6  -6  -7 -139.23   98.67
   6  -6  -7  207.39   78.31
   5  -6  -7  -43.17  124.76
   5  -6  -7   29.32   53.81
  -5   6   7   48.04   14.14
   4  -6  -7  -22.57   53.79
   4  -6  -7   24.95  116.98
  -4   6   7   30.31   11.45
   3  -6  -7   46.30   26.47
   3  -6  -7 -123.86   98.02
   3  -6  -7   -5.95   49.61
  -3   6   7   43.07   11.64
  -3   6   7   44.13   13.97
   2  -6  -7   95.72  228.50
   2  -6  -7  481.97  102.19
   2  -6  -7  365.95  134.87
  -2   6   7  516.76   82.73
   1  -6  -7  454.24   93.38
   1  -6  -7  320.08  119.82
  -1   6   7  394.28   75.48
   0  -6  -7    3.83   44.73
   0  -6  -7    9.79   18.71
   0  -6  -7 -142.34   89.42
   0   6   7    2.65    8.69
  -1  -6  -7  -10.78  135.60
  -1  -6  -7  231.00   43.59
   1   6   7  142.79   31.62
  -2  -6  -7 -146.43   90.87
  -3  -6  -7   23.89  118.53
  -7  -6  -7 -315.79  282.64
  11  -7  -7   47.18   88.98
  11  -7  -7   59.81  172.56
  10  -7  -7  183.09   95.90
  10  -7  -7  -32.74  137.10
   9  -7  -7   -1.01  144.21
   9  -7  -7   99.87   83.59
   8  -7  -7   47.92   70.53
   8  -7  -7   37.05  139.67
   7  -7  -7  -47.90   65.42
   7  -7  -7  -71.24  133.55
   6  -7  -7  -11.70  126.36
   6  -7  -7  125.19   76.06
   5  -7  -7   -1.45   62.76
   5  -7  -7    7.31  130.93
  -5   7   7   14.93   10.65
   4  -7  -7    1.57   48.96
   4  -7  -7   87.69  129.13
   4  -7  -7   -1.60   25.25
   3  -7  -7  314.44   81.86
   3  -7  -7   12.93  196.60
   3  -7  -7  397.14  116.91
  -3   7   7  397.63   65.03
   2  -7  -7  561.23  179.51
   2  -7  -7  613.97  140.62
  -2   7   7  641.93  115.55
   1  -7  -7  -34.61   41.20
   1  -7  -7    7.77   22.55
   1  -7  -7  -79.49  112.37
   0  -7  -7  -72.28  113.08
   0  -7  -7   55.05   24.64
   0  -7  -7   -8.07   43.63
  -1  -7  -7  -82.39   84.99
  -1  -7  -7   24.38   20.00
  -2  -7  -7  -25.36  128.72
  10  -8  -7  231.98  109.54
  10  -8  -7  -35.57  151.49
   9  -8  -7   43.40  164.70
   9  -8  -7   42.27   89.95
   8  -8  -7   29.64   82.76
   8  -8  -7   67.10  160.22
   7  -8  -7   88.97   77.35
   7  -8  -7    2.98  141.98
   6  -8  -7   92.83  152.41
   6  -8  -7   25.33   73.19
   5  -8  -7  159.24   50.06
   5  -8  -7   68.40  153.58
   5  -8  -7  228.83   90.12
   4  -8  -7   61.55   63.58
   4  -8  -7    2.77  127.89
   4  -8  -7  -22.30   26.18
   3  -8  -7  207.36   50.47
   3  -8  -7   29.02  146.47
   3  -8  -7  115.12   73.70
   2  -8  -7    3.76  149.54
   2  -8  -7  179.13   48.26
   2  -8  -7  189.47   75.73
   1  -8  -7  -61.36   33.20
   1  -8  -7  -45.68  107.51
   1  -8  -7    8.20   26.84
   0  -8  -7   41.33  142.30
   0  -8  -7   53.26   27.24
  -1  -8  -7   42.91  149.78
   9  -9  -7   -6.90   83.96
   9  -9  -7  -35.28  158.13
   8  -9  -7    3.71   84.59
   8  -9  -7   49.49  159.53
   7  -9  -7   42.23  169.66
   7  -9  -7   80.62   81.18
   6  -9  -7   58.94   67.97
   6  -9  -7   35.07  159.49
   5  -9  -7  -38.76  126.36
   5  -9  -7  120.15   42.60
   5  -9  -7   81.42   70.00
   4  -9  -7   35.56  147.63
   4  -9  -7   -6.03   30.31
   4  -9  -7   41.04   62.44
   3  -9  -7   74.67   65.68
   3  -9  -7  -19.59  125.97
   3  -9  -7  128.30   40.88
   2  -9  -7   -2.64  132.32
   2  -9  -7   74.92   61.34
   2  -9  -7   23.00   30.52
   1  -9  -7   -1.44  144.35
   1  -9  -7  290.55   58.55
   1  -9  -7  160.49   76.69
   0  -9  -7   61.83  130.88
  -1  -9  -7  161.57  191.51
   8 -10  -7   29.14  172.15
   7 -10  -7   29.86  168.39
   7 -10  -7   83.61   87.24
   6 -10  -7    6.90  171.25
   6 -10  -7  206.15   60.88
   6 -10  -7  212.50   96.01
   5 -10  -7  -34.49   36.41
   5 -10  -7   98.73   73.16
   5 -10  -7 -109.56  141.13
   4 -10  -7  -60.38   53.97
   4 -10  -7   -7.17  155.49
   4 -10  -7  -23.36   28.14
   3 -10  -7   -1.13   53.12
   3 -10  -7   38.90  145.61
   3 -10  -7   35.00   36.71
   2 -10  -7  -32.01   47.92
   2 -10  -7  -57.50  156.86
   2 -10  -7    8.89   33.65
   1 -10  -7   27.27   32.96
   1 -10  -7  -25.17  151.54
   5 -11  -7  -81.58  170.60
   4 -11  -7   12.38  176.73
   3 -11  -7   64.51  171.90
   2 -11  -7   50.39  177.74
   1 -15   8   21.77   36.33
   2 -15   8  124.20   49.27
   3 -15   8    8.45   36.22
  -3 -14   8  118.46   45.95
  -2 -14   8   20.94   31.94
  -1 -14   8  197.32   58.27
   0 -14   8   98.12   43.41
   1 -14   8   19.91   30.22
   2 -14   8   18.91   30.34
   3 -14   8   69.95   39.32
   4 -14   8  101.03   44.36
   5 -14   8  -17.78   33.19
   6 -14   8   91.18   46.46
  -4 -13   8   61.44   32.06
  -3 -13   8   15.93   26.60
  -2 -13   8  112.87   40.28
  -1 -13   8   72.96   33.24
   0 -13   8   78.96   33.75
   1 -13   8   96.43   39.42
   2 -13   8  154.78   47.86
   3 -13   8  343.42   99.34
   3 -13   8  443.32   78.47
   4 -13   8  103.42   41.04
   4 -13   8   54.87   21.15
   5 -13   8   72.59   22.43
   5 -13   8   23.03   35.27
   6 -13   8   68.66   42.37
   6 -13   8  124.07   29.63
   7 -13   8   31.74   20.53
   7 -13   8   37.50   20.34
   7 -13   8  112.31   42.88
   8 -13   8  145.47   35.23
   8 -13   8   89.10   49.37
  -6 -12   8    8.67   28.24
  -5 -12   8   17.77   27.29
  -4 -12   8  302.20   76.82
  -3 -12   8   11.09   24.19
  -2 -12   8  136.02   42.35
  -1 -12   8   54.45   29.32
   0 -12   8   62.67   18.70
   0 -12   8   58.66   29.84
   1 -12   8   34.38   28.83
   1 -12   8   18.36   13.66
   2 -12   8   61.77   15.25
   2 -12   8   50.29   30.63
   2 -12   8   80.00   20.72
   3 -12   8  387.81   76.15
   3 -12   8  388.18   76.54
   3 -12   8  478.63   99.50
   4 -12   8   38.33   17.19
   4 -12   8    8.72   26.14
   4 -12   8   10.36   12.98
   4 -12   8   37.18   11.27
   5 -12   8  -18.40   27.91
   5 -12   8   -5.64    8.49
   5 -12   8   10.46   16.90
   5 -12   8   -1.11   14.38
   6 -12   8   13.40   30.85
   6 -12   8   70.58   20.38
   6 -12   8   87.16   21.73
   6 -12   8    6.07   11.12
   7 -12   8  202.85   64.53
   7 -12   8  224.28   49.75
   7 -12   8  247.19   49.96
   8 -12   8   -8.54   29.69
   8 -12   8   -5.12    9.26
   8 -12   8   10.81   18.16
   8 -12   8   31.59   19.77
   9 -12   8   11.70   32.14
   9 -12   8   29.76   23.10
   9 -12   8   22.58   12.14
  -7 -11   8  -31.81   23.48
  -6 -11   8   -7.21   24.70
  -5 -11   8  289.25   78.74
  -5 -11   8  522.35  208.37
  -4 -11   8  215.31   44.92
  -4 -11   8  241.70  153.28
  -4 -11   8  238.92   59.66
  -3 -11   8   43.40   15.05
  -3 -11   8   14.67   23.34
  -2 -11   8   31.29   21.01
  -2 -11   8   29.07   14.18
  -1 -11   8  200.49   53.51
  -1 -11   8  205.76   42.77
  -1 -11   8  205.13   41.93
   0 -11   8  357.01   79.26
   0 -11   8  415.38   63.40
   0 -11   8  267.45   63.84
   1 -11   8  171.14   32.25
   1 -11   8  102.47   40.13
   1 -11   8  133.36   30.17
   1 -11   8  145.89   30.76
   2 -11   8  499.42  100.56
   2 -11   8  582.13  121.45
   2 -11   8  561.47   97.89
   2 -11   8  502.96   97.20
   3 -11   8   84.84   26.75
   3 -11   8   65.84   36.16
   3 -11   8  124.28   26.20
   3 -11   8  121.31   25.19
   4 -11   8   85.63   20.61
   4 -11   8   73.71   22.54
   4 -11   8   68.64   22.13
   4 -11   8   68.25   32.33
   5 -11   8  219.15   44.62
   5 -11   8  220.15   44.54
   5 -11   8  166.48   56.49
   6 -11   8  213.46   47.53
   6 -11   8  190.68   60.68
   6 -11   8  251.33   49.34
   7 -11   8  394.06   92.89
   7 -11   8  388.55   73.57
   7 -11   8  330.20   74.06
   8 -11   8   24.11   33.18
   8 -11   8  123.69   26.51
   8 -11   8   60.83   25.40
   9 -11   8  106.87   44.87
   9 -11   8  127.92   34.45
  -8 -10   8  117.02   43.21
  -7 -10   8   29.19   18.64
  -7 -10   8   32.16   27.31
  -6 -10   8  122.79   42.88
  -6 -10   8  181.97   35.84
  -5 -10   8  455.80   88.75
  -5 -10   8  493.72  109.06
  -4 -10   8   40.08   15.28
  -4 -10   8    8.98   20.38
  -3 -10   8  114.91   25.69
  -3 -10   8  102.74   35.68
  -2 -10   8   96.01   92.08
  -2 -10   8  -15.12   10.33
  -2 -10   8    6.27   17.78
  -2 -10   8    0.71    8.72
  -1 -10   8  452.03   89.58
  -1 -10   8  511.76  105.29
  -1 -10   8  513.97   85.47
  -1 -10   8  404.86   84.57
   0 -10   8  105.95   25.73
   0 -10   8  108.42   36.15
   0 -10   8  112.38   26.21
   0 -10   8  121.34   25.77
   1 -10   8   -3.91   19.50
   1 -10   8   34.62   13.46
   1 -10   8   -2.27    8.39
   1 -10   8    2.01    9.54
   2 -10   8  376.75   66.08
   2 -10   8  326.92   63.47
   2 -10   8  322.97   78.79
   2 -10   8  277.37   63.05
   3 -10   8   -5.54   21.59
   3 -10   8    9.90   13.23
   3 -10   8   -2.52   12.27
   4 -10   8  -13.43   19.61
   4 -10   8   29.94   14.46
   4 -10   8   -0.90   13.36
   5 -10   8  -15.86   20.76
   5 -10   8  -29.15   11.30
   5 -10   8   48.03   17.62
   6 -10   8  304.36   80.77
   6 -10   8  349.81   66.91
   6 -10   8  318.05   66.04
   7 -10   8  156.04   50.29
   7 -10   8  166.78   39.28
   7 -10   8  170.02   39.85
   8 -10   8   29.47   19.21
   8 -10   8   64.19   32.06
   8 -10   8   23.73   20.35
   9 -10   8   -3.05   17.64
   9 -10   8   12.49   28.52
  10 -10   8   83.93   44.33
  10 -10   8  183.12   39.97
   9   9  -8   -9.25   45.87
  -9  -9   8   19.92   18.81
  -9  -9   8   18.03   36.53
  -9  -9   8  166.63   58.79
  -8  -9   8   67.09   56.38
  -8  -9   8  140.08   33.21
  -8  -9   8  121.35   44.47
  -7  -9   8  -21.56   18.56
  -7  -9   8  -33.51   35.67
  -7  -9   8   -7.98   14.63
   6   9  -8  212.04   67.95
  -6  -9   8  216.68   41.95
  -6  -9   8   58.08   55.06
  -6  -9   8  219.22   52.88
   5   9  -8  -10.88   26.74
  -5  -9   8   -6.74    9.95
  -5  -9   8    6.88   18.27
  -5  -9   8    4.79   12.90
   4   9  -8    2.27   24.65
  -4  -9   8   33.60   11.81
  -4  -9   8    2.21   18.79
  -4  -9   8   18.30   13.04
   3   9  -8    9.01   22.47
  -3  -9   8    4.84   11.16
  -3  -9   8    9.27    9.57
  -3  -9   8   -8.01   17.77
  -2  -9   8  590.74  107.09
  -2  -9   8  546.59  105.23
  -2  -9   8  619.31  129.66
  -1  -9   8  978.66  173.05
  -1  -9   8  995.27  176.34
  -1  -9   8  898.04  205.77
   0   9  -8  139.29   33.46
   0  -9   8  169.02   31.03
   0  -9   8  116.27   30.81
   0  -9   8  114.17   37.60
   0  -9   8  172.83   31.12
  -1   9  -8   95.41   31.95
   1  -9   8  140.74   30.70
   1  -9   8  150.58   31.00
   1  -9   8  162.01   32.08
   1  -9   8  174.02   40.59
  -2   9  -8    3.27   12.72
   2  -9   8   27.16   12.04
   2  -9   8  -18.58   10.23
   2  -9   8  -19.44   16.43
   3  -9   8  477.14   87.26
   3  -9   8  494.39  103.85
   3  -9   8  399.55   84.67
   4  -9   8  469.23   82.76
   4  -9   8  459.89   84.05
   4  -9   8  356.24   98.14
   5  -9   8  152.69   40.89
   5  -9   8  140.65   32.70
   5  -9   8  115.54   31.57
   6  -9   8  423.79   73.72
   6  -9   8  345.45   86.51
   6  -9   8  324.92   70.11
   7  -9   8   17.85   26.68
   7  -9   8   16.26   17.40
   7  -9   8   41.64   18.62
   8  -9   8  216.25   55.87
   8  -9   8  184.64   45.07
   8  -9   8  182.65   42.28
   9  -9   8   23.62   19.10
   9  -9   8   -7.35   24.36
   9  -9   8    3.68   17.74
  10  -9   8  205.12   49.81
  10  -9   8  118.52   38.73
  10   8  -8   11.19   50.63
 -10  -8   8  118.40   61.77
 -10  -8   8   32.36   39.91
 -10  -8   8   84.03   26.22
   9   8  -8  185.29   65.31
  -9  -8   8   96.09   31.63
  -9  -8   8   71.17   57.94
  -9  -8   8  195.62   51.38
   8   8  -8  156.51   60.89
  -8  -8   8  120.34   44.16
  -8  -8   8   27.75   53.29
  -8  -8   8  162.72   34.08
   7   8  -8   39.98   45.09
  -7  -8   8   91.82   24.56
  -7  -8   8  119.29  149.04
  -7  -8   8   79.13   34.32
  -7  -8   8  100.16   48.83
   6   8  -8  276.98   85.69
  -6  -8   8  282.87   74.83
  -6  -8   8  270.76   68.76
  -6  -8   8  289.05   56.55
   5   8  -8  -35.16   25.70
  -5  -8   8  -11.60   17.86
  -5  -8   8  -11.79   10.60
  -5  -8   8  -27.58   29.44
   4   8  -8  356.75   99.78
   4   8  -8  467.97   74.24
  -4  -8   8  372.22   67.72
  -4  -8   8  110.92   76.36
  -4  -8   8  467.56   68.25
  -4  -8   8  277.50   79.00
   3   8  -8   42.68   15.52
   3   8  -8   60.41   26.66
  -3  -8   8   29.10   13.22
  -3  -8   8   -5.12   19.05
  -3  -8   8   26.41   12.07
   2   8  -8  645.77  111.20
   2   8  -8  549.59  146.99
  -2  -8   8  540.63  104.61
  -2  -8   8  579.19  124.80
  -2  -8   8  535.40  102.83
   1   8  -8  609.33  109.34
  -1  -8   8  532.19  120.75
  -1  -8   8  592.11  101.46
  -1  -8   8  529.38  107.98
  -1  -8   8  533.74  103.06
   0   8  -8  222.58   45.63
   0  -8   8  228.16   41.64
   0  -8   8  151.30   48.90
   0  -8   8  181.12   41.28
   0  -8   8  257.31   44.31
  -1   8  -8   -4.30   10.98
   1  -8   8    9.31   10.81
   1  -8   8    4.51   16.36
   1  -8   8    5.72    8.97
   1  -8   8   15.61   10.56
  -2   8  -8  134.20   31.61
   2  -8   8   74.60   35.24
   2  -8   8  159.91   30.02
   2  -8   8  128.85   29.79
   2  -8   8  144.55   29.43
  -3   8  -8  401.12   78.52
   3  -8   8  352.21   73.14
   3  -8   8  414.96   75.43
   3  -8   8  369.72   88.55
  -4   8  -8   28.98   14.37
   4  -8   8    7.03   12.99
   4  -8   8   15.30   18.87
   4  -8   8   21.20   13.24
  -5   8  -8  214.28   46.87
   5  -8   8  213.22   54.08
   5  -8   8  191.81   44.93
   5  -8   8  226.69   44.11
  -6   8  -8  223.60   52.60
   6  -8   8  234.04   50.44
   6  -8   8  275.75   61.72
   6  -8   8  239.79   51.28
   7  -8   8  193.69   46.63
   7  -8   8  252.63   58.71
   7  -8   8  224.97   48.69
   8  -8   8   29.83   23.47
   8  -8   8   12.83   16.14
   8  -8   8    6.69   17.88
   9  -8   8  131.58   42.31
   9  -8   8  151.31   37.22
   9  -8   8  142.23   36.46
  10  -8   8  188.67   46.31
  11  -8   8   40.71   24.62
  10   7  -8   64.55   51.92
 -10  -7   8  -66.09   43.71
 -10  -7   8  -38.82   32.95
   9   7  -8  273.37   89.89
  -9  -7   8  163.04   73.27
  -9  -7   8  282.61   68.52
   8   7  -8   47.95   47.11
  -8  -7   8   26.25   19.35
  -8  -7   8  144.15   50.32
  -8  -7   8  100.71   38.98
   7   7  -8   65.03   22.67
   7   7  -8   87.12   46.71
  -7  -7   8   51.29   21.08
  -7  -7   8   53.95   30.59
  -7  -7   8  -14.12   38.07
  -7  -7   8  124.99  118.07
   6   7  -8   27.09   16.97
   6   7  -8   33.83   36.08
  -6  -7   8    3.22   21.72
  -6  -7   8   85.25   88.72
  -6  -7   8   46.93   35.62
  -6  -7   8   37.06   15.27
   5   7  -8  250.26   83.15
   5   7  -8  297.57   58.20
  -5  -7   8  279.31   66.09
  -5  -7   8  144.88   65.16
  -5  -7   8  320.99   55.13
   4   7  -8  -13.82   25.13
   4   7  -8    9.64   12.57
  -4  -7   8    5.11   11.24
  -4  -7   8  -14.75    8.91
  -4  -7   8   21.36   17.82
  -4  -7   8   21.06   30.86
   3   7  -8   63.74   17.95
   3   7  -8   43.63   28.68
  -3  -7   8   38.05   32.92
  -3  -7   8   41.02   23.31
  -3  -7   8   69.48   16.53
  -3  -7   8   42.75   15.96
   2   7  -8  365.09   70.99
   2   7  -8  377.09   95.72
  -2  -7   8  361.42   66.90
  -2  -7   8  336.19   65.41
  -2  -7   8  359.77   70.21
  -2  -7   8  292.40   77.52
   1   7  -8   28.19   23.08
   1   7  -8   72.40   17.83
  -1  -7   8   35.96   18.67
  -1  -7   8   67.92   16.01
  -1  -7   8   52.07   16.14
  -1  -7   8   64.00   16.04
   0   7  -8  282.29   55.63
   0  -7   8  302.90   52.11
   0  -7   8  265.77   54.15
   0  -7   8  277.93   52.65
   0  -7   8  203.62   60.61
  -1   7  -8   95.87   24.27
   1  -7   8  101.09   22.95
   1  -7   8   78.99   22.10
   1  -7   8  120.29   23.35
   1  -7   8   81.19   26.89
  -2   7  -8 1358.40  250.10
   2  -7   8 1349.94  238.81
   2  -7   8 1286.67  249.45
   2  -7   8 1257.24  233.47
   2  -7   8 1290.37  276.52
  -3   7  -8  322.42   70.72
   3  -7   8  339.77   68.17
   3  -7   8  332.56   66.50
   3  -7   8  423.80   80.93
  -4   7  -8  117.04   24.99
   4  -7   8  104.47   29.07
   4  -7   8   47.28   21.59
   4  -7   8  112.36   23.43
  -5   7  -8  347.63   73.20
   5  -7   8  434.77   83.19
   5  -7   8  328.20   70.39
   5  -7   8  331.12   68.03
  -6   7  -8    1.86   14.57
   6  -7   8   -1.90   13.58
   6  -7   8    9.27   17.63
   6  -7   8  -20.12   11.44
  -7   7  -8  300.07   65.48
   7  -7   8  337.54   74.60
   7  -7   8  319.63   62.71
   7  -7   8  285.59   62.98
  -8   7  -8  151.50   29.69
   8  -7   8   96.89   27.18
   8  -7   8   34.76   23.41
   8  -7   8   91.08   32.06
  -9   7  -8  164.44   38.39
   9  -7   8  106.18   33.70
   9  -7   8  147.68   37.45
  10  -7   8   79.57   29.94
  11  -7   8    0.59   20.83
  11   6  -8   63.39   60.94
 -11  -6   8  -14.98   46.37
 -11  -6   8  130.25   51.38
  10   6  -8  138.92   39.69
  10   6  -8  116.46   72.40
 -10  -6   8  106.83   60.16
 -10  -6   8  268.75   59.74
   9   6  -8  212.32   52.11
   9   6  -8  176.81   83.47
  -9  -6   8  219.58   69.76
  -9  -6   8  255.69  264.43
  -9  -6   8  325.55   67.95
   8   6  -8   -1.85   14.05
   8   6  -8  -78.62   31.13
  -8  -6   8  286.91  160.89
  -8  -6   8  -25.43   32.29
  -8  -6   8   -7.31   25.08
   7   6  -8   31.98   19.81
   7   6  -8   45.87   43.85
  -7  -6   8   66.89   21.00
  -7  -6   8   45.94   38.63
  -7  -6   8  130.24  129.33
  -7  -6   8   98.35   31.09
   6   6  -8  225.26   57.34
   6   6  -8  184.95   32.64
  -6  -6   8   87.16   27.87
  -6  -6   8   75.44  111.04
  -6  -6   8   88.25   44.10
  -6  -6   8  162.55   38.99
   5   6  -8 1342.73  229.63
   5   6  -8 1092.41  307.75
  -5  -6   8 1276.93  254.78
  -5  -6   8  820.24  235.90
  -5  -6   8 1229.13  214.23
   4   6  -8  146.40   35.11
   4   6  -8  147.46   54.74
  -4  -6   8  194.89   49.44
  -4  -6   8  161.30   43.80
  -4  -6   8  151.06   32.72
   3   6  -8   88.82   30.71
   3   6  -8   47.29   15.78
  -3  -6   8  -28.18   24.83
  -3  -6   8   61.79   15.34
  -3  -6   8   40.31   20.09
  -3  -6   8   49.51   15.73
   2   6  -8  180.75   37.42
   2   6  -8  195.24   55.14
  -2  -6   8  174.86   34.57
  -2  -6   8   71.09   44.35
  -2  -6   8  154.93   42.15
  -2  -6   8  188.17   35.35
   1   6  -8  171.76   48.48
   1   6  -8  198.37   35.16
  -1  -6   8  153.19   37.04
  -1  -6   8  129.12   31.06
  -1  -6   8  129.59   30.67
   0   6  -8  365.70   69.40
   0   6  -8  349.35   89.48
   0  -6   8  327.74   64.43
   0  -6   8  356.69   76.71
   0  -6   8  311.19   65.46
  -1   6  -8   71.17   19.35
   1  -6   8   81.86   19.07
   1  -6   8   70.45   19.16
   1  -6   8   61.44   21.90
  -2   6  -8  914.96  167.57
   2  -6   8  821.87  184.67
   2  -6   8  877.18  156.48
   2  -6   8  871.93  160.05
  -3   6  -8  310.59   66.64
   3  -6   8  343.05   65.06
   3  -6   8  426.88   76.01
   3  -6   8  261.61   62.18
  -4   6  -8  145.74   32.74
   4  -6   8  159.00   36.34
   4  -6   8  113.70   31.75
   4  -6   8  129.90   30.81
  -5   6  -8   61.96   18.61
   5  -6   8   50.98   16.56
   5  -6   8   57.14   20.60
   5  -6   8   25.22   17.10
  -6   6  -8  264.38   58.28
   6  -6   8  245.80   54.37
   6  -6   8  262.55   56.44
   6  -6   8  336.79   65.92
  -7   6  -8  113.93   26.88
   7  -6   8  119.08   26.24
   7  -6   8   57.78   24.83
   7  -6   8   77.65   29.12
  -8   6  -8  -34.49   14.61
   8  -6   8   49.83   21.17
   8  -6   8    4.38   16.84
   8  -6   8   26.78   16.05
  -9   6  -8   50.57   22.67
   9  -6   8   79.53   25.23
   9  -6   8   22.27   18.85
 -10   6  -8   97.45   29.45
  10  -6   8   36.36   25.01
 -11   6  -8  157.96   46.70
  11  -6   8  219.40   48.01
  11   5  -8  -90.74   43.86
  11   5  -8    5.33   18.55
 -11  -5   8   89.62   42.61
  10   5  -8  -12.64   49.66
  10   5  -8   60.59   23.25
 -10  -5   8  350.57  323.20
 -10  -5   8   48.73   36.40
   9   5  -8  -20.61   12.92
   9   5  -8   14.19   46.94
  -9  -5   8  -18.33  255.98
  -9  -5   8  -28.12   25.54
   8   5  -8   12.22   40.06
   8   5  -8   19.98   15.50
  -8  -5   8  -57.86  189.02
  -8  -5   8   -0.98   25.47
   7   5  -8    3.85   13.27
   7   5  -8   -3.34   35.43
  -7  -5   8  -70.92  134.09
  -7  -5   8   19.58   27.83
   6   5  -8  477.78  154.98
   6   5  -8  589.16  110.29
  -6  -5   8  591.04  103.69
  -6  -5   8  513.23  117.51
   5   5  -8  411.89   80.14
   5   5  -8  438.73  116.01
  -5  -5   8  392.18   87.88
  -5  -5   8  363.83   74.74
   4   5  -8   30.40   11.76
   4   5  -8   -4.25   24.69
  -4  -5   8   43.56   46.39
  -4  -5   8   -9.26   14.39
  -4  -5   8    5.23   11.45
  -4  -5   8    6.77   22.63
   3   5  -8   24.59   11.43
   3   5  -8  -17.96   23.55
  -3  -5   8   17.63   14.36
  -3  -5   8    0.50   10.41
  -3  -5   8   57.79   26.93
  -3  -5   8   16.58   11.06
   2   5  -8  144.47   38.46
   2   5  -8  167.59   58.21
  -2  -5   8  231.81   45.52
  -2  -5   8   92.75   45.24
  -2  -5   8  189.48   37.12
  -2  -5   8  261.33   39.60
   1   5  -8  343.04   87.25
   1   5  -8  292.10   61.37
  -1  -5   8  358.96   59.87
  -1  -5   8  252.57   67.30
  -1  -5   8  312.30   57.72
   0   5  -8   83.04   36.51
   0   5  -8  163.28   27.81
   0  -5   8  132.66   29.53
   0  -5   8  144.26   26.48
   0  -5   8   68.37   23.27
  -1   5  -8  369.30   81.28
   1  -5   8  408.76   75.91
   1  -5   8  431.67   89.18
   1  -5   8  433.99   77.81
  -2   5  -8  324.84   70.53
   2  -5   8  367.41   67.15
   2  -5   8  375.02   77.50
   2  -5   8  346.10   68.06
  -3   5  -8  134.18   28.07
   3  -5   8   84.31   25.43
   3  -5   8  171.03   32.13
   3  -5   8   91.86   27.37
  -4   5  -8   96.92   22.13
   4  -5   8   79.23   22.18
   4  -5   8   77.61   23.63
   4  -5   8   65.76   20.94
  -5   5  -8  525.82   98.26
   5  -5   8  513.05   95.90
   5  -5   8  466.14   92.95
   5  -5   8  481.55  108.86
  -6   5  -8  325.30   72.48
   6  -5   8  388.76   72.06
   6  -5   8  416.05   80.36
   6  -5   8  294.86   67.58
  -7   5  -8  227.99   59.40
   7  -5   8  280.30   58.82
   7  -5   8  319.98   58.45
   7  -5   8  323.24   66.72
  -8   5  -8   73.77   23.13
   8  -5   8   78.31   23.34
   8  -5   8   42.61   22.20
  -9   5  -8  -16.39   16.97
   9  -5   8  -18.33   13.03
   9  -5   8    6.89   17.07
 -10   5  -8   66.47   31.55
  10  -5   8  171.06   36.66
 -11   5  -8   73.11   29.94
  11  -5   8   78.44   30.37
  12   4  -8   25.26   62.66
 -12  -4   8    6.03   35.61
  11   4  -8   76.69   25.55
  11   4  -8  114.67   65.41
 -11  -4   8  125.60   44.38
 -11  -4   8 -474.77  425.04
  10   4  -8   -2.20   14.97
  10   4  -8  -17.82   45.59
 -10  -4   8    5.42   27.34
   9   4  -8  126.61   66.03
   9   4  -8  199.60   40.68
  -9  -4   8  131.11   47.90
   8   4  -8  155.76   35.70
   8   4  -8  118.77   66.27
  -8  -4   8  140.49   42.06
   7   4  -8   85.02   47.14
   7   4  -8   54.02   18.68
  -7  -4   8   28.98   24.49
   6   4  -8  828.20  233.47
   6   4  -8  898.90  168.18
  -6  -4   8  843.39  175.18
   5   4  -8  378.21   77.99
   5   4  -8  465.51  116.57
  -5  -4   8  436.95   86.43
  -5  -4   8  357.75   73.33
   4   4  -8   82.91   40.85
   4   4  -8   83.47   22.56
  -4  -4   8  110.51   87.61
  -4  -4   8   73.47   22.10
  -4  -4   8  112.85   34.22
   3   4  -8   60.07   32.85
   3   4  -8   30.48   14.57
  -3  -4   8   67.74   16.06
  -3  -4   8   43.41   27.24
   2   4  -8  927.92  171.66
   2   4  -8  916.16  233.11
  -2  -4   8  742.65  178.54
  -2  -4   8  926.33  160.65
  -2  -4   8  847.21  189.59
  -2  -4   8  928.38  164.26
   1   4  -8 1637.50  399.01
   1   4  -8 1602.72  297.12
  -1  -4   8 1574.44  284.10
  -1  -4   8 1517.59  277.67
  -1  -4   8 1515.66  327.98
   0   4  -8  -11.53   19.77
   0   4  -8    8.80    9.67
   0   4  -8  -33.20   59.23
   0  -4   8    1.98    9.48
   0  -4   8   10.85    9.27
   0  -4   8   12.12   10.09
  -1   4  -8  127.28   32.89
  -1   4  -8  151.19   48.18
   1  -4   8  166.06   32.10
   1  -4   8  160.49   33.30
   1  -4   8  180.94   37.28
  -2   4  -8  -10.88    8.14
   2  -4   8  -16.64   10.19
   2  -4   8    7.01    9.55
   2  -4   8   -4.42    9.29
  -3   4  -8  527.31  103.84
   3  -4   8  483.17   97.15
   3  -4   8  571.64  114.02
   3  -4   8  546.24   99.86
  -4   4  -8   85.12   19.43
   4  -4   8   68.52   19.72
   4  -4   8   58.81   19.83
   4  -4   8   55.75   17.65
  -5   4  -8  275.30   57.66
  -5   4  -8  376.05  140.47
   5  -4   8  265.93   61.79
   5  -4   8  257.67   54.47
   5  -4   8  243.66   55.59
  -6   4  -8  670.24  133.74
   6  -4   8  778.94  129.40
   6  -4   8  637.17  146.10
   6  -4   8  707.41  125.57
  -7   4  -8    7.64   13.97
   7  -4   8   31.57   14.89
   7  -4   8   -1.57   12.65
  -8   4  -8   59.43   22.31
   8  -4   8   61.96   20.61
   8  -4   8   41.79   18.91
  -9   4  -8   26.68   23.51
   9  -4   8   96.53   25.77
   9  -4   8  124.35   29.36
 -10   4  -8  107.75   34.58
  10  -4   8  146.44   36.69
 -11   4  -8   79.05   30.36
  11  -4   8   77.06   31.15
  12   3  -8   23.96   20.69
  12   3  -8  -21.91   60.35
  11   3  -8   36.36   19.57
  11   3  -8   83.96   69.60
  10   3  -8  -37.74   48.72
  10   3  -8   -7.41   15.40
   9   3  -8  362.46  110.20
   9   3  -8  314.80   64.95
  -9  -3   8  265.60   69.18
   8   3  -8   89.45   23.94
   8   3  -8   43.31   52.89
  -8  -3   8   65.85   28.67
   7   3  -8   -8.69   42.20
   7   3  -8   40.95   18.01
  -7  -3   8  122.62   27.14
   6   3  -8  124.54   55.80
   6   3  -8  123.29   28.46
  -6  -3   8   99.22   33.46
   5   3  -8   34.67   12.21
   5   3  -8  -11.87    7.93
   5   3  -8   -3.20   32.40
  -5  -3   8   21.11   17.58
  -5  -3   8   13.83   12.88
   4   3  -8  121.50   54.79
   4   3  -8  168.89   33.14
   4   3  -8  191.65   33.79
  -4  -3   8  121.76   37.98
  -4  -3   8  111.67   31.13
   3   3  -8  321.25   54.78
   3   3  -8  226.37   81.29
   3   3  -8  253.94   53.69
  -3  -3   8  236.76   60.97
  -3  -3   8  251.89   50.75
   2   3  -8   66.20   38.46
   2   3  -8   65.36   17.52
   2   3  -8   60.83   18.81
  -2  -3   8   62.34   26.42
  -2  -3   8  110.69   19.86
  -2  -3   8   54.69   16.77
   1   3  -8   30.69   11.88
   1   3  -8   20.01   31.59
   1   3  -8   49.67   18.40
  -1  -3   8   41.87   13.75
  -1  -3   8   19.99   20.40
  -1  -3   8   44.61   13.16
   0   3  -8  103.50   24.83
   0   3  -8  135.20   45.16
   0   3  -8  100.01   32.59
   0  -3   8  118.91   25.07
   0  -3   8  101.14   23.62
   0  -3   8  116.81   27.75
  -1   3  -8   95.62   21.58
  -1   3  -8 -106.92  125.64
  -1   3  -8  119.64   37.94
  -1   3  -8   56.00   30.61
   1  -3   8  118.66   23.56
   1  -3   8  125.10   22.49
   1  -3   8   99.09   23.49
  -2   3  -8  420.49  438.40
  -2   3  -8  552.32  108.71
   2  -3   8  612.55  102.45
   2  -3   8  596.14  119.36
   2  -3   8  528.66  104.54
  -3   3  -8  534.59  570.28
  -3   3  -8  716.05  133.38
   3  -3   8  644.07  124.83
   3  -3   8  741.84  146.20
   3  -3   8  663.56  128.28
  -4   3  -8   62.39   19.25
  -4   3  -8  159.45   71.40
   4  -3   8   57.74   19.86
   4  -3   8   73.95   19.02
   4  -3   8   62.43   18.81
  -5   3  -8   -6.08   73.09
  -5   3  -8   95.83   27.19
   5  -3   8  136.29   27.81
   5  -3   8  146.87   28.93
   5  -3   8  146.03   28.27
  -6   3  -8   -3.84   12.60
   6  -3   8  -10.67   12.49
   6  -3   8    4.72   12.71
  -7   3  -8    2.48   14.54
   7  -3   8  -27.76    9.48
   7  -3   8   14.23   15.23
  -8   3  -8    8.20   16.10
   8  -3   8    4.28   13.94
   8  -3   8  -18.53   12.29
  -9   3  -8  180.86   48.90
   9  -3   8  273.20   51.67
  12   2  -8   92.27   29.89
  12   2  -8   90.46   79.75
  11   2  -8  -60.75   55.28
  11   2  -8  -12.01   15.43
  10   2  -8  220.48   48.87
  10   2  -8  180.57   88.43
   9   2  -8  335.31  123.55
   9   2  -8  369.97   75.24
   8   2  -8    6.45   13.25
   8   2  -8    9.73   44.76
  -8  -2   8   -8.71   15.31
   7   2  -8  242.45   80.42
   7   2  -8  238.26   43.05
  -7  -2   8  132.70   43.09
   6   2  -8   -9.70    8.27
   6   2  -8   14.42   11.09
   6   2  -8   -4.52   39.88
  -6  -2   8   12.13   15.66
   5   2  -8  660.75  128.26
   5   2  -8  712.28  128.53
   5   2  -8  669.72  185.81
  -5  -2   8  581.34  131.91
   4   2  -8  269.24   76.69
   4   2  -8  198.30   45.09
   4   2  -8  229.37   45.32
  -4  -2   8  265.46   50.88
  -4  -2   8  203.01   43.55
   3   2  -8  564.96  109.38
   3   2  -8  567.36  159.55
   3   2  -8  541.59  109.46
  -3  -2   8  573.41  103.36
  -3  -2   8  662.05  116.79
   2   2  -8 1218.34  329.03
   2   2  -8 1243.80  241.98
   2   2  -8 1282.36  242.13
  -2  -2   8 1015.83  245.15
  -2  -2   8 1393.77  232.29
  -2  -2   8 1377.99  226.96
   1   2  -8    0.23    7.04
   1   2  -8   50.41   34.26
   1   2  -8   14.72    9.99
  -1  -2   8  -19.94   16.98
  -1  -2   8   -6.72    9.42
  -1  -2   8   15.35    9.51
   0   2  -8  214.53   38.81
   0   2  -8  263.60   66.09
   0   2  -8  253.88   44.33
   0  -2   8  177.81   37.02
   0  -2   8   72.18   42.43
   0  -2   8  182.60   38.18
  -1   2  -8  245.32   43.74
  -1   2  -8  219.06   56.54
  -1   2  -8  534.14  147.52
  -1   2  -8   14.77  152.37
  -1   2  -8  148.98   33.45
   1  -2   8  188.02   33.53
   1  -2   8  179.54   34.29
   1  -2   8  145.33   36.51
  -2   2  -8  957.67  180.11
   2  -2   8  912.09  168.82
   2  -2   8  904.84  172.93
   2  -2   8  974.36  197.93
  -3   2  -8  283.35  412.10
  -3   2  -8  703.92  253.77
  -3   2  -8  506.34   99.48
   3  -2   8  520.91  108.11
   3  -2   8  533.94   96.48
   3  -2   8  500.66   93.63
  -4   2  -8   31.47   14.02
  -4   2  -8   56.91   65.16
  -4   2  -8  -30.31  203.04
   4  -2   8   63.58   17.66
   4  -2   8   39.31   14.47
  -5   2  -8  330.44   54.49
  -5   2  -8  109.82  127.99
  -5   2  -8  521.42  395.24
   5  -2   8  279.28   51.41
   5  -2   8  267.63   52.87
  -6   2  -8  324.83   80.85
  -6   2  -8  670.13  482.02
   6  -2   8  480.78   78.38
   6  -2   8  421.93   80.02
  -8   2  -8  332.33  532.14
  -9   2  -8 1272.30 1114.42
 -10   2  -8 3133.44 2415.25
 -11   2  -8  671.57  907.95
  12   1  -8  122.08   89.38
  12   1  -8  160.36   39.04
  11   1  -8   96.20  141.47
  11   1  -8   -3.09   15.52
  11   1  -8  -37.47   47.20
  10   1  -8  770.28  253.45
  10   1  -8  149.59   99.92
  10   1  -8  301.47   62.92
   9   1  -8  134.55   81.46
   9   1  -8  240.90   47.88
   8   1  -8   12.23   12.86
   8   1  -8   49.68   54.86
   7   1  -8  -21.67    9.18
   7   1  -8  -47.42   41.32
   6   1  -8  269.94   58.57
   6   1  -8  322.28   97.61
   6   1  -8  300.90   58.89
   5   1  -8  498.20  146.15
   5   1  -8  494.28   96.36
   5   1  -8  504.12   96.54
  -5  -1   8  489.49   99.60
   4   1  -8  -25.72   31.79
   4   1  -8    1.19    7.33
   4   1  -8  -11.08    6.19
  -4  -1   8   26.63   11.77
  -4  -1   8    4.25   11.45
   3   1  -8  250.04   74.27
   3   1  -8  186.10   38.14
  -3  -1   8  156.61   41.58
  -3  -1   8  203.00   37.91
   2   1  -8    9.80    6.60
   2   1  -8   19.17   39.25
   2   1  -8    3.66    6.31
  -2  -1   8   12.77    9.57
  -2  -1   8   13.38   15.44
  -2  -1   8    6.28    8.50
   1   1  -8  111.36   99.88
   1   1  -8   65.53   13.16
   1   1  -8   41.26   12.30
   1   1  -8   39.13   38.54
  -1  -1   8   45.87   15.51
  -1  -1   8   30.94   21.21
  -1  -1   8   56.65   13.96
   0   1  -8    3.44    6.34
   0   1  -8   25.06   75.71
   0   1  -8   12.03    9.02
   0   1  -8   -7.07   26.22
   0  -1   8  -14.69   16.51
   0  -1   8  -17.39    8.91
   0  -1   8   32.30    9.78
  -1   1  -8  331.67   65.51
  -1   1  -8  301.21   68.71
  -1   1  -8  341.05   98.66
  -1   1  -8  842.66  209.69
   1  -1   8  332.11   63.20
   1  -1   8  312.31   64.68
  -2   1  -8  450.14   94.59
  -2   1  -8  543.81  246.09
  -2   1  -8  428.45   99.72
   2  -1   8  530.38   92.33
   2  -1   8  505.43  103.42
   2  -1   8  505.83   89.61
  -3   1  -8   14.61    9.16
  -3   1  -8   96.88  204.12
  -3   1  -8  -40.60   19.23
  -3   1  -8   64.40   72.54
   3  -1   8   16.92    9.77
   3  -1   8  -11.40    9.18
  -4   1  -8    7.22   76.24
  -4   1  -8  149.61   27.00
  -4   1  -8   49.27   33.80
  -4   1  -8  -52.68  227.36
   4  -1   8  199.14   29.82
  -5   1  -8   83.99   24.72
  -5   1  -8  457.79  359.29
  -5   1  -8  -13.64   71.09
   5  -1   8  134.29   25.40
   5  -1   8  152.86   27.05
  -6   1  -8  426.47  407.96
  -6   1  -8  198.43   39.79
   6  -1   8  162.09   39.15
   6  -1   8  156.35   37.13
  -7   1  -8  152.65   35.94
  -7   1  -8  188.10  467.57
   7  -1   8  134.56   33.19
   7  -1   8  170.93   36.80
  -8   1  -8   15.11   16.49
  -8   1  -8 -323.95  453.88
   8  -1   8   27.30   18.76
   8  -1   8   64.54   19.26
  -9   1  -8 -355.65  482.73
  -9   1  -8   99.05   30.88
   9  -1   8  169.66   35.15
 -10   1  -8-1000.00  724.40
 -10   1  -8   46.27   21.22
  10  -1   8   31.98   22.54
  12   0  -8  125.90   80.30
  12   0  -8   54.23   22.34
  11   0  -8   22.87  122.71
  11   0  -8   35.29   60.69
  11   0  -8   39.67   18.09
  10   0  -8  363.86  180.45
  10   0  -8  121.98   32.23
  10   0  -8  110.25   81.59
   9   0  -8  -64.47   42.35
   9   0  -8    0.92   13.42
   9   0  -8  -40.68  112.19
   8   0  -8   81.50   64.09
   8   0  -8  125.33   29.79
   8   0  -8  324.12  172.11
   7   0  -8  514.72  183.84
   7   0  -8  121.72   72.30
   7   0  -8  150.11   33.10
   7   0  -8  138.62   32.74
   6   0  -8 1016.02  309.13
   6   0  -8 1172.86  220.87
   6   0  -8 1178.97  220.84
   5   0  -8  669.93  129.62
   5   0  -8  674.89  129.61
   5   0  -8  770.00  193.15
   4   0  -8   27.22    7.72
   4   0  -8   13.84    6.90
   4   0  -8   62.55  101.07
   4   0  -8   -3.90   37.07
  -4   0   8   11.62   12.30
   3   0  -8  133.82   59.21
   3   0  -8  324.19  131.94
   3   0  -8  107.30   22.46
   3   0  -8  114.44   22.20
  -3   0   8   85.18   23.65
   2   0  -8  190.77   62.58
   2   0  -8  471.80  151.64
   2   0  -8  129.03   25.04
   2   0  -8  113.49   25.08
  -2   0   8  183.06   30.15
  -2   0   8  151.32   27.63
   1   0  -8 1066.46  243.05
  -1   0   8  856.56  167.33
  -1   0   8  920.87  163.37
   0   0  -8   16.14   35.27
   0   0  -8    8.02    3.62
   0   0  -8  -45.86   73.09
   0   0   8    8.19    8.41
   0   0   8   -0.65    9.53
  -1   0  -8  650.11  169.96
  -1   0  -8  667.12  117.76
  -1   0  -8  604.18  117.64
  -1   0  -8  554.03  304.51
   1   0   8  585.00  111.42
   1   0   8  593.93  114.37
  -2   0  -8   58.87  280.10
  -2   0  -8  350.69   68.46
  -2   0  -8  339.93   66.00
  -2   0  -8   90.64  175.15
   2   0   8  333.62   66.31
   2   0   8  379.74   72.02
   2   0   8  398.12   63.80
  -3   0  -8   -3.55   69.27
  -3   0  -8   28.67  162.50
  -3   0  -8   37.53   18.61
  -3   0  -8   -2.05    7.60
   3   0   8   13.92   10.19
   3   0   8   11.00   11.30
  -4   0  -8   -0.85   89.71
  -4   0  -8  189.42   30.89
  -4   0  -8 -210.10  214.41
  -4   0  -8   65.34   36.67
   4   0   8  179.37   30.81
   4   0   8  208.54   33.35
  -5   0  -8    1.00   78.60
  -5   0  -8 -394.18  299.96
  -5   0  -8  156.87   26.77
  -5   0  -8   50.02   33.78
   5   0   8  159.13   26.75
   5   0   8  116.49   26.82
  -6   0  -8 -397.75  419.81
  -6   0  -8  319.60   71.12
   6   0   8  476.36   72.64
   6   0   8  421.18   69.27
  -7   0  -8 -255.01  319.54
  -7   0  -8   39.43   18.08
   7   0   8   74.41   21.92
   7   0   8   72.76   18.97
  -8   0  -8 -167.32  456.01
  -8   0  -8   33.29   16.85
   8   0   8   20.26   16.79
  -9   0  -8   25.56   16.49
   9   0   8    6.61   17.88
 -10   0  -8  121.81   36.93
  10   0   8  196.58   40.37
  12  -1  -8  -30.19   65.05
  12  -1  -8  132.35  149.52
  12  -1  -8   45.80   18.91
  11  -1  -8  175.08  151.80
  11  -1  -8  150.52   86.57
  11  -1  -8  103.88   28.86
  10  -1  -8    0.80  106.77
  10  -1  -8   11.97   12.54
  10  -1  -8  117.83   77.15
   9  -1  -8   85.14   24.21
   9  -1  -8   63.64   68.59
   9  -1  -8  182.92  148.18
   9  -1  -8  112.53   24.16
   8  -1  -8   74.93   16.99
   8  -1  -8   70.64   17.43
   8  -1  -8  -33.34   43.53
   8  -1  -8   38.72  120.30
   7  -1  -8  195.92   41.10
   7  -1  -8  598.70  205.05
   7  -1  -8  180.79   81.21
   7  -1  -8  201.92   41.16
   6  -1  -8 1205.16  290.90
   6  -1  -8  436.01   78.43
   6  -1  -8  373.16  125.52
   6  -1  -8  370.10   78.25
   5  -1  -8   35.36   46.49
   5  -1  -8  197.87  130.99
   4  -1  -8  -37.57   79.25
   4  -1  -8  -10.40   44.25
  -4   1   8   35.35   12.71
   3  -1  -8  422.87  187.92
   3  -1  -8  171.93   88.72
  -3   1   8  303.59   54.48
   2  -1  -8  896.68  255.66
   2  -1  -8 1178.33  457.77
  -2   1   8  958.44  173.66
  -2   1   8  915.19  169.21
   1  -1  -8   47.44  125.26
   1  -1  -8  121.00   60.17
  -1   1   8  120.12   28.50
  -1   1   8  148.36   27.28
   0  -1  -8  133.46   52.01
   0  -1  -8  149.88  125.91
   0   1   8  101.62   25.41
   0   1   8  114.76   24.49
  -1  -1  -8   39.86   33.60
  -1  -1  -8   14.29   86.63
   1   1   8   20.12   12.01
   1   1   8   34.90   10.83
  -2  -1  -8   13.33  146.11
  -2  -1  -8   70.48   84.96
   2   1   8   17.09    9.81
   2   1   8   -7.39    9.85
  -3  -1  -8  -20.31  258.72
  -3  -1  -8   27.44  142.56
   3   1   8  382.41   52.48
   3   1   8  370.84   54.92
  -4  -1  -8  389.91   77.25
  -4  -1  -8  389.65   74.53
   4   1   8  369.50   72.69
   4   1   8  404.14   75.74
  -5  -1  -8  707.63  136.13
   5   1   8  681.24  129.04
   5   1   8  758.69  132.84
  -6  -1  -8   79.16   42.88
  -6  -1  -8  187.68   37.16
  -6  -1  -8 -111.78  297.59
   6   1   8  232.03   38.24
   6   1   8  203.71   39.78
  -7  -1  -8  -83.07  316.36
  -7  -1  -8   35.47   15.45
   7   1   8   79.26   20.53
  -8  -1  -8 -409.28  323.41
  -8  -1  -8   35.62   15.11
   8   1   8   20.88   16.28
  -9  -1  -8   42.21   19.08
   9   1   8   39.52   21.56
 -10  -1  -8  122.08   33.36
 -10  -1  -8 -706.84  481.59
  10   1   8  170.38   35.84
  12  -2  -8    0.03   12.33
  12  -2  -8  161.62  177.51
  12  -2  -8   29.00   79.32
  11  -2  -8    3.70   10.31
  11  -2  -8   -2.38   62.44
  11  -2  -8  -74.16  135.86
  10  -2  -8  128.20   28.52
  10  -2  -8  128.77   28.49
  10  -2  -8  308.19   94.33
  10  -2  -8  169.93  161.01
   9  -2  -8  353.72   72.03
   9  -2  -8  353.65  236.04
   9  -2  -8  402.52   72.23
   9  -2  -8  306.54  128.50
   8  -2  -8  -28.41  107.35
   8  -2  -8  -28.03   53.10
   7  -2  -8  156.94   74.54
   7  -2  -8  109.37  143.45
   6  -2  -8   26.08  120.95
   6  -2  -8  107.28   59.12
   5  -2  -8  139.98  137.97
   5  -2  -8   93.44   57.34
   4  -2  -8  137.83   66.11
   4  -2  -8   96.93  131.99
  -4   2   8  110.89   25.45
   3  -2  -8  110.92   57.25
   3  -2  -8   38.36  116.54
  -3   2   8   52.63   16.01
   2  -2  -8 1141.09  334.46
  -2   2   8 1236.01  230.81
  -2   2   8 1325.71  225.28
   1  -2  -8   93.16  150.70
   1  -2  -8  195.53   75.37
  -1   2   8  189.17   39.09
  -1   2   8  199.70   37.22
   0  -2  -8   46.55   46.89
   0  -2  -8  104.39  119.91
   0   2   8   74.07   18.89
   0   2   8   77.51   17.64
  -1  -2  -8  -53.68   76.61
  -1  -2  -8  -10.19   29.28
   1   2   8   12.64    8.41
   1   2   8   10.55   10.10
  -2  -2  -8   62.03  264.63
  -2  -2  -8  163.62  166.76
   2   2   8  311.75   58.01
   2   2   8  369.98   55.44
  -3  -2  -8   76.44  117.16
  -3  -2  -8  -91.99  202.35
   3   2   8  263.10   36.85
  -4  -2  -8   60.07  189.79
  -4  -2  -8  -42.96   76.54
   4   2   8   -2.55   11.13
   4   2   8    9.27    9.62
  -5  -2  -8   78.48   95.25
  -6  -2  -8    4.40  241.53
   6   2   8  112.49   29.09
   6   2   8  137.62   28.25
  -7  -2  -8 -425.87  263.39
  -7  -2  -8   -3.63   16.44
  -7  -2  -8   -3.06   11.02
   7   2   8   37.34   15.68
  -8  -2  -8 -430.80  290.06
  -8  -2  -8   74.77   25.70
  -8  -2  -8   23.94   14.98
   8   2   8   -4.58   15.66
  -9  -2  -8 -477.30  372.00
  -9  -2  -8   64.71   22.21
   9   2   8   72.84   23.40
  12  -3  -8   33.36   88.46
  12  -3  -8  168.75  192.05
  11  -3  -8   -2.51   72.02
  11  -3  -8  -49.01  140.56
  10  -3  -8  -64.01  125.98
  10  -3  -8  173.04   86.52
   9  -3  -8  172.99  199.91
   9  -3  -8  239.77   98.95
   8  -3  -8  148.24  161.98
   8  -3  -8   22.19   58.19
   7  -3  -8   20.65   58.72
   7  -3  -8   24.40  148.49
   6  -3  -8   19.07   50.88
   6  -3  -8   46.75  145.38
   5  -3  -8   52.20   53.98
   5  -3  -8   68.89  136.88
   4  -3  -8  -38.05   99.33
   4  -3  -8   18.10   48.52
  -4   3   8    6.00   10.09
   3  -3  -8  250.60  223.91
   3  -3  -8  364.56  122.26
  -3   3   8  407.98   71.56
   2  -3  -8  -22.65  114.98
   2  -3  -8  102.43   59.12
  -2   3   8  135.21   26.45
  -2   3   8  138.37   28.37
   1  -3  -8  -80.95   93.46
   1  -3  -8  -14.53   41.36
  -1   3   8   17.73    9.31
  -1   3   8   30.06   12.11
   0  -3  -8   13.94   37.26
   0  -3  -8  -49.60   94.74
   0   3   8   20.11   10.81
   0   3   8   17.41    8.98
  -1  -3  -8  496.54  146.32
   1   3   8  552.13   92.97
   1   3   8  473.51   95.56
   2   3   8  634.30  125.28
   2   3   8  717.21  122.03
  -3  -3  -8  -35.24  184.20
  -3  -3  -8   23.29   92.92
   3   3   8   32.16   13.19
   3   3   8   21.64   10.52
  -4  -3  -8    9.03   94.05
  -4  -3  -8 -166.34  209.02
  -5  -3  -8  181.43  220.04
  -5  -3  -8   32.23  100.26
   5   3   8   21.29   15.16
   5   3   8   37.09   13.98
  -6  -3  -8  163.47  291.46
   6   3   8  139.06   33.14
  -7  -3  -8 -290.30  262.09
   7   3   8   30.14   16.16
  -8  -3  -8 -413.40  280.88
   8   3   8   47.01   19.42
  -9  -3  -8 -294.03  390.02
   9   3   8  166.99   36.00
  12  -4  -8   36.23  153.67
  12  -4  -8   71.12   94.87
  11  -4  -8  110.94  182.27
  11  -4  -8   73.67   79.70
  10  -4  -8  238.52  108.60
  10  -4  -8  211.26  212.65
   9  -4  -8   71.30   79.58
   9  -4  -8  143.82  176.07
   8  -4  -8   42.01   73.30
   8  -4  -8  -15.80  137.93
   7  -4  -8  131.56   81.15
   7  -4  -8   64.27  134.17
   6  -4  -8  465.62  118.94
   6  -4  -8  154.10  209.26
   5  -4  -8   54.12  184.49
   5  -4  -8  235.40  100.74
  -5   4   8  331.87   54.73
   4  -4  -8  -12.39  111.05
   4  -4  -8  -68.21   46.97
  -4   4   8   23.40   11.16
   3  -4  -8  336.03  115.24
   3  -4  -8   62.43  189.81
  -3   4   8  343.42   60.10
  -3   4   8  340.73   62.44
   2  -4  -8  114.64   57.96
   2  -4  -8   43.86  127.05
  -2   4   8   72.50   18.57
  -2   4   8   82.39   20.34
   1  -4  -8    2.63  190.24
   1  -4  -8  372.62  115.78
  -1   4   8  379.69   64.28
  -1   4   8  394.64   67.75
   0  -4  -8  117.34  131.82
   0  -4  -8   40.42   50.42
   0   4   8   99.65   25.24
   0   4   8  135.10   23.75
  -1  -4  -8  -22.28  132.57
  -1  -4  -8  218.71   77.57
   1   4   8  194.77   41.54
   1   4   8  251.44   39.68
  -2  -4  -8   67.44  178.41
   2   4   8  329.62   59.30
   2   4   8  385.50   63.27
  -3  -4  -8  -25.80   99.52
   3   4   8   39.78   14.23
   3   4   8   16.16   10.51
  -4  -4  -8  116.68  126.44
  -4  -4  -8  -16.87  226.63
   4   4   8  118.14   24.22
   4   4   8  109.31   26.31
  -5  -4  -8  -18.89  223.75
   5   4   8  -14.16   11.03
  -6  -4  -8  -27.45  270.18
   6   4   8  126.38   28.22
  -7  -4  -8 -240.09  269.77
   7   4   8   28.03   15.87
  -8  -4  -8 -446.00  301.41
  11  -5  -8   54.86   96.32
  11  -5  -8  112.95  174.91
  10  -5  -8  -59.44  135.61
  10  -5  -8   34.61   81.28
   9  -5  -8   34.86  157.65
   9  -5  -8  -30.57   67.42
   8  -5  -8  -44.79   62.80
   8  -5  -8  -31.46  118.45
   7  -5  -8  154.88   85.29
   7  -5  -8   56.36  148.98
   6  -5  -8  441.32   97.73
   6  -5  -8  -74.38  117.98
   5  -5  -8  108.15   67.09
   5  -5  -8   -3.73  135.60
  -5   5   8   91.33   21.67
   4  -5  -8  -37.10   46.38
   4  -5  -8   49.66  123.20
  -4   5   8   -8.24    8.32
   3  -5  -8   -6.93  121.92
   3  -5  -8  -33.50   49.20
  -3   5   8    7.70   11.35
  -3   5   8    3.05    9.12
   2  -5  -8  -53.51   94.97
   2  -5  -8   26.79   45.30
  -2   5   8   48.58   13.13
  -2   5   8   44.69   14.08
   1  -5  -8  -13.33  109.51
   1  -5  -8   54.23   52.63
  -1   5   8   33.97   11.45
  -1   5   8   52.29   14.75
   0  -5  -8  334.94  111.36
   0  -5  -8   25.23  183.30
   0   5   8  374.82   62.43
   0   5   8  378.01   65.98
  -1  -5  -8  105.39  131.73
  -2  -5  -8  -67.38   96.07
   2   5   8   14.92   11.07
  -3  -5  -8  108.63  128.24
   3   5   8   71.84   20.13
  -4  -5  -8   63.50  125.62
   4   5   8   58.62   18.06
  -6  -5  -8  -37.83  264.26
  -7  -5  -8 -190.59  297.33
  11  -6  -8   87.88  105.42
  11  -6  -8  -58.74  158.56
  10  -6  -8   72.45  166.38
  10  -6  -8  -93.49   69.85
   9  -6  -8  -70.80  125.76
   9  -6  -8  -56.57   60.88
   8  -6  -8   51.45  162.57
   8  -6  -8  -76.45   52.78
   7  -6  -8  -42.98  145.14
   7  -6  -8  226.50   91.34
   6  -6  -8   19.42  189.12
   6  -6  -8  309.77  117.88
  -6   6   8  383.58   60.73
   5  -6  -8   77.32  151.69
   5  -6  -8   33.27   61.74
  -5   6   8   28.65   12.83
   4  -6  -8   -5.78   56.01
   4  -6  -8  -19.47  113.97
  -4   6   8   46.84   13.36
  -4   6   8   18.02   13.36
   3  -6  -8   65.80  139.80
   3  -6  -8  -22.75   49.56
  -3   6   8    1.60   10.76
   2  -6  -8  364.46  141.21
  -2   6   8  499.17   88.99
   1  -6  -8   60.20  145.72
   1  -6  -8  255.19   80.59
  -1   6   8  159.41   33.85
   0  -6  -8  138.40   62.47
   0  -6  -8  -12.99  106.20
   0   6   8   95.29   21.91
  -1  -6  -8  -13.50  158.37
   1   6   8  316.37   51.04
  -2  -6  -8   71.45  131.40
  -3  -6  -8  -14.61  118.31
  10  -7  -8  -76.12  150.89
  10  -7  -8  127.12   98.20
   9  -7  -8  -14.02   79.55
   9  -7  -8  -59.66  133.83
   8  -7  -8 -154.23  129.92
   8  -7  -8  179.53   93.79
   7  -7  -8  193.74  102.61
   7  -7  -8   57.94  173.41
   6  -7  -8   30.70  145.68
   6  -7  -8   45.91   64.46
  -6   7   8   32.52   15.39
   5  -7  -8   71.83   70.15
   5  -7  -8 -156.81  121.28
   4  -7  -8  -73.06  110.87
   4  -7  -8   22.88   61.68
  -4   7   8   -2.65   11.67
   3  -7  -8  134.58  181.48
   3  -7  -8  187.71   89.97
  -3   7   8  203.18   41.05
   2  -7  -8  150.81   42.46
   2  -7  -8  152.56   70.11
   2  -7  -8  -45.56  137.38
  -2   7   8  122.71   28.04
   1  -7  -8   61.30   54.69
   1  -7  -8   56.94  120.29
   1  -7  -8  -15.92   22.64
   0  -7  -8   -4.25  139.96
   0  -7  -8   40.51   50.81
   0  -7  -8    3.74   22.97
  -1  -7  -8   44.20  145.89
  -2  -7  -8  -22.32  123.64
   9  -8  -8  129.74  185.76
   9  -8  -8   -5.28   92.09
   8  -8  -8   34.78  162.09
   8  -8  -8  -29.97   75.59
   7  -8  -8  -71.47  120.86
   7  -8  -8  -69.75   70.17
   6  -8  -8   39.99  159.52
   6  -8  -8   -0.03   73.02
   5  -8  -8   90.08   76.39
   5  -8  -8  109.63  157.82
   4  -8  -8    4.67  146.24
   4  -8  -8  -19.08   57.08
   3  -8  -8    6.56  163.10
   3  -8  -8  305.52   62.78
   3  -8  -8  185.30   88.16
   2  -8  -8  160.14   42.91
   2  -8  -8  -81.89  111.65
   2  -8  -8  210.67   74.29
   1  -8  -8  -82.66  116.08
   1  -8  -8   32.12   52.20
   1  -8  -8   33.48   28.99
   0  -8  -8  -39.59  116.92
  -1  -8  -8   -7.00  123.97
  -2  -8  -8  -90.36  132.27
   8  -9  -8   -7.53  160.48
   8  -9  -8   -7.28   71.71
   7  -9  -8   40.99  161.76
   7  -9  -8    3.92   78.94
   6  -9  -8   33.11  176.63
   6  -9  -8  164.30   94.12
   5  -9  -8   85.66   76.25
   5  -9  -8  -88.79  118.43
   4  -9  -8   95.68  156.77
   4  -9  -8  141.35   80.28
   3  -9  -8   62.12   36.59
   3  -9  -8   39.23   61.67
   3  -9  -8   32.77  143.63
   2  -9  -8   -4.76   30.96
   2  -9  -8  -10.24  162.11
   2  -9  -8  -44.18   46.50
   1  -9  -8 -129.74  126.57
   0  -9  -8  115.18  181.36
  -1  -9  -8  -36.98  158.59
   6 -10  -8   53.46  168.38
   5 -10  -8    4.26  189.14
   5 -10  -8  102.07   83.56
   4 -10  -8  -82.12  159.71
   4 -10  -8   65.41   40.90
   4 -10  -8   19.02   64.39
   3 -10  -8   84.76   40.20
   3 -10  -8   -4.66  154.86
   3 -10  -8    9.72   62.63
   2 -10  -8  192.82   49.27
   2 -10  -8  -21.11   59.07
   2 -10  -8   19.29  182.15
   1 -10  -8 -177.42  139.92
   1 -15   9    7.26   30.74
   2 -15   9  -17.11   31.95
  -2 -14   9   56.84   37.46
  -1 -14   9  318.28   81.51
   0 -14   9   41.87   31.46
   1 -14   9  254.55   70.65
   2 -14   9  -22.17   28.49
   3 -14   9  137.31   49.74
   4 -14   9  111.71   46.37
   5 -14   9   45.47   39.56
   5 -14   9   12.17   18.08
   6 -14   9  141.13   61.37
   6 -14   9  211.09   44.08
  -4 -13   9   34.77   30.85
  -3 -13   9   40.71   30.63
  -2 -13   9  117.43   40.35
  -1 -13   9  150.62   46.75
   0 -13   9    0.67   25.25
   1 -13   9   34.52   28.51
   2 -13   9   43.65   35.29
   2 -13   9   87.08   23.58
   3 -13   9  252.45   87.86
   3 -13   9  346.87   70.32
   3 -13   9  375.47   69.03
   4 -13   9    8.27   30.75
   4 -13   9   63.05   13.82
   4 -13   9   34.96   19.88
   5 -13   9   -4.11   31.84
   5 -13   9   19.73   18.45
   5 -13   9   27.48   10.32
   6 -13   9  -13.05   15.70
   6 -13   9   16.26   32.44
   6 -13   9   20.92   10.19
   6 -13   9   15.29   17.51
   7 -13   9   56.12   24.04
   7 -13   9   55.18   24.09
   7 -13   9   -0.02   34.55
   7 -13   9   72.85   16.10
  -6 -12   9  -22.37  161.16
  -6 -12   9  -15.31   28.68
  -5 -12   9  259.77   69.61
  -5 -12   9  284.25  191.02
  -4 -12   9   51.07   30.07
  -3 -12   9   79.99   33.72
  -2 -12   9  264.76   56.13
  -2 -12   9  337.58   74.29
  -1 -12   9    6.60   12.77
  -1 -12   9   28.90   22.20
   0 -12   9  293.52   64.22
   0 -12   9  331.14   81.44
   0 -12   9  370.91   63.51
   1 -12   9   16.33   13.94
   1 -12   9   -4.72    9.17
   1 -12   9    1.25   22.93
   2 -12   9  381.12   73.84
   2 -12   9  363.76   74.57
   2 -12   9  456.75   95.64
   3 -12   9  532.03   96.83
   3 -12   9  551.87  119.83
   3 -12   9  469.78   96.46
   4 -12   9   22.48   17.60
   4 -12   9  -22.68   24.55
   4 -12   9    5.65   14.99
   5 -12   9   92.53   26.04
   5 -12   9  120.02   28.05
   5 -12   9   66.46   39.34
   6 -12   9   -1.43   16.56
   6 -12   9  -17.42   14.53
   6 -12   9  -12.64   27.32
   7 -12   9   99.42   30.16
   7 -12   9   79.34   41.30
   7 -12   9  128.18   31.10
   8 -12   9   54.80   22.06
   8 -12   9   77.33   38.16
   8 -12   9    4.14   18.97
  -7 -11   9  -18.65   28.05
  -6 -11   9   24.69   25.85
  -5 -11   9  220.28   57.68
  -5 -11   9  208.36   45.11
  -4 -11   9  318.49   54.05
  -4 -11   9  201.11   65.91
  -3 -11   9    6.01   13.52
  -3 -11   9   54.06  117.48
  -3 -11   9  -12.39   19.13
  -2 -11   9   59.72   25.79
  -2 -11   9   63.27   19.08
  -1 -11   9   74.49   31.49
  -1 -11   9   88.94   22.85
   0 -11   9   24.62   14.91
   0 -11   9   53.58   24.70
   0 -11   9   14.05   12.31
   1 -11   9   29.16   23.30
   1 -11   9   12.97   14.30
   1 -11   9    6.87   10.99
   2 -11   9  315.59   57.06
   2 -11   9  246.25   70.02
   2 -11   9  268.51   56.52
   3 -11   9   16.92   25.08
   3 -11   9   35.07   16.69
   3 -11   9   23.63   16.74
   4 -11   9   -2.25   12.60
   4 -11   9  -27.31   20.99
   4 -11   9    3.09   14.72
   5 -11   9   17.58   26.48
   5 -11   9    7.33   14.22
   5 -11   9   -6.70   14.82
   6 -11   9  260.21   51.24
   6 -11   9  230.20   49.59
   6 -11   9  203.37   63.04
   7 -11   9  193.62   56.64
   7 -11   9  200.41   43.43
   7 -11   9  172.02   43.64
   8 -11   9   14.23   19.33
   8 -11   9   21.96   19.18
   8 -11   9   36.09   31.61
   9 -11   9  166.40   40.93
   9 -11   9  118.57   38.18
   9 -11   9  171.79   51.47
  -8 -10   9  118.52   30.04
  -8 -10   9  -48.44   51.69
  -8 -10   9  148.35   45.17
  -7 -10   9  -19.94   24.03
  -7 -10   9   13.91   15.88
  -6 -10   9  334.11   87.28
  -6 -10   9  383.52   71.55
  -5 -10   9  285.02   49.93
  -5 -10   9  183.85   58.95
  -4 -10   9   10.66   19.62
  -4 -10   9   53.24   16.39
  -4 -10   9   26.33   14.75
  -3 -10   9   88.86   28.08
  -3 -10   9   83.17   19.71
  -3 -10   9   47.00   17.58
  -2 -10   9   34.01   22.17
  -2 -10   9   61.42   15.18
  -2 -10   9   26.07   15.69
  -1 -10   9  877.51  284.06
  -1 -10   9  723.69  165.18
  -1 -10   9  749.22  138.15
  -1 -10   9  741.65  135.83
   0 -10   9  122.21   26.17
   0 -10   9   99.74   25.70
   0 -10   9   93.31   33.97
   1 -10   9  425.73   79.49
   1 -10   9  399.73   96.58
   1 -10   9  423.67   80.52
   2 -10   9  234.48   71.56
   2 -10   9  361.43   61.21
   2 -10   9  302.42   59.43
   3 -10   9   70.27   22.11
   3 -10   9  101.70   23.78
   3 -10   9   69.65   31.43
   4 -10   9  118.94   30.61
   4 -10   9  102.68   30.37
   4 -10   9  160.86   41.04
   5 -10   9   18.75   15.18
   5 -10   9   26.44   23.29
   5 -10   9   27.18   16.44
   6 -10   9  441.57  106.06
   6 -10   9  453.24   87.02
   6 -10   9  446.20   89.16
   7 -10   9  307.49   62.22
   7 -10   9  303.12   60.54
   7 -10   9  252.40   73.04
   8 -10   9  -14.59   17.48
   8 -10   9   11.41   17.35
   8 -10   9  -18.76   24.59
   9 -10   9    5.99   28.03
   9 -10   9   -4.41   19.19
   9 -10   9    8.74   18.42
  10 -10   9   -8.67   21.69
   9   9  -9   -6.74   45.67
  -9  -9   9  -11.85   18.14
  -9  -9   9  -62.39   48.70
  -9  -9   9  -59.95   35.54
   8   9  -9  130.16   59.53
  -8  -9   9   58.03   38.20
  -8  -9   9    7.74   52.91
  -8  -9   9  121.45   29.52
   7   9  -9  -70.16   30.84
  -7  -9   9    6.97   16.25
  -7  -9   9  -18.15   39.01
  -7  -9   9  -25.84   21.16
   6   9  -9  193.53   59.60
  -6  -9   9  -19.51   46.99
  -6  -9   9  185.80   33.99
  -6  -9   9  134.99   33.28
  -6  -9   9  154.42   44.70
   5   9  -9  210.41   73.82
  -5  -9   9  214.98   47.34
  -5  -9   9  222.82   58.30
  -5  -9   9  269.83   48.17
   4   9  -9   35.89   30.17
  -4  -9   9    5.46    9.97
  -4  -9   9   11.15   12.66
  -4  -9   9  -38.39   14.55
  -3  -9   9   35.62   14.32
  -3  -9   9    6.60   18.78
  -3  -9   9   10.76   10.84
   2   9  -9  331.91   64.38
  -2  -9   9  246.88   56.76
  -2  -9   9  321.91   58.32
  -2  -9   9  297.39   71.52
   1   9  -9  515.38   90.09
  -1  -9   9  394.68   83.05
  -1  -9   9  449.41   82.73
  -1  -9   9  418.57  100.04
   0   9  -9   64.85   18.16
   0  -9   9   35.47   14.38
   0  -9   9   29.72   20.87
   0  -9   9   -0.41   63.50
   0  -9   9   35.75   14.90
  -1   9  -9  258.06   45.09
   1  -9   9  186.80   39.93
   1  -9   9  168.83   40.14
   1  -9   9  174.57   49.41
  -2   9  -9    5.79   14.75
   2  -9   9   18.80   19.89
   2  -9   9   16.96   13.53
   2  -9   9   -6.53   10.71
  -3   9  -9   83.87   26.05
   3  -9   9  111.43   33.48
   3  -9   9   93.55   25.39
   3  -9   9   84.79   24.35
   4  -9   9   -6.44   11.61
   4  -9   9    9.72   13.04
   4  -9   9   26.60   19.42
   5  -9   9  103.09   36.36
   5  -9   9  102.63   30.40
   5  -9   9  151.19   31.26
   6  -9   9  228.94   46.54
   6  -9   9  221.50   47.65
   6  -9   9  182.30   55.64
   7  -9   9  -16.73   21.97
   7  -9   9  -37.68   14.64
   7  -9   9  -11.98   15.98
   8  -9   9    4.23   26.87
   8  -9   9  104.23   24.64
   8  -9   9   25.49   20.23
   9  -9   9   -1.39   17.86
   9  -9   9   39.00   29.20
   9  -9   9   36.26   22.50
  10  -9   9  303.89   66.77
  10   8  -9   46.76   56.40
 -10  -8   9   32.06   21.89
   9   8  -9   98.28   65.79
  -9  -8   9  181.29   38.83
  -9  -8   9   34.83   59.76
  -9  -8   9  227.04   57.59
   8   8  -9   43.72   45.80
  -8  -8   9    9.87   43.51
  -8  -8   9   35.00   18.75
  -8  -8   9    5.92   27.44
   7   8  -9   49.12   43.31
  -7  -8   9   57.75   46.46
  -7  -8   9  101.85   38.00
  -7  -8   9   80.62   24.39
   6   8  -9  178.20   60.38
  -6  -8   9  173.51   45.52
  -6  -8   9  162.26   36.45
  -6  -8   9   90.91   54.79
   5   8  -9   56.12   23.07
   5   8  -9  100.26   42.57
  -5  -8   9  110.57   23.56
  -5  -8   9   74.30   30.82
  -5  -8   9  -15.07   39.54
  -5  -8   9   83.55   21.47
   4   8  -9  175.06   61.86
   4   8  -9  247.24   44.60
  -4  -8   9  140.08   48.69
  -4  -8   9  187.32   40.21
  -4  -8   9   79.98   53.13
  -4  -8   9  249.26   40.98
   3   8  -9  221.98   42.16
   3   8  -9  174.95   58.33
  -3  -8   9  173.92   37.69
  -3  -8   9  198.60   38.44
  -3  -8   9  142.26   44.97
   2   8  -9  889.12  236.54
   2   8  -9  935.49  177.78
  -2  -8   9  934.36  165.57
  -2  -8   9  872.49  196.22
  -2  -8   9  958.50  168.84
   1   8  -9  317.19   65.67
  -1  -8   9  292.44   73.17
  -1  -8   9  313.45   60.66
  -1  -8   9  337.18   61.90
   0   8  -9  486.62   94.92
   0  -8   9  442.89  105.21
   0  -8   9  503.66   87.42
   0  -8   9  456.39   88.68
  -1   8  -9  267.41   53.25
   1  -8   9  190.20   48.97
   1  -8   9  278.32   60.67
   1  -8   9  288.18   50.03
  -2   8  -9   26.44   14.31
   2  -8   9   43.85   14.99
   2  -8   9   17.45   18.08
   2  -8   9   15.91   13.23
  -3   8  -9  405.98   82.18
   3  -8   9  391.22   76.61
   3  -8   9  363.45   90.70
   3  -8   9  447.87   79.00
  -4   8  -9   67.22   24.51
   4  -8   9  113.62   30.86
   4  -8   9   75.46   24.21
   4  -8   9  152.86   26.71
  -5   8  -9  145.61   37.21
   5  -8   9  166.27   43.49
   5  -8   9  147.12   34.67
   5  -8   9  165.33   36.75
  -6   8  -9   -4.60   15.67
   6  -8   9   48.50   15.83
   6  -8   9   -3.87   14.63
   6  -8   9   31.81   21.72
  -7   8  -9   71.46   25.14
   7  -8   9   57.78   29.59
   7  -8   9   88.79   25.66
   7  -8   9   62.80   25.32
   8  -8   9   83.61   23.88
   8  -8   9   37.88   21.62
   8  -8   9   37.40   26.77
   9  -8   9   97.16   26.21
   9  -8   9   27.02   24.28
  10  -8   9  142.17   39.70
  10   7  -9   95.32   68.82
 -10  -7   9  117.74   34.28
 -10  -7   9  248.86   56.93
 -10  -7   9   65.28   59.20
   9   7  -9  130.81   80.08
  -9  -7   9  267.29   48.95
  -9  -7   9  200.25   70.70
  -9  -7   9  211.72   63.87
   8   7  -9   43.44   22.10
   8   7  -9   35.11   45.14
  -8  -7   9   56.44   43.68
  -8  -7   9   60.20   20.82
  -8  -7   9    6.26   30.61
   7   7  -9   55.58   41.63
   7   7  -9   12.35   16.29
  -7  -7   9    2.59   24.52
  -7  -7   9   12.71   16.38
  -7  -7   9   13.27   42.86
   6   7  -9   -6.15   13.15
   6   7  -9  -32.40   30.31
  -6  -7   9   18.56   24.40
  -6  -7   9  -13.91   30.17
  -6  -7   9   18.66   14.67
   5   7  -9  276.22   75.50
   5   7  -9  252.71   49.58
  -5  -7   9  144.80   59.06
  -5  -7   9  189.92   45.66
  -5  -7   9  247.41   58.89
   4   7  -9  104.67   49.49
   4   7  -9  168.92   33.53
  -4  -7   9  133.22   30.40
  -4  -7   9  180.44   31.63
  -4  -7   9   30.36   44.09
  -4  -7   9  120.52   39.01
   3   7  -9  113.20   22.94
   3   7  -9  115.24   37.54
  -3  -7   9   12.14   30.31
  -3  -7   9   45.06   18.19
  -3  -7   9   53.83   22.91
  -3  -7   9   55.65   18.27
   2   7  -9  221.01   58.64
   2   7  -9  358.32   84.21
  -2  -7   9  333.17   56.71
  -2  -7   9  262.33   66.13
  -2  -7   9  284.04   55.09
   1   7  -9  -21.77    9.45
   1   7  -9  -13.86   18.70
  -1  -7   9   43.50   12.46
  -1  -7   9   32.30   12.50
  -1  -7   9   37.70   15.38
   0   7  -9   -2.33   11.07
   0  -7   9   -8.03   10.46
   0  -7   9   13.69   13.29
   0  -7   9    0.58    9.93
  -1   7  -9   37.29   14.71
   1  -7   9   22.64   17.05
   1  -7   9   39.92   14.41
   1  -7   9   25.48   11.90
  -2   7  -9  316.67   64.19
   2  -7   9  318.60   71.55
   2  -7   9  295.69   61.31
   2  -7   9  306.69   59.81
  -3   7  -9   12.62   13.27
   3  -7   9   15.14   15.60
   3  -7   9   -2.66   12.24
   3  -7   9   -0.89   11.35
  -4   7  -9  113.85   33.31
   4  -7   9  141.76   38.03
   4  -7   9  153.52   34.02
   4  -7   9  176.71   34.37
  -5   7  -9   16.90   15.26
   5  -7   9   -4.32   14.91
   5  -7   9   19.24   14.25
   5  -7   9  -12.98   10.83
  -6   7  -9  261.54   53.55
   6  -7   9  203.30   50.84
   6  -7   9  329.43   61.89
   6  -7   9  202.26   49.65
  -7   7  -9  479.73   94.98
   7  -7   9  522.74  105.32
   7  -7   9  415.52   88.55
   7  -7   9  429.33   90.74
  -8   7  -9   19.85   22.21
   8  -7   9   51.17   20.60
   8  -7   9  111.54   28.41
   8  -7   9   35.40   21.04
  -9   7  -9  282.46   69.89
   9  -7   9  368.08   68.23
   9  -7   9  339.88   69.30
 -10   7  -9   46.43   27.58
  10  -7   9   75.82   27.00
  11  -7   9   56.39   27.84
  11   6  -9    2.61   59.81
  11   6  -9   64.97   24.67
 -11  -6   9  -56.79   45.45
 -11  -6   9  -10.74   37.07
  10   6  -9  186.28   52.38
  10   6  -9  247.18   91.37
 -10  -6   9  211.25   69.22
 -10  -6   9  333.33   71.46
   9   6  -9  275.93   82.66
   9   6  -9  177.33   45.09
  -9  -6   9  233.25   66.76
  -9  -6   9  156.53   54.63
   8   6  -9   20.11   44.43
   8   6  -9  -12.80   14.44
  -8  -6   9    4.33   23.51
  -8  -6   9   -4.11   15.49
  -8  -6   9   59.69   39.36
   7   6  -9    5.71   14.50
   7   6  -9    1.63   36.36
  -7  -6   9  -28.74   32.66
  -7  -6   9  -15.57   13.43
  -7  -6   9   78.49   27.64
   6   6  -9  252.49   56.67
   6   6  -9  238.71   85.75
  -6  -6   9  334.48   68.08
  -6  -6   9  258.84   53.06
  -6  -6   9  217.92   67.34
   5   6  -9  727.00  183.21
   5   6  -9  708.59  129.95
  -5  -6   9  744.68  144.99
  -5  -6   9  611.67  121.29
  -5  -6   9  456.97  138.05
   4   6  -9   -9.24   10.08
   4   6  -9   27.00   29.89
  -4  -6   9   26.15   17.45
  -4  -6   9   19.20   12.92
  -4  -6   9  -34.68   23.08
   3   6  -9  480.01  118.99
   3   6  -9  429.26   84.49
  -3  -6   9  138.32   87.34
  -3  -6   9  486.67   78.08
  -3  -6   9  460.32   79.69
  -3  -6   9  437.40   94.33
   2   6  -9    2.05   26.75
   2   6  -9   75.03   15.67
  -2  -6   9   44.39   13.94
  -2  -6   9   15.51   15.51
  -2  -6   9   -7.51   25.75
  -2  -6   9    8.37   11.75
   1   6  -9  436.38   80.04
   1   6  -9  436.39  108.75
  -1  -6   9  363.55   87.55
  -1  -6   9  379.17   73.88
  -1  -6   9  376.43   75.62
   0   6  -9  107.37   36.35
   0   6  -9  124.34   27.20
   0  -6   9  113.15   29.17
   0  -6   9   70.70   24.07
   0  -6   9  128.94   25.61
  -1   6  -9  260.73   57.98
   1  -6   9  312.38   56.27
   1  -6   9  281.99   64.04
   1  -6   9  269.58   54.21
  -2   6  -9 1316.73  249.74
   2  -6   9 1307.52  275.48
   2  -6   9 1336.44  238.93
   2  -6   9 1267.74  233.30
  -3   6  -9  466.02   82.16
   3  -6   9  331.89   76.77
   3  -6   9  396.32   79.90
   3  -6   9  454.46   92.15
  -4   6  -9  166.76   36.02
   4  -6   9  153.08   35.92
   4  -6   9  171.66   40.44
   4  -6   9  136.75   33.82
  -5   6  -9   -2.85   13.71
   5  -6   9  -10.53   12.86
   5  -6   9   39.39   15.24
   5  -6   9   -4.08   13.62
  -6   6  -9  217.55   51.41
   6  -6   9  229.51   49.61
   6  -6   9  218.34   55.90
   6  -6   9  277.28   49.69
  -7   6  -9  436.05   81.74
   7  -6   9  384.86   88.95
   7  -6   9  451.91   80.59
   7  -6   9  318.00   75.91
  -8   6  -9  -13.02   14.15
   8  -6   9    9.69   15.07
   8  -6   9  -14.04   13.09
  -9   6  -9    7.16   18.82
   9  -6   9   11.11   17.92
   9  -6   9   53.50   20.95
 -10   6  -9    4.57   22.54
  10  -6   9   36.10   23.29
 -11   6  -9  -36.16   21.87
  11  -6   9   77.88   27.06
  11   5  -9   99.04   30.29
  11   5  -9   45.93   65.36
 -11  -5   9   81.99   48.38
  10   5  -9   46.20   63.85
  10   5  -9   87.34   27.68
 -10  -5   9   76.40   45.20
   9   5  -9    5.48   16.33
   9   5  -9  -55.11   40.27
  -9  -5   9   31.64   35.14
   8   5  -9  113.84   55.91
   8   5  -9   88.44   24.20
  -8  -5   9    7.43   34.36
   7   5  -9   33.68   15.29
   7   5  -9   39.25   40.60
  -7  -5   9   -4.44   15.26
  -7  -5   9   34.66  104.87
  -7  -5   9   11.97   27.49
   6   5  -9  244.14   39.52
   6   5  -9  233.88   69.75
  -6  -5   9  141.86   35.09
  -6  -5   9  129.05  142.62
  -6  -5   9   64.61   43.74
   5   5  -9  354.76   69.22
   5   5  -9  433.92  104.95
  -5  -5   9  408.59   66.34
  -5  -5   9  154.19   72.77
   4   5  -9   -5.37   10.03
   4   5  -9   25.53   30.29
  -4  -5   9  -13.91   23.38
  -4  -5   9   41.40   17.47
  -4  -5   9  -19.35   10.27
   3   5  -9   55.29   19.42
   3   5  -9   94.72   41.16
  -3  -5   9   58.58   29.83
  -3  -5   9   68.19   19.14
  -3  -5   9   96.35   25.29
  -3  -5   9   83.81   20.24
   2   5  -9  412.48  112.43
   2   5  -9  409.89   78.83
  -2  -5   9  360.75   87.23
  -2  -5   9  422.18   74.68
  -2  -5   9  449.87   74.92
  -2  -5   9  241.47   84.18
   1   5  -9   15.71   12.80
   1   5  -9   57.43   30.74
  -1  -5   9   37.62   15.83
  -1  -5   9   54.45   15.13
  -1  -5   9   37.94   12.48
   0   5  -9    3.20   10.94
   0   5  -9   14.81   21.68
   0  -5   9   14.81   11.15
   0  -5   9   25.55   11.82
   0  -5   9    9.21   10.65
  -1   5  -9  307.87   56.43
   1  -5   9  307.97   52.92
   1  -5   9  260.02   53.36
   1  -5   9  226.64   60.10
  -2   5  -9   70.42   20.80
   2  -5   9   72.11   19.73
   2  -5   9  105.03   23.02
   2  -5   9   81.16   23.18
  -3   5  -9   33.49   14.50
   3  -5   9   42.72   17.72
   3  -5   9   33.40   14.25
   3  -5   9   48.67   16.77
  -4   5  -9    6.41   12.78
   4  -5   9   18.89   13.28
   4  -5   9    3.14   12.14
   4  -5   9   17.40   14.34
  -5   5  -9  273.62   64.28
  -5   5  -9  659.52  174.98
   5  -5   9  307.89   61.79
   5  -5   9  293.69   70.52
   5  -5   9  274.26   62.93
  -6   5  -9  575.90  122.77
   6  -5   9  659.16  134.70
   6  -5   9  630.81  115.37
   6  -5   9  635.05  118.30
  -7   5  -9   -0.03   15.27
   7  -5   9  -25.83   10.32
   7  -5   9   -8.48   14.91
  -8   5  -9  125.02   32.26
   8  -5   9   94.04   28.59
   8  -5   9  120.68   32.21
  -9   5  -9  -15.59   17.81
   9  -5   9    0.54   16.06
   9  -5   9   19.96   18.08
 -10   5  -9  119.02   36.86
  10  -5   9  140.50   37.44
 -11   5  -9  134.60   36.32
  11  -5   9   93.15   33.01
  11   4  -9   55.82   69.93
  11   4  -9   45.62   22.60
  10   4  -9  115.02   66.18
  10   4  -9   98.90   24.10
 -10  -4   9  -52.50   25.10
   9   4  -9   62.74   22.42
   9   4  -9   22.98   55.72
  -9  -4   9   31.64   32.56
   8   4  -9   15.44   48.49
   8   4  -9   45.07   17.88
  -8  -4   9   29.89   27.87
   7   4  -9  231.50   79.69
   7   4  -9  214.69   47.44
  -7  -4   9  190.80   55.02
   6   4  -9  389.85  123.38
   6   4  -9  403.65   83.63
  -6  -4   9  442.46   80.03
  -6  -4   9  409.97   91.86
   5   4  -9   -8.36   10.48
   5   4  -9   16.07   37.36
  -5  -4   9   11.04   24.81
  -5  -4   9    2.26   12.35
   4   4  -9  309.17   63.10
   4   4  -9  272.34   93.64
  -4  -4   9  328.89   60.74
  -4  -4   9  310.24   72.47
   3   4  -9   22.70   31.68
   3   4  -9   17.92   11.52
  -3  -4   9   -7.13   21.99
  -3  -4   9    4.89   11.47
  -3  -4   9   12.40   10.09
   2   4  -9  899.91  258.04
   2   4  -9 1011.73  190.42
  -2  -4   9  621.55  195.47
  -2  -4   9 1022.69  182.50
  -2  -4   9 1082.03  210.68
  -2  -4   9 1099.79  178.57
   1   4  -9 1671.98  281.04
   1   4  -9 1330.88  371.20
   1   4  -9 1451.97  276.10
  -1  -4   9 1424.00  264.14
  -1  -4   9 1438.27  304.73
  -1  -4   9 1457.39  258.24
   0   4  -9   33.82   25.54
   0   4  -9    5.99    9.03
   0   4  -9    5.57   21.00
   0  -4   9   -6.40   10.22
   0  -4   9  -16.47    9.65
   0  -4   9   -5.80    9.07
  -1   4  -9  144.05   50.64
  -1   4  -9  165.93   35.25
  -1   4  -9  118.46  160.41
  -1   4  -9  137.18   45.45
   1  -4   9  157.92   34.56
   1  -4   9  172.06   37.97
   1  -4   9  180.68   34.03
  -2   4  -9    9.57    9.97
  -2   4  -9  -43.13  167.97
   2  -4   9    9.12   10.68
   2  -4   9  -15.69    8.72
   2  -4   9    4.01   11.62
  -3   4  -9  300.92   70.83
   3  -4   9  338.02   67.49
   3  -4   9  390.50   70.58
   3  -4   9  395.10   77.40
  -4   4  -9  163.13   72.06
  -4   4  -9   -0.77   10.79
   4  -4   9   35.80   12.12
   4  -4   9    0.32   12.44
   4  -4   9  -21.67   11.14
  -5   4  -9  362.29  169.94
  -5   4  -9  293.47   68.73
   5  -4   9  347.33   67.92
   5  -4   9  370.39   75.04
   5  -4   9  327.32   66.14
  -6   4  -9  693.42  126.78
   6  -4   9  552.08  122.75
   6  -4   9  676.49  119.05
  -7   4  -9   -3.37   13.64
   7  -4   9   -0.65   14.13
   7  -4   9   27.27   16.29
  -8   4  -9   -7.45   17.27
   8  -4   9   -0.99   14.70
   8  -4   9    1.18   15.46
  -9   4  -9   47.53   23.16
   9  -4   9   76.18   22.31
   9  -4   9   20.91   21.86
 -10   4  -9  226.21   54.01
  10  -4   9  229.14   53.66
  12   3  -9   55.33   66.71
  12   3  -9  -30.56   16.36
  11   3  -9   -7.11   16.94
  11   3  -9   48.73   68.37
  10   3  -9   71.78   64.88
  10   3  -9   62.81   23.23
   9   3  -9  402.31   85.29
   9   3  -9  445.59  134.31
   8   3  -9   24.40   51.39
   8   3  -9   53.55   19.27
  -8  -3   9   21.88   21.51
   7   3  -9  143.71   29.72
   7   3  -9  133.58   64.85
  -7  -3   9   64.19   32.11
   6   3  -9   81.23   22.88
   6   3  -9   71.86   49.67
  -6  -3   9   57.72   30.35
  -6  -3   9  115.76   25.17
   5   3  -9   -7.80    9.77
   5   3  -9  -40.53   33.54
  -5  -3   9   29.45   21.08
  -5  -3   9    8.62   12.90
   4   3  -9   44.87   16.44
   4   3  -9   59.75   16.30
   4   3  -9   84.86   45.66
  -4  -3   9   63.46   18.70
  -4  -3   9   54.43   27.89
   3   3  -9   23.54   41.51
   3   3  -9  108.37   21.39
   3   3  -9   64.12   20.21
  -3  -3   9  106.36   21.45
  -3  -3   9   69.08   20.54
  -3  -3   9  120.83   33.28
   2   3  -9  150.52   74.34
   2   3  -9  254.42   48.99
   2   3  -9  376.61   52.19
  -2  -3   9  214.91   46.29
  -2  -3   9  195.23   47.00
  -2  -3   9  218.33   57.34
   1   3  -9   95.64   20.62
   1   3  -9   97.35   24.53
   1   3  -9  178.15   49.14
  -1  -3   9    4.72   26.73
  -1  -3   9   76.96   21.00
  -1  -3   9   82.46   19.81
   0   3  -9   69.29   24.07
   0   3  -9   64.35   33.75
   0   3  -9   51.95   13.26
   0  -3   9   28.90   13.39
   0  -3   9   39.20   14.84
   0  -3   9   26.03   12.66
  -1   3  -9   49.08   13.18
  -1   3  -9  133.90  108.42
  -1   3  -9   58.00   30.04
  -1   3  -9   27.94   23.97
   1  -3   9   27.10   11.79
   1  -3   9   24.18   12.50
   1  -3   9    9.99   13.10
  -2   3  -9  330.30   97.90
  -2   3  -9  182.90  369.96
  -2   3  -9  509.10   92.59
   2  -3   9  499.22   89.92
   2  -3   9  502.54   87.37
   2  -3   9  548.22  101.28
  -3   3  -9  118.38   55.22
  -3   3  -9  -48.53  249.92
  -3   3  -9  221.77   49.06
   3  -3   9  265.28   49.36
   3  -3   9  281.83   52.42
   3  -3   9  278.94   47.80
  -4   3  -9    2.01   10.87
  -4   3  -9  296.00  319.76
  -4   3  -9   -6.26   56.62
   4  -3   9   -3.19    8.85
   4  -3   9   37.54   12.44
   4  -3   9   47.58   15.78
  -5   3  -9  334.46   63.49
  -5   3  -9  151.47  153.04
   5  -3   9  331.24   62.28
   5  -3   9  392.82   61.83
  -7   3  -9 1470.85 1162.15
  -8   3  -9 1194.41 1056.44
  -9   3  -9  190.95   55.56
  -9   3  -9 1479.10  668.95
   9  -3   9  264.17   55.32
   9  -3   9  275.91   53.83
  12   2  -9   80.72   76.34
  12   2  -9  -22.44   17.27
  12   2  -9   86.99  171.41
  11   2  -9  -14.14   15.63
  11   2  -9   69.61   71.87
  10   2  -9  154.71   95.33
  10   2  -9  241.94   50.87
   9   2  -9  169.26   40.02
   9   2  -9  172.89   79.84
   8   2  -9  -44.87   47.18
   8   2  -9   31.15   15.34
   7   2  -9  262.28   54.87
   7   2  -9  249.13   95.09
   6   2  -9   92.63   49.60
   6   2  -9   43.80   14.25
  -6  -2   9  -17.72   16.00
   5   2  -9  409.30  111.44
   5   2  -9  380.88   68.16
   5   2  -9  307.93   68.37
  -5  -2   9  315.62   65.68
  -5  -2   9  341.72   73.71
   4   2  -9    0.85    9.01
   4   2  -9   -5.09   32.61
   4   2  -9   -2.57    7.99
  -4  -2   9  -24.70   15.76
  -4  -2   9   -2.32   10.70
   3   2  -9  846.58  158.91
   3   2  -9  805.67  225.46
   3   2  -9  841.39  158.80
  -3  -2   9  801.10  149.45
   2   2  -9 1139.68  266.19
   2   2  -9 1019.91  191.97
   2   2  -9  916.74  191.74
  -2  -2   9 1009.35  180.29
  -2  -2   9 1075.91  184.87
   1   2  -9   35.82   13.46
   1   2  -9   16.67   10.74
   1   2  -9  104.27   42.35
  -1  -2   9   54.07   14.37
  -1  -2   9   66.97   14.12
  -1  -2   9    2.35   21.55
   0   2  -9  114.81   46.35
   0   2  -9   96.32   21.50
   0   2  -9  123.93   26.61
   0  -2   9   75.81   21.80
   0  -2   9   90.19   22.87
  -1   2  -9  163.35   46.44
  -1   2  -9  304.75  120.53
  -1   2  -9   43.75  117.76
  -1   2  -9   81.71   22.24
  -1   2  -9  122.60   31.61
   1  -2   9   90.75   23.99
   1  -2   9   91.54   22.88
   1  -2   9  110.67   24.49
  -2   2  -9  965.39  187.05
  -2   2  -9  795.85  192.34
   2  -2   9 1042.29  205.59
   2  -2   9  969.35  175.51
   2  -2   9  988.33  179.92
  -3   2  -9   28.49  280.00
  -3   2  -9  262.44  160.91
  -3   2  -9  253.10   59.17
   3  -2   9  308.33   63.25
   3  -2   9  361.86   60.38
   3  -2   9  370.89   58.20
  -4   2  -9   44.04   89.18
  -4   2  -9   24.61   35.76
  -4   2  -9  148.10   28.52
  -4   2  -9 -149.67  262.61
   4  -2   9  175.72   31.10
   4  -2   9  151.79   28.47
  -5   2  -9   16.35   14.51
  -5   2  -9  361.88  315.05
  -5   2  -9  -10.98   62.09
   5  -2   9   21.24   15.43
   5  -2   9   54.74   15.71
  -6   2  -9   38.90   17.53
  -6   2  -9  388.11  442.52
   6  -2   9   32.12   15.81
   6  -2   9   29.33   16.97
  -7   2  -9  169.83   45.56
  -7   2  -9  136.07  449.11
   7  -2   9  237.72   45.19
   7  -2   9  241.54   47.55
  -8   2  -9  116.20  496.63
  -8   2  -9   22.53   17.07
   8  -2   9   -2.26   17.06
   8  -2   9   13.94   15.51
  -9   2  -9  147.63   39.39
  -9   2  -9 -148.00  609.63
   9  -2   9  198.44   41.83
 -10   2  -9 -432.19  659.73
 -10   2  -9  -17.04   18.77
  10  -2   9   11.70   20.62
  12   1  -9   61.64   24.94
  12   1  -9  109.62   89.11
  12   1  -9  143.91  163.20
  11   1  -9  119.07  148.50
  11   1  -9    2.19   65.39
  11   1  -9   40.58   20.68
  10   1  -9  588.45  187.85
  10   1  -9  534.34  120.83
  10   1  -9 1399.17  379.78
   9   1  -9  447.88  117.92
   9   1  -9  225.21   59.04
   9   1  -9  738.44  246.58
   8   1  -9   28.35   14.73
   8   1  -9   42.70   59.27
   7   1  -9   12.45   11.86
   7   1  -9   -3.68   42.67
   7   1  -9  -12.87   10.07
   6   1  -9  262.95   47.17
   6   1  -9  227.10   82.34
   6   1  -9  193.96   46.01
   5   1  -9  398.64   74.75
   5   1  -9  284.91  114.68
   5   1  -9  404.56   74.71
  -5  -1   9  453.61   80.20
  -5  -1   9  306.39   71.46
   4   1  -9   -6.91   37.41
   4   1  -9   41.36   11.76
   4   1  -9   29.02   11.49
  -4  -1   9   81.56   20.61
  -4  -1   9   22.13   12.21
   3   1  -9  271.44   54.29
   3   1  -9  332.18   92.61
   3   1  -9  270.30   54.10
  -3  -1   9  301.51   60.98
  -3  -1   9  269.85   53.57
   2   1  -9  163.52  112.68
   2   1  -9   78.73   46.30
   2   1  -9   31.86   10.34
   2   1  -9   29.18    9.85
  -2  -1   9   42.69   14.04
  -2  -1   9   29.99   13.35
  -2  -1   9   37.36   19.22
   1   1  -9  197.88   69.89
   1   1  -9  172.40   37.50
   1   1  -9  211.74   37.95
   1   1  -9  580.52  166.58
  -1  -1   9  165.37   38.28
  -1  -1   9  168.14   37.33
   0   1  -9   34.00    7.82
   0   1  -9   -0.57    7.69
   0   1  -9   35.94   34.97
   0   1  -9   17.51   71.01
   0  -1   9    7.16   21.38
   0  -1   9   -4.06    8.98
   0  -1   9   -2.94   10.09
  -1   1  -9  344.33   61.16
  -1   1  -9  343.49   95.43
  -1   1  -9  323.64   63.54
  -1   1  -9  477.27  187.11
   1  -1   9  350.54   60.09
   1  -1   9  276.64   60.86
   1  -1   9  264.60   67.15
  -2   1  -9  200.03   45.16
  -2   1  -9  174.93   39.55
  -2   1  -9   78.31  125.04
  -2   1  -9   28.86  196.31
   2  -1   9  220.65   42.18
   2  -1   9  207.30   41.17
   2  -1   9  214.41   39.78
  -3   1  -9  -11.87   19.82
  -3   1  -9  -38.76   71.46
  -3   1  -9   22.99   10.12
  -3   1  -9 -208.69  154.68
   3  -1   9    6.52   11.22
   3  -1   9   -2.77   10.59
  -4   1  -9   46.76   79.65
  -4   1  -9   80.10   19.34
  -4   1  -9  -33.34  241.88
  -4   1  -9   -9.62   25.00
   4  -1   9  106.71   22.51
   4  -1   9   82.10   19.42
  -5   1  -9 -251.21  276.78
  -5   1  -9   18.74   71.39
  -5   1  -9   63.16   18.33
  -5   1  -9   -9.60   26.63
   5  -1   9  112.98   20.38
   5  -1   9   75.11   20.99
  -6   1  -9  288.26   69.20
  -6   1  -9 -243.71  432.76
   6  -1   9  485.59   72.32
   6  -1   9  403.54   67.31
  -7   1  -9   83.83   23.74
  -7   1  -9 -189.58  352.35
   7  -1   9  102.15   26.04
   7  -1   9   76.77   22.57
  -8   1  -9 -369.72  466.87
  -8   1  -9   58.40   22.62
   8  -1   9   95.74   25.65
   8  -1   9   70.05   23.30
  -9   1  -9   21.23   19.04
   9  -1   9   57.58   22.61
 -10   1  -9 -485.04  599.68
 -10   1  -9  -20.85   16.59
  10  -1   9  -24.00   17.80
  12   0  -9   -5.00   16.23
  12   0  -9   52.40   82.96
  12   0  -9   44.01  133.96
  11   0  -9   63.65   71.52
  11   0  -9   76.78   23.31
  11   0  -9   39.31  144.18
  10   0  -9   87.91   68.37
  10   0  -9  148.02  158.47
  10   0  -9   71.66   22.83
   9   0  -9  -25.40   10.58
   9   0  -9   26.70   56.31
   9   0  -9    8.19  130.98
   8   0  -9    3.38   11.21
   8   0  -9   73.76  132.17
   8   0  -9   78.48   67.24
   8   0  -9   22.36   11.13
   7   0  -9  406.05  173.27
   7   0  -9  151.63   30.21
   7   0  -9  123.08   29.28
   7   0  -9   35.73   63.83
   6   0  -9  674.39  120.80
   6   0  -9  598.69  120.52
   6   0  -9  551.32  181.01
   5   0  -9  161.87   79.78
   5   0  -9  204.84   44.81
   5   0  -9  254.09   45.04
   5   0  -9  790.42  229.63
  -5   0   9  203.96   45.49
   4   0  -9   52.34   11.67
   4   0  -9   -5.61   42.19
   4   0  -9   48.77   11.75
   4   0  -9  154.83  128.99
  -4   0   9   58.24   16.37
   3   0  -9  -42.84   37.81
   3   0  -9  -48.28   82.40
  -3   0   9  -33.06    7.94
   2   0  -9  666.89  188.89
   2   0  -9 1415.43  368.70
  -2   0   9  656.47  121.59
  -2   0   9  616.09  124.46
   1   0  -9  626.89  231.09
   1   0  -9  552.24  120.82
  -1   0   9  344.20   69.46
  -1   0   9  332.78   71.12
   0   0  -9  175.90   65.17
   0   0  -9  288.67  140.12
   0   0   9  141.28   32.80
   0   0   9  168.65   34.63
  -1   0  -9  988.59  272.22
  -1   0  -9  686.93  482.20
   1   0   9 1075.09  191.57
   1   0   9 1146.22  186.79
  -2   0  -9  189.19  187.09
  -2   0  -9  347.46   66.61
  -2   0  -9  367.50   67.17
   2   0   9  322.42   67.52
   2   0   9  353.67   73.26
   2   0   9  335.71   65.54
  -3   0  -9   72.25  102.54
  -3   0  -9  104.86   22.41
  -3   0  -9 -165.61  186.54
  -3   0  -9  117.30   26.63
   3   0   9  122.71   24.80
   3   0   9  119.20   26.07
  -4   0  -9   18.35   21.40
  -4   0  -9   29.18   11.03
  -4   0  -9   75.85   87.34
  -4   0  -9 -300.64  226.32
   4   0   9   27.92   13.65
   4   0   9   34.09   14.98
  -5   0  -9  -28.78   76.68
  -5   0  -9   60.31   30.46
  -5   0  -9  110.59   21.45
   5   0   9   90.75   23.11
   5   0   9   89.56   22.07
  -6   0  -9  309.67   57.72
  -6   0  -9  133.53   63.48
  -6   0  -9 -235.29  341.96
   6   0   9  333.09   59.43
   6   0   9  399.76   57.94
  -7   0  -9 -195.37  339.14
  -7   0  -9    5.32   12.73
   7   0   9   15.71   14.34
   7   0   9   28.27   16.19
  -8   0  -9   57.25   20.07
  -8   0  -9 -380.37  355.37
   8   0   9   91.77   24.21
  -9   0  -9   29.86   17.65
   9   0   9   -1.85   17.72
  10   0   9  163.53   42.56
  12  -1  -9   10.37   14.38
  12  -1  -9  -29.61   80.18
  12  -1  -9   40.67  145.65
  11  -1  -9  126.83   29.40
  11  -1  -9   26.16  153.64
  11  -1  -9  186.57   96.33
  10  -1  -9   24.20   12.31
  10  -1  -9   -1.78   70.18
  10  -1  -9   12.67  132.33
   9  -1  -9  122.41   26.12
   9  -1  -9  116.82   25.83
   9  -1  -9  130.42   80.18
   9  -1  -9   22.57  135.48
   8  -1  -9   86.47   19.69
   8  -1  -9  179.57  149.46
   8  -1  -9   80.17   19.24
   8  -1  -9   91.67   64.16
   7  -1  -9  479.80  208.04
   7  -1  -9  176.46   92.15
   7  -1  -9  232.43   43.40
   7  -1  -9  211.80   43.21
   6  -1  -9 1235.23  419.27
   6  -1  -9  567.18  215.26
   5  -1  -9   42.44   99.99
   5  -1  -9   26.05   53.53
  -5   1   9    6.18   12.57
   4  -1  -9  140.71  124.03
   4  -1  -9   65.53   57.54
  -4   1   9   48.58   17.05
   3  -1  -9   26.09   44.28
   3  -1  -9  103.10  116.41
  -3   1   9   18.44   12.82
  -3   1   9   31.15   12.53
   2  -1  -9  920.60  206.73
   2  -1  -9  747.58  364.26
  -2   1   9  707.26  129.55
  -2   1   9  688.48  133.21
   1  -1  -9  216.86   82.33
   1  -1  -9  223.15  165.17
  -1   1   9  228.31   46.26
  -1   1   9  228.43   44.17
   0  -1  -9  238.74   70.33
   0  -1  -9   32.56  130.46
   0   1   9  149.06   33.91
   0   1   9  166.24   32.18
  -1  -1  -9   91.22  136.08
  -1  -1  -9  180.96   70.79
   1   1   9  209.81   40.02
   1   1   9  225.15   41.99
  -2  -1  -9  -12.52  167.42
  -2  -1  -9  -14.91   79.71
   2   1   9   24.98   11.02
   2   1   9   -1.32   11.83
  -3  -1  -9   33.60   83.01
  -3  -1  -9 -202.57  174.00
   3   1   9   11.53   10.21
   3   1   9    8.89   11.42
  -4  -1  -9 -202.43  196.79
  -4  -1  -9  -13.72   85.02
   4   1   9   56.25   14.55
  -5  -1  -9  542.52  106.21
  -5  -1  -9  518.60  104.53
   5   1   9  643.46  104.10
   5   1   9  564.19  100.95
  -6  -1  -9 -163.53  239.49
  -6  -1  -9   11.57   22.08
  -6  -1  -9   51.87   13.99
   6   1   9   78.08   19.74
   6   1   9   44.32   17.32
  -7  -1  -9 -389.20  273.86
  -7  -1  -9   18.79   27.77
  -7  -1  -9   80.42   17.01
   7   1   9   10.22   19.96
   7   1   9   97.35   21.33
  -8  -1  -9   -0.71   12.64
  -8  -1  -9 -540.14  336.19
   8   1   9    9.99   16.32
  -9  -1  -9   70.58   21.40
   9   1   9   29.90   21.50
  12  -2  -9   -8.96    7.34
  12  -2  -9   -3.26   73.65
  12  -2  -9  -55.53  143.29
  12  -2  -9    9.29    8.40
  11  -2  -9   79.21  176.56
  11  -2  -9   -3.46   64.80
  10  -2  -9  192.68  191.45
  10  -2  -9   39.35   78.76
   9  -2  -9   72.20  139.14
   9  -2  -9   -4.76   71.68
   8  -2  -9   28.93  129.68
   8  -2  -9  107.31   64.05
   7  -2  -9   28.42  135.58
   7  -2  -9   82.90   69.67
   6  -2  -9   21.70  109.82
   6  -2  -9   -3.08   54.93
   5  -2  -9  166.55   84.19
   5  -2  -9  172.71  167.63
  -5   2   9  210.99   41.30
   4  -2  -9  -31.87   49.23
   4  -2  -9  -40.14  100.79
  -4   2   9    2.53   10.45
   3  -2  -9  301.51  246.05
   3  -2  -9  536.44  143.22
  -3   2   9  455.46   82.11
  -3   2   9  444.61   85.60
   2  -2  -9  380.23  296.64
   2  -2  -9  486.78  160.99
  -2   2   9  625.11  103.95
  -2   2   9  536.10  100.74
   1  -2  -9  -32.64  103.00
   1  -2  -9   64.63   44.11
  -1   2   9   12.94   10.09
  -1   2   9  -10.12   10.11
   0  -2  -9  116.26   55.07
   0  -2  -9   92.85  125.01
   0   2   9  134.86   24.77
   0   2   9   85.57   24.92
  -1  -2  -9   32.67   41.38
  -1  -2  -9   21.12   96.15
   1   2   9   15.57   10.41
   1   2   9   22.62   12.57
  -2  -2  -9  -91.66  112.07
   2   2   9  206.51   37.96
   2   2   9  239.02   36.57
  -3  -2  -9  -60.45  205.48
  -3  -2  -9  -59.70   87.45
   3   2   9   35.33   14.13
   3   2   9   23.64   11.11
  -4  -2  -9   -4.95   95.37
  -4  -2  -9 -178.17  207.35
   4   2   9  148.98   27.56
   4   2   9  133.42   25.14
  -5  -2  -9    1.84   95.52
  -5  -2  -9    8.44  217.35
   5   2   9   59.64   21.25
   5   2   9  112.63   21.62
  -6  -2  -9  -95.02  247.03
   6   2   9   -3.82   13.60
   6   2   9    4.32   11.45
  -7  -2  -9   33.52  298.21
   7   2   9  228.89   45.46
  -8  -2  -9 -447.85  304.82
   8   2   9   35.05   18.54
  -9  -2  -9 -368.71  363.34
   9   2   9  144.42   33.27
  12  -3  -9  -14.93  167.77
  12  -3  -9   26.58   92.05
  11  -3  -9   77.13  184.38
  11  -3  -9   97.43   95.32
  10  -3  -9  211.54  103.22
  10  -3  -9  248.13  230.77
   9  -3  -9  279.84  114.07
   9  -3  -9  211.99  229.42
   8  -3  -9   69.92  167.60
   8  -3  -9    4.15   57.98
   7  -3  -9  317.95  111.80
   7  -3  -9  213.67  205.01
   6  -3  -9   98.74   59.63
   6  -3  -9  -59.06  121.78
  -6   3   9    2.01   12.37
   5  -3  -9   69.23  151.45
   5  -3  -9  164.32   78.32
  -5   3   9  164.94   33.69
   4  -3  -9   -3.55  136.93
   4  -3  -9  -23.14   51.15
  -4   3   9   43.21   13.89
   3  -3  -9  118.00   85.92
   3  -3  -9  149.89  179.76
  -3   3   9  248.34   45.79
  -3   3   9  257.12   48.12
   2  -3  -9  395.15  124.91
   2  -3  -9  288.01  241.98
  -2   3   9  432.23   74.47
  -2   3   9  378.61   76.65
   1  -3  -9    3.59   97.51
   1  -3  -9   40.52   45.07
  -1   3   9   12.85    9.77
  -1   3   9   -1.48   10.17
   0  -3  -9  -50.55  101.99
   0  -3  -9   16.71   47.97
   0   3   9   77.34   18.39
   0   3   9   65.00   16.10
  -1  -3  -9   72.55  159.15
  -1  -3  -9  305.54   95.44
   1   3   9  298.02   51.94
   1   3   9  287.51   54.37
  -2  -3  -9    2.47  127.49
   2   3   9  198.14   38.84
   2   3   9  207.20   37.10
  -3  -3  -9  -12.88  114.92
   3   3   9  115.79   29.88
   3   3   9  177.04   29.24
  -4  -3  -9   -9.00  105.58
  -4  -3  -9  -34.18  214.36
   4   3   9  180.29   28.40
   4   3   9   90.57   23.87
  -5  -3  -9   -4.87   91.67
  -5  -3  -9 -123.43  221.09
   5   3   9    1.79   13.62
   5   3   9  -13.17    9.74
  -6  -3  -9  -69.04  249.03
   6   3   9  124.10   28.85
  -7  -3  -9 -259.55  266.35
   7   3   9   41.26   17.96
  -8  -3  -9 -409.00  298.30
   8   3   9    1.92   16.43
  11  -4  -9 -162.23  142.49
  11  -4  -9  147.11   92.37
  10  -4  -9  -74.54  162.68
  10  -4  -9  123.48   95.33
   9  -4  -9   49.37  168.29
   9  -4  -9  -14.01   69.92
   8  -4  -9  -11.97   60.51
   8  -4  -9  136.81  164.79
   7  -4  -9   75.95   65.87
   7  -4  -9  -21.41  145.71
   6  -4  -9  244.27  107.75
   6  -4  -9   94.34  189.78
  -6   4   9  327.49   56.14
   5  -4  -9   66.45   67.00
   5  -4  -9  -35.45  127.01
  -5   4   9   36.69   14.56
   4  -4  -9  169.34   87.08
   4  -4  -9   53.92  170.79
  -4   4   9  260.16   45.01
   3  -4  -9    5.17   61.15
   3  -4  -9   95.43  142.72
  -3   4   9  165.23   31.15
  -3   4   9  179.51   33.40
   2  -4  -9   37.12  124.86
   2  -4  -9  -16.67   54.02
  -2   4   9   66.45   17.69
  -2   4   9   59.94   15.68
   1  -4  -9  -76.96   87.29
   1  -4  -9  -29.47   47.74
  -1   4   9   43.68   12.35
  -1   4   9   29.15   13.26
   0  -4  -9  -40.17   36.37
   0  -4  -9   31.33  111.24
   0   4   9  -16.29   10.75
   0   4   9   10.37    8.92
  -1  -4  -9   30.02  168.84
  -1  -4  -9  240.88   95.30
   1   4   9  338.24   59.20
   1   4   9  343.68   56.23
  -2  -4  -9   85.78  215.27
   2   4   9  491.64   80.32
   2   4   9  439.49   75.76
  -3  -4  -9   26.09  121.50
   3   4   9  121.36   27.09
  -4  -4  -9   62.62  123.14
   4   4   9    2.79   12.77
  -5  -4  -9   64.74  269.68
   5   4   9   44.88   18.27
  -6  -4  -9 -121.29  301.18
   6   4   9  226.61   41.85
  -7  -4  -9 -397.43  277.13
  11  -5  -9    1.40  168.55
  11  -5  -9  210.06  112.75
  10  -5  -9   50.79   88.16
  10  -5  -9  -51.60  158.50
   9  -5  -9   57.18   81.29
   9  -5  -9 -126.26  159.60
   8  -5  -9  -65.42  118.22
   8  -5  -9  -31.45   67.49
   7  -5  -9  -77.09  149.86
   7  -5  -9  -37.43   59.94
   6  -5  -9   95.23  216.52
   6  -5  -9  208.18  112.50
  -6   5   9  378.41   62.10
   5  -5  -9   63.15   67.61
   5  -5  -9   -1.57  139.85
  -5   5   9   15.19   11.88
   4  -5  -9  138.34   80.57
   4  -5  -9  -29.23  122.40
  -4   5   9  128.22   31.21
  -4   5   9  171.05   30.06
   3  -5  -9  -56.97  133.78
   3  -5  -9   32.60   54.46
  -3   5   9   80.07   19.33
  -3   5   9   50.12   15.81
   2  -5  -9   41.30   51.20
   2  -5  -9  -59.49  106.00
  -2   5   9   47.01   13.62
  -2   5   9   44.18   16.17
   1  -5  -9  -63.19  100.88
   1  -5  -9   68.40   60.99
  -1   5   9  105.45   21.99
   0  -5  -9   77.17   53.50
   0  -5  -9   62.73  132.91
   0   5   9   35.68   15.25
  -1  -5  -9   -4.99  149.54
   1   5   9  269.33   45.51
  -2  -5  -9  132.96  141.23
   2   5   9  105.11   25.53
  -3  -5  -9  -18.40  115.86
   3   5   9   13.59   12.04
  -4  -5  -9  129.23  148.75
  10  -6  -9   14.21   93.72
  10  -6  -9  -28.28  164.29
   9  -6  -9  200.04  102.55
   9  -6  -9  -71.39  148.69
   8  -6  -9  100.63  184.01
   8  -6  -9   54.34   80.47
   7  -6  -9   44.30  186.24
   7  -6  -9  174.14   98.68
  -7   6   9  255.48   46.32
   6  -6  -9   64.06   74.15
   6  -6  -9   13.85  150.84
  -6   6   9   88.95   21.65
   5  -6  -9  -90.80  131.95
   5  -6  -9   90.94   74.02
  -5   6   9    3.98   11.03
   4  -6  -9   66.21   68.51
   4  -6  -9  -18.53  133.47
  -4   6   9   19.13   13.75
   3  -6  -9  112.69  167.13
   3  -6  -9  246.54   95.33
  -3   6   9  223.09   44.50
   2  -6  -9   42.71  156.84
   2  -6  -9  151.73   89.90
  -2   6   9  271.89   46.09
   1  -6  -9  -55.52   40.97
   1  -6  -9   53.87  119.10
  -1   6   9   21.85   11.84
   0  -6  -9   48.62   54.79
   0  -6  -9   25.82  116.20
   0   6   9   55.42   17.06
  -1  -6  -9  -48.88  115.60
  -2  -6  -9  -81.21  119.91
  -3  -6  -9  141.15  170.32
  10  -7  -9  146.41  211.82
   9  -7  -9 -180.31  140.03
   9  -7  -9  121.82   95.18
   8  -7  -9  -36.77  157.91
   8  -7  -9  -11.39   76.41
  -8   7   9   -9.21   14.54
   7  -7  -9  -50.10  126.44
   7  -7  -9   -7.76   76.50
   6  -7  -9 -114.16  127.71
   6  -7  -9   -3.43   70.82
   5  -7  -9 -160.93  124.26
   5  -7  -9  -19.36   64.70
  -5   7   9   51.98   16.56
   4  -7  -9  -52.06  137.79
   4  -7  -9  123.31   65.07
  -4   7   9    4.18   13.68
   3  -7  -9  -23.23   60.79
   3  -7  -9  104.79  161.67
  -3   7   9  133.44   26.68
   2  -7  -9  228.86   73.51
   2  -7  -9  -60.93  145.92
   1  -7  -9   -3.92  140.23
   1  -7  -9  -29.82   49.27
   0  -7  -9  -54.53  130.76
  -1  -7  -9    1.73  144.13
  -2  -7  -9  100.34  177.63
  -3  -7  -9  -18.23  147.52
   8  -8  -9 -229.85  144.64
   8  -8  -9   92.41  104.41
   7  -8  -9   -8.90   77.65
   7  -8  -9   77.34  180.20
   6  -8  -9  -72.45  122.69
   6  -8  -9 -146.74   62.88
   5  -8  -9  118.56   83.71
   5  -8  -9   40.71  180.27
   4  -8  -9   57.43  147.85
   4  -8  -9   62.95   71.06
   3  -8  -9  303.23   98.68
   3  -8  -9   -5.23  180.58
   2  -8  -9  -82.70   48.34
   2  -8  -9   -1.49  151.33
   1  -8  -9   66.88  148.31
   1  -8  -9  125.53   71.37
   0  -8  -9   25.77  135.84
  -1  -8  -9  -97.79  115.29
  -2  -8  -9   20.94  160.76
   7  -9  -9  119.91  221.81
   6  -9  -9    1.67   76.38
   6  -9  -9   27.83  163.40
   5  -9  -9   46.19   82.23
   5  -9  -9  145.94  197.87
   4  -9  -9 -167.01  143.17
   4  -9  -9   45.40   75.21
   3  -9  -9  150.18   83.51
   3  -9  -9    0.62  181.54
   2  -9  -9   33.60   60.99
   2  -9  -9   -2.83  165.63
   1  -9  -9   90.94  168.04
   0  -9  -9  -33.86  149.78
  -2 -14  10  163.26   52.54
  -1 -14  10  264.54   71.65
   0 -14  10    7.83   30.55
   1 -14  10  119.45   46.70
   2 -14  10   39.76   33.16
   3 -14  10  220.21   66.36
   4 -14  10   87.72   24.47
   4 -14  10   27.56   37.50
   5 -14  10  132.84   33.78
   5 -14  10   85.01   45.80
  -4 -13  10   62.68   33.77
  -3 -13  10   10.28   25.31
  -2 -13  10  244.34   66.65
  -1 -13  10  175.14   52.77
   0 -13  10   16.07   15.21
   0 -13  10  -10.19   23.56
   1 -13  10  -23.51   13.03
   1 -13  10  -13.81   23.29
   2 -13  10   71.30   25.35
   2 -13  10  118.51   42.31
   3 -13  10  164.07   55.25
   3 -13  10  204.93   43.46
   4 -13  10   50.02   32.24
   4 -13  10    4.50   16.96
   5 -13  10   49.34   21.43
   5 -13  10   11.47   32.47
   5 -13  10   22.38   17.96
   6 -13  10   37.52   19.95
   6 -13  10    9.50   19.29
   6 -13  10    9.50   33.47
   7 -13  10   60.60   39.93
   7 -13  10   96.40   29.29
   7 -13  10   91.91   29.05
  -6 -12  10  -20.70   25.57
  -5 -12  10  164.82  162.53
  -5 -12  10  195.85   55.77
  -4 -12  10  158.44   48.22
  -4 -12  10  147.49  152.52
  -3 -12  10  130.74   32.59
  -3 -12  10  157.49   45.71
  -2 -12  10   55.76   30.18
  -2 -12  10   61.17   20.81
  -1 -12  10  -13.93   22.01
  -1 -12  10   50.67   17.15
   0 -12  10   58.87   19.34
   0 -12  10   45.94   27.30
   1 -12  10  -10.31   13.76
   1 -12  10  -25.19   20.81
   2 -12  10  445.34   77.40
   2 -12  10  386.73   95.97
   2 -12  10  364.21   76.50
   3 -12  10  260.68   79.41
   3 -12  10  339.15   64.06
   3 -12  10  324.66   63.56
   4 -12  10  164.29   36.68
   4 -12  10  110.56   44.96
   4 -12  10  165.26   36.31
   5 -12  10  160.71   49.91
   5 -12  10  176.73   38.47
   5 -12  10  138.88   38.26
   6 -12  10   19.60   30.38
   6 -12  10   26.69   20.01
   6 -12  10   21.20   19.17
   7 -12  10  150.90   40.93
   7 -12  10  152.10   53.92
   7 -12  10  218.15   44.00
   8 -12  10   34.39   22.15
   8 -12  10   23.38   21.33
   8 -12  10   40.89   35.12
  -7 -11  10   43.05   20.14
  -7 -11  10  -39.41   27.27
  -6 -11  10   24.39   31.12
  -6 -11  10   98.79   24.47
  -5 -11  10  205.58   44.42
  -5 -11  10  200.74   56.97
  -4 -11  10   54.17   27.15
  -4 -11  10   67.67   20.69
  -3 -11  10   71.02   33.03
  -3 -11  10  104.97   25.14
  -2 -11  10   76.36   21.73
  -2 -11  10  102.53   90.15
  -2 -11  10   55.77   27.39
  -1 -11  10   53.47   16.97
  -1 -11  10   59.02   18.47
  -1 -11  10   38.85   26.15
   0 -11  10  262.51   53.90
   0 -11  10  288.84   54.38
   0 -11  10  242.13   67.63
   1 -11  10  177.76   49.69
   1 -11  10  175.58   38.55
   1 -11  10  177.87   39.17
   2 -11  10  391.11   69.72
   2 -11  10  306.63   84.05
   2 -11  10  348.01   69.47
   3 -11  10  157.70   35.56
   3 -11  10  155.65   35.42
   3 -11  10  145.54   46.20
   4 -11  10   38.41   26.63
   4 -11  10   35.77   19.63
   4 -11  10   55.82   19.89
   5 -11  10  -25.35   21.68
   5 -11  10   13.06   15.70
   5 -11  10  -22.91   13.92
   6 -11  10  365.04   63.91
   6 -11  10  284.60   61.89
   6 -11  10  238.87   74.75
   7 -11  10  158.27   36.13
   7 -11  10  119.69   35.06
   7 -11  10  127.73   46.07
   8 -11  10  -16.86   18.46
   8 -11  10    9.56   28.89
   8 -11  10   22.47   20.71
   9 -11  10   36.74   23.00
   9 -11  10   31.54   24.11
   9 -11  10   31.85   31.42
  -8 -10  10   16.62   29.97
  -8 -10  10  107.75   56.10
  -8 -10  10   -2.47   16.44
  -7 -10  10   -8.71   25.37
  -7 -10  10   27.30   18.11
  -6 -10  10  199.55   44.04
  -6 -10  10  206.28   55.89
  -5 -10  10  192.38   44.92
  -5 -10  10  312.11   46.59
  -5 -10  10  140.91   52.77
  -4 -10  10    1.28   14.24
  -4 -10  10   31.82   21.64
  -4 -10  10   15.92   11.82
  -3 -10  10  107.79   21.06
  -3 -10  10   47.30   24.88
  -3 -10  10   40.64   16.95
  -2 -10  10   16.91   15.24
  -2 -10  10   33.96   14.49
  -2 -10  10   46.44   23.24
  -1 -10  10  174.30   32.18
  -1 -10  10  164.77   42.20
  -1 -10  10   95.28   30.60
   0 -10  10   -0.11   12.08
   0 -10  10   18.99   12.95
   0 -10  10   -9.72   17.77
   1 -10  10  183.50   37.23
   1 -10  10  138.20   36.39
   1 -10  10  207.97   48.40
   2 -10  10  123.30   30.61
   2 -10  10  176.15   32.53
   2 -10  10   86.42   37.57
   3 -10  10  213.85   42.20
   3 -10  10  201.18   41.77
   3 -10  10  151.22   50.67
   4 -10  10  110.66   33.57
   4 -10  10  213.03   47.09
   4 -10  10  147.13   34.33
   5 -10  10  360.67   70.29
   5 -10  10  232.25   53.97
   5 -10  10  240.58   55.82
   6 -10  10  404.82   80.28
   6 -10  10  431.57   78.82
   6 -10  10  344.05   93.99
   7 -10  10  117.42   36.74
   7 -10  10   44.88   23.61
   7 -10  10   67.57   25.55
   8 -10  10    4.67   17.24
   8 -10  10   33.89   20.67
   8 -10  10   27.59   29.24
   9 -10  10  -28.18   17.89
   9 -10  10  -10.35   19.32
   9   9 -10   64.54   55.87
  -9  -9  10  219.81   68.38
  -9  -9  10   58.32   26.68
  -9  -9  10   44.88   39.32
   8   9 -10   45.15   54.67
  -8  -9  10   42.17   55.44
  -8  -9  10   72.08   41.03
  -8  -9  10  116.85   28.13
   7   9 -10  -20.90   36.88
  -7  -9  10   63.38   20.65
  -7  -9  10   27.01   45.54
  -7  -9  10   53.73   30.92
   6   9 -10  577.59  147.33
  -6  -9  10  588.90   97.17
  -6  -9  10  547.10   97.40
  -6  -9  10  457.32  116.81
  -6  -9  10  210.84  112.56
  -5  -9  10   38.30   22.07
  -5  -9  10   47.94   17.83
  -5  -9  10   15.91   13.87
  -4  -9  10   88.02   36.22
  -4  -9  10  147.68   30.98
  -4  -9  10  152.82   30.80
   3   9 -10   86.71   27.01
  -3  -9  10   83.88   31.57
  -3  -9  10  103.35   25.56
  -3  -9  10  112.52   25.34
   2   9 -10   66.06   19.55
  -2  -9  10   -0.74   13.56
  -2  -9  10   54.08   22.97
  -2  -9  10   36.44   13.92
   1   9 -10  557.99  100.12
  -1  -9  10  529.50   93.00
  -1  -9  10  404.07  109.38
  -1  -9  10  490.52   93.93
   0   9 -10   33.78   17.30
   0  -9  10   -3.77   16.21
   0  -9  10   34.04   15.53
   0  -9  10   32.64   13.51
  -1   9 -10  171.30   40.39
   1  -9  10  172.74   37.64
   1  -9  10  183.41   45.80
   1  -9  10  161.90   36.37
  -2   9 -10   37.23   16.26
   2  -9  10   21.90   15.13
   2  -9  10   20.63   20.34
   2  -9  10   16.30   15.58
  -3   9 -10  305.20   66.47
   3  -9  10  358.44   64.69
   3  -9  10  332.12   76.18
   3  -9  10  275.99   62.14
  -4   9 -10  100.24   27.65
   4  -9  10   71.39   24.64
   4  -9  10  102.68   31.96
   4  -9  10   82.86   25.66
   5  -9  10  151.49   29.88
   5  -9  10  114.69   29.92
   5  -9  10   68.91   33.49
   6  -9  10  151.52   35.07
   6  -9  10   92.89   31.42
   6  -9  10  163.40   42.55
   7  -9  10    6.68   24.78
   7  -9  10   22.41   18.14
   7  -9  10   23.31   20.68
   8  -9  10  -20.25   22.65
   8  -9  10   -2.63   17.30
   8  -9  10   -5.41   14.98
   9  -9  10   55.35   25.04
   9  -9  10   61.03   27.39
  10  -9  10  190.10   46.05
  10  -9  10  150.90   43.08
   9   8 -10  100.71   62.61
  -9  -8  10  146.54   62.75
  -9  -8  10   79.19   29.60
  -9  -8  10  100.96   42.08
   8   8 -10   25.04   47.28
  -8  -8  10   63.38   22.22
  -8  -8  10    6.45   29.41
  -8  -8  10   52.59   48.21
   7   8 -10   13.41   18.40
   7   8 -10   21.04   41.91
  -7  -8  10    7.99   16.45
  -7  -8  10  -69.83   36.39
  -7  -8  10   32.16   25.92
   6   8 -10   76.29   46.43
   6   8 -10   63.23   23.65
  -6  -8  10   82.54   28.77
  -6  -8  10   63.10   21.26
  -6  -8  10  -40.76   37.85
   5   8 -10   -6.73   31.23
   5   8 -10   16.30   15.90
  -5  -8  10    4.51   13.64
  -5  -8  10   32.17   37.17
  -5  -8  10   -9.30   16.86
  -5  -8  10  -14.80   12.10
   4   8 -10   80.09   37.75
   4   8 -10   34.23   18.30
  -4  -8  10   39.76   16.74
  -4  -8  10   15.86   19.65
  -4  -8  10  -14.57   32.82
  -4  -8  10   42.17   15.73
   3   8 -10  166.88   48.41
   3   8 -10  129.40   31.06
  -3  -8  10  122.92   35.41
  -3  -8  10   92.91   26.85
  -3  -8  10  104.71   26.86
   2   8 -10  345.61   83.52
   2   8 -10  452.33  115.10
  -2  -8  10  423.45   79.86
  -2  -8  10  362.52   93.06
  -2  -8  10  496.28   77.89
   1   8 -10    7.88   14.90
  -1  -8  10   50.46   15.15
  -1  -8  10   20.73   18.68
  -1  -8  10   63.33   15.73
   0   8 -10   30.07   17.08
   0  -8  10   63.82   17.06
   0  -8  10   31.68   19.76
   0  -8  10   52.90   16.65
  -1   8 -10   22.93   15.19
   1  -8  10   52.07   15.41
   1  -8  10   12.66   17.55
   1  -8  10   18.54   12.92
  -2   8 -10  562.63  113.86
   2  -8  10  588.23  128.33
   2  -8  10  565.99  106.36
   2  -8  10  597.34  108.67
  -3   8 -10  893.03  167.74
   3  -8  10  820.10  185.36
   3  -8  10  929.58  160.40
   3  -8  10  817.27  156.24
  -4   8 -10  -19.12   13.00
   4  -8  10  -19.19   12.18
   4  -8  10  -12.03   11.37
   4  -8  10    7.71   16.79
  -5   8 -10  115.52   32.99
   5  -8  10  116.43   31.17
   5  -8  10  123.84   32.49
   5  -8  10  172.26   39.52
  -6   8 -10  -13.43   16.79
   6  -8  10  -11.15   17.90
   6  -8  10   44.28   18.93
   6  -8  10    3.36   15.12
  -7   8 -10  108.89   33.16
   7  -8  10   98.56   37.03
   7  -8  10  123.41   31.46
   7  -8  10  174.11   34.69
  -8   8 -10   49.01   22.08
   8  -8  10   51.46   21.54
   8  -8  10   11.52   17.72
   9  -8  10  168.98   44.19
   9  -8  10  180.34   43.23
  10  -8  10  226.88   48.32
  10  -8  10  160.94   48.88
  10   7 -10  294.97  102.61
  10   7 -10  294.76   61.99
 -10  -7  10  255.65   56.98
 -10  -7  10  275.47   76.86
 -10  -7  10  161.77   77.46
   9   7 -10  160.42   74.65
   9   7 -10  175.54   41.47
  -9  -7  10  106.62   58.92
  -9  -7  10  207.90   56.96
  -9  -7  10  132.49   38.13
   8   7 -10   -1.66   16.41
   8   7 -10  -53.79   37.27
  -8  -7  10   24.99   17.97
  -8  -7  10   28.22   43.71
  -8  -7  10  -36.06   25.22
   7   7 -10  179.98   62.93
   7   7 -10   98.43   29.58
  -7  -7  10  114.91   36.89
  -7  -7  10  -26.70   41.76
  -7  -7  10  112.23   28.28
   6   7 -10   38.29   19.54
   6   7 -10   90.51   46.72
  -6  -7  10  -15.58   34.64
  -6  -7  10   57.46   28.11
  -6  -7  10   84.87   21.16
   5   7 -10  256.81   95.74
   5   7 -10  319.82   67.27
  -5  -7  10  422.92   64.88
  -5  -7  10  353.71   64.47
  -5  -7  10  105.90   72.98
  -5  -7  10  373.43   77.42
   4   7 -10  180.20   37.89
   4   7 -10  257.26   64.55
  -4  -7  10  152.78   34.64
  -4  -7  10  182.22   35.26
  -4  -7  10   15.06   44.03
  -4  -7  10  145.04   42.36
   3   7 -10  365.56   82.07
   3   7 -10  232.29   52.94
  -3  -7  10  300.05   51.50
  -3  -7  10  204.50   59.98
  -3  -7  10  261.52   50.42
  -3  -7  10  122.14   62.27
   2   7 -10  963.08  177.70
   2   7 -10  938.73  238.70
  -2  -7  10  906.57  169.14
  -2  -7  10  920.98  165.69
  -2  -7  10  879.11  196.09
   1   7 -10  -55.99   17.78
   1   7 -10   16.45   13.12
  -1  -7  10    6.81    9.84
  -1  -7  10  -21.18   11.65
  -1  -7  10   18.49   11.94
   0   7 -10  197.57   58.59
   0   7 -10  234.63   47.05
   0  -7  10  229.53   44.21
   0  -7  10  225.78   43.51
   0  -7  10  188.82   50.36
  -1   7 -10   41.21   19.56
   1  -7  10   61.67   18.92
   1  -7  10   96.15   24.52
   1  -7  10   77.84   20.14
  -2   7 -10  688.57  136.01
   2  -7  10  688.97  127.10
   2  -7  10  714.15  130.09
   2  -7  10  700.97  150.24
  -3   7 -10  150.54   38.76
   3  -7  10  175.94   37.87
   3  -7  10  187.04   44.68
   3  -7  10  189.60   39.18
  -4   7 -10   24.40   14.80
   4  -7  10   14.08   13.70
   4  -7  10    3.71   13.54
   4  -7  10   10.59   15.90
  -5   7 -10   44.60   16.21
   5  -7  10  -20.22   11.19
   5  -7  10   11.68   13.16
   5  -7  10   22.42   16.18
  -6   7 -10   15.61   17.07
   6  -7  10   60.03   20.81
   6  -7  10   39.82   18.75
   6  -7  10   27.35   21.09
  -7   7 -10  113.06   30.65
   7  -7  10   82.76   29.03
   7  -7  10  118.18   33.89
   7  -7  10  100.81   28.43
  -8   7 -10  -16.11   18.62
   8  -7  10   56.10   21.45
   8  -7  10    5.20   16.12
  -9   7 -10  147.14   33.80
   9  -7  10   58.19   29.54
   9  -7  10  112.58   30.16
 -10   7 -10    8.35   23.06
  10  -7  10    2.56   22.82
  10  -7  10  -40.29   16.00
  10   6 -10   58.56   66.92
  10   6 -10  125.65   32.62
 -10  -6  10   45.64   53.01
 -10  -6  10   87.86   31.49
 -10  -6  10  134.14   47.01
   9   6 -10  137.23   66.92
   9   6 -10  115.39   28.67
  -9  -6  10   97.78   49.91
  -9  -6  10   26.27   24.40
  -9  -6  10   72.87   36.32
   8   6 -10   42.85   19.35
   8   6 -10  -17.13   45.65
  -8  -6  10   27.80   19.92
  -8  -6  10   28.31   31.13
  -8  -6  10   30.34   35.95
   7   6 -10  -11.30   14.90
   7   6 -10   31.51   44.37
  -7  -6  10    0.22   15.62
  -7  -6  10   32.90   22.82
  -7  -6  10   22.54   35.48
   6   6 -10   18.63   16.50
   6   6 -10  102.50   48.34
  -6  -6  10   20.13   16.66
  -6  -6  10   26.23   25.10
  -6  -6  10   42.39   35.70
   5   6 -10  213.04   76.25
   5   6 -10  247.79   49.17
  -5  -6  10  278.54   46.98
  -5  -6  10  260.24   57.44
  -5  -6  10   52.52   53.35
   4   6 -10  -14.66   11.02
   4   6 -10    9.22   30.74
  -4  -6  10   23.75   30.10
  -4  -6  10   22.09   24.63
  -4  -6  10  -13.21   10.94
  -4  -6  10   24.64   13.77
   3   6 -10  225.73   44.17
   3   6 -10  233.88   69.79
  -3  -6  10   93.70   50.89
  -3  -6  10  197.04   41.34
  -3  -6  10  216.43   42.53
  -3  -6  10  196.55   49.34
   2   6 -10  -10.28   28.76
   2   6 -10    6.61   11.63
  -2  -6  10    5.74   26.21
  -2  -6  10    1.60   10.51
  -2  -6  10  -15.08   14.13
  -2  -6  10   -3.12   10.45
   1   6 -10   57.90   16.45
   1   6 -10   41.31   29.21
  -1  -6  10   30.20   16.67
  -1  -6  10   25.33   14.36
  -1  -6  10   35.19   14.61
   0   6 -10    1.25   11.72
   0   6 -10  -19.65   18.09
   0  -6  10   -2.31   10.89
   0  -6  10   21.53   11.13
   0  -6  10    5.25   11.93
  -1   6 -10  668.74  123.75
   1  -6  10  604.97  115.52
   1  -6  10  613.58  136.06
   1  -6  10  654.54  118.42
  -2   6 -10  620.68  114.31
   2  -6  10  586.67  107.01
   2  -6  10  564.87  125.63
   2  -6  10  563.34  109.43
  -3   6 -10  -32.93    9.38
   3  -6  10   34.56   13.94
   3  -6  10   -1.43    9.70
   3  -6  10    5.58   13.24
  -4   6 -10  100.01   30.27
   4  -6  10  112.24   28.83
   4  -6  10  138.52   29.83
   4  -6  10  127.48   32.74
  -5   6 -10   74.57   20.92
   5  -6  10   49.99   19.25
   5  -6  10   51.80   18.56
   5  -6  10   30.66   19.59
  -6   6 -10  650.08  121.74
   6  -6  10  677.59  119.79
   6  -6  10  588.14  133.19
   6  -6  10  563.94  115.25
  -7   6 -10  175.46   46.70
   7  -6  10  212.30   44.56
   7  -6  10  222.58   47.00
  -8   6 -10   52.78   21.53
   8  -6  10   27.37   17.89
   8  -6  10   38.57   22.65
  -9   6 -10   74.94   28.84
   9  -6  10   85.37   29.38
   9  -6  10   84.81   27.55
 -10   6 -10  -13.60   21.19
  10  -6  10   61.33   22.43
  10  -6  10   10.76   20.86
  11   5 -10  178.60   42.08
  11   5 -10   84.94   81.18
  10   5 -10   81.62   69.30
  10   5 -10   61.45   25.43
 -10  -5  10   68.59   43.63
   9   5 -10   20.06   19.09
   9   5 -10   83.40   59.18
  -9  -5  10   -2.53   35.39
   8   5 -10  274.25   88.76
   8   5 -10  231.08   48.86
  -8  -5  10  213.27   62.86
  -8  -5  10  174.44   45.38
   7   5 -10   -6.70   14.08
   7   5 -10    2.38   45.76
  -7  -5  10    7.98   14.31
  -7  -5  10   60.85   36.41
   6   5 -10  506.44  113.65
   6   5 -10  602.51  165.43
  -6  -5  10  715.42  129.13
  -6  -5  10  598.91  107.96
   5   5 -10  342.86   93.01
   5   5 -10  278.81   58.64
  -5  -5  10  225.42   68.60
  -5  -5  10  276.42   55.30
   4   5 -10  -51.24   29.25
   4   5 -10   14.40   12.19
  -4  -5  10    2.49   11.58
  -4  -5  10  -15.81   14.74
  -4  -5  10   46.64   28.43
  -4  -5  10    2.61   12.47
   3   5 -10   46.45   40.96
   3   5 -10   96.82   20.95
  -3  -5  10   -9.96   26.57
  -3  -5  10   77.46   20.07
  -3  -5  10   75.76   19.27
  -3  -5  10   66.88   24.62
   2   5 -10  321.12   94.10
   2   5 -10  332.27   63.01
  -2  -5  10  296.21   60.21
  -2  -5  10  337.49   69.97
  -2  -5  10  178.56   68.97
  -2  -5  10  306.45   58.62
   1   5 -10 1112.80  294.46
   1   5 -10 1083.29  218.66
  -1  -5  10 1150.16  204.49
  -1  -5  10 1192.62  241.42
  -1  -5  10 1164.56  209.13
   0   5 -10  -19.06   22.85
   0   5 -10  -19.19    9.18
   0  -5  10  -12.45   10.38
   0  -5  10   10.51   11.09
   0  -5  10   17.37   11.80
  -1   5 -10  143.32  280.89
  -1   5 -10  428.17  101.35
  -1   5 -10  414.04   73.75
   1  -5  10  362.76   70.81
   1  -5  10  401.27   69.11
   1  -5  10  401.34   79.29
  -2   5 -10   73.23   20.94
  -2   5 -10  341.22  227.85
   2  -5  10   37.89   20.24
   2  -5  10   84.53   22.84
   2  -5  10  109.49   22.67
  -3   5 -10  -30.57   10.06
   3  -5  10   -3.25   11.13
   3  -5  10    0.89   11.08
   3  -5  10  -19.33   10.13
  -4   5 -10   53.30   17.18
   4  -5  10   21.06   15.83
   4  -5  10   43.69   18.21
   4  -5  10   89.30   18.91
  -5   5 -10  331.71  110.63
  -5   5 -10  112.10   33.92
   5  -5  10  150.87   36.47
   5  -5  10  125.31   32.82
  -6   5 -10  144.82   41.26
   6  -5  10  193.67   42.24
   6  -5  10  214.66   40.31
  -7   5 -10    3.80   15.01
   7  -5  10   13.36   16.21
   7  -5  10   27.77   17.62
  -8   5 -10  -35.46   15.83
   8  -5  10   25.20   20.80
   8  -5  10   -2.18   14.20
  -9   5 -10   -1.64   20.14
   9  -5  10   26.57   18.07
   9  -5  10   20.17   20.76
 -10   5 -10  154.29   41.31
  10  -5  10  146.74   41.98
  11   4 -10  -30.75   61.55
  11   4 -10   19.46   20.14
  10   4 -10   17.53   58.88
  10   4 -10   17.37   19.63
   9   4 -10   26.95   18.18
   9   4 -10   30.54   54.05
   8   4 -10   32.85   18.97
   8   4 -10  -36.94   46.09
  -8  -4  10   83.32   35.29
   7   4 -10   15.59   44.69
   7   4 -10   12.52   14.68
  -7  -4  10   -3.46   27.07
  -7  -4  10   25.83   16.75
   6   4 -10  331.86   59.96
   6   4 -10  276.89   93.42
  -6  -4  10  213.17   65.04
  -6  -4  10  262.12   56.17
   5   4 -10    0.56   37.37
   5   4 -10    5.30   12.68
  -5  -4  10   17.58   24.79
  -5  -4  10   11.83   13.92
   4   4 -10   35.39   13.19
   4   4 -10   -7.54   35.58
  -4  -4  10   -5.09   12.15
  -4  -4  10    5.91   24.93
   3   4 -10  101.62   21.97
   3   4 -10   67.24   45.42
   3   4 -10   68.38   19.93
  -3  -4  10   61.40   30.10
  -3  -4  10   56.32   18.42
  -3  -4  10   76.44   20.62
   2   4 -10  508.34  146.35
   2   4 -10  619.52  103.27
   2   4 -10  505.44  101.30
  -2  -4  10  530.78   96.85
  -2  -4  10  534.19   97.64
  -2  -4  10  522.76  112.11
  -2  -4  10  318.54  107.72
   1   4 -10  164.30   41.17
   1   4 -10  219.61   46.29
   1   4 -10  219.84   67.55
  -1  -4  10  209.99   46.41
  -1  -4  10  232.22   40.40
  -1  -4  10   69.82   47.31
  -1  -4  10  233.48   41.89
   0   4 -10  131.20   49.17
   0   4 -10  140.62   36.47
   0   4 -10   95.12   28.22
   0  -4  10  156.12   32.56
   0  -4  10  119.53   28.30
   0  -4  10  132.48   29.61
  -1   4 -10  105.86   36.33
  -1   4 -10   96.70  109.84
  -1   4 -10   37.64   29.32
  -1   4 -10   71.07   19.84
   1  -4  10   62.64   20.55
   1  -4  10   88.69   21.15
   1  -4  10   90.07   21.17
  -2   4 -10   93.29   30.77
  -2   4 -10  -25.90  156.70
  -2   4 -10   43.81   16.80
   2  -4  10   43.80   16.85
   2  -4  10   87.69   19.01
   2  -4  10   53.50   19.21
  -3   4 -10  182.88  326.49
  -3   4 -10  293.26   51.84
   3  -4  10  230.46   48.50
   3  -4  10  232.49   54.87
   3  -4  10  231.89   50.60
  -4   4 -10  139.18   26.10
  -4   4 -10  208.34   96.96
   4  -4  10   60.90   23.65
   4  -4  10   82.31   25.17
   4  -4  10   93.89   25.46
  -5   4 -10  809.72  140.59
  -5   4 -10  546.79  334.13
   5  -4  10  759.73  135.22
   5  -4  10  689.11  131.19
  -7   4 -10  399.27  594.53
 -10   4 -10 2794.80 2156.85
  11   3 -10  -45.26   56.80
  11   3 -10   19.74   19.20
  10   3 -10  141.89   38.39
  10   3 -10  190.74   91.43
   9   3 -10  253.67   59.45
   9   3 -10  394.88  111.38
   8   3 -10  134.63   71.64
   7   3 -10  507.71   99.46
   7   3 -10  426.54  150.60
  -7  -3  10  507.12   94.94
   6   3 -10   75.79   21.33
   6   3 -10   75.02   53.35
  -6  -3  10   52.60   21.09
  -6  -3  10   77.08   30.23
   5   3 -10  128.00   57.33
   5   3 -10  104.78   26.32
  -5  -3  10   98.79   25.44
  -5  -3  10  127.78   37.43
   4   3 -10   70.60   21.10
   4   3 -10  128.04   23.47
   4   3 -10   86.86   51.75
  -4  -3  10   22.55   27.75
  -4  -3  10   99.56   22.43
   3   3 -10  129.06   67.55
   3   3 -10  197.46   39.15
   3   3 -10  188.50   39.24
  -3  -3  10  209.26   38.34
  -3  -3  10  123.83   46.80
  -3  -3  10  177.30   38.68
   2   3 -10  903.82  264.43
   2   3 -10  962.23  189.93
   2   3 -10 1049.77  190.49
  -2  -3  10  959.40  178.10
  -2  -3  10 1046.06  182.84
   1   3 -10  187.70   62.61
   1   3 -10  144.38   34.53
   1   3 -10  219.30   38.80
  -1  -3  10  164.51   34.19
  -1  -3  10  181.27   36.19
  -1  -3  10   88.32   41.02
   0   3 -10   90.53   24.19
   0   3 -10  131.15   48.10
   0   3 -10  155.43   33.05
   0  -3  10  115.66   26.23
   0  -3  10   96.92   24.08
   0  -3  10  108.19   27.92
  -1   3 -10   -0.93   20.40
  -1   3 -10   -8.01    8.17
  -1   3 -10   -1.41   25.59
  -1   3 -10    1.99   93.47
   1  -3  10   13.15   10.12
   1  -3  10    3.97    8.88
   1  -3  10   -7.86   10.84
  -2   3 -10  188.78   45.00
  -2   3 -10  173.68   54.24
  -2   3 -10   88.18  207.60
   2  -3  10  239.24   45.03
   2  -3  10  272.62   49.74
   2  -3  10  241.11   46.31
  -3   3 -10  218.61   46.55
  -3   3 -10  524.83  159.42
  -3   3 -10  111.11   52.76
   3  -3  10  241.94   47.23
   3  -3  10  237.86   45.61
   3  -3  10  212.73   49.46
  -4   3 -10  368.42  343.00
  -4   3 -10  107.09   26.72
  -4   3 -10  107.26   95.12
   4  -3  10   58.61   25.86
   4  -3  10  127.93   26.51
   4  -3  10   98.98   25.97
  -5   3 -10   -0.20   72.79
  -5   3 -10 1020.31  453.68
  -6   3 -10   -7.85   14.22
  -6   3 -10  373.66  443.73
   6  -3  10   24.43   14.00
   6  -3  10   14.28   15.63
  -7   3 -10  171.73  440.92
  -7   3 -10   23.42   16.99
   7  -3  10    7.49   15.57
   7  -3  10   -6.73   15.87
  -8   3 -10  323.72  603.86
  -9   3 -10  151.77   39.13
  -9   3 -10  784.68  811.63
   9  -3  10  164.46   37.24
   9  -3  10  118.65   37.56
 -10   3 -10   27.43   24.09
 -10   3 -10  258.00  737.73
  10  -3  10   60.71   26.87
  12   2 -10   16.54  168.58
  12   2 -10   -4.85   72.63
  11   2 -10    6.03   17.07
  11   2 -10    5.85  160.16
  11   2 -10  -32.47   54.92
  10   2 -10  126.94   80.73
  10   2 -10  118.91   32.32
   9   2 -10   92.88   25.06
   9   2 -10  -17.12   64.61
   8   2 -10  -35.97   54.51
   8   2 -10   28.71   16.17
   7   2 -10   48.36   50.56
   7   2 -10   62.54   18.93
   6   2 -10   36.24   51.40
   6   2 -10    2.08   10.91
  -6  -2  10   -6.83   11.98
   5   2 -10  174.06   31.44
   5   2 -10   78.18   57.61
   5   2 -10  120.62   30.16
  -5  -2  10  129.28   31.39
   4   2 -10   12.47   40.02
   4   2 -10   55.21   14.97
   4   2 -10   45.67   14.70
  -4  -2  10   57.22   26.72
  -4  -2  10   48.19   16.78
   3   2 -10  415.22  149.52
   3   2 -10  626.15  102.05
   3   2 -10  527.47  101.68
  -3  -2  10  505.34  100.06
  -3  -2  10  481.56   97.35
  -3  -2  10  414.83  108.43
   2   2 -10   23.20   10.48
   2   2 -10   22.92   41.30
   2   2 -10   28.18   10.51
  -2  -2  10   35.19   13.49
  -2  -2  10   15.87   14.07
  -2  -2  10   21.03   21.99
   1   2 -10   51.42   13.32
   1   2 -10   42.47   14.31
   1   2 -10   65.50   99.75
   1   2 -10   71.64   44.20
  -1  -2  10   58.29   25.46
  -1  -2  10   42.29   14.65
  -1  -2  10   43.21   16.88
   0   2 -10   15.28    8.35
   0   2 -10  129.49   99.34
   0   2 -10   27.85   33.80
   0   2 -10   -1.82   10.05
   0  -2  10   24.80   11.19
   0  -2  10  -15.23   10.87
  -1   2 -10  613.04  178.91
  -1   2 -10  205.39   71.17
  -1   2 -10  206.07   44.29
  -1   2 -10  332.25   51.39
  -1   2 -10   54.90  187.93
   1  -2  10  197.04   44.42
   1  -2  10  247.15   48.94
   1  -2  10  212.16   43.46
  -2   2 -10 1054.14  204.09
  -2   2 -10 1011.37  199.88
   2  -2  10  988.57  192.23
   2  -2  10 1093.34  219.71
   2  -2  10 1065.19  187.79
  -3   2 -10   59.31   32.03
  -3   2 -10   41.07   90.54
  -3   2 -10   73.17   19.02
  -3   2 -10 -224.07  183.22
   3  -2  10   81.47   17.82
   3  -2  10   85.22   22.08
   3  -2  10   68.39   19.40
  -4   2 -10 -411.19  283.38
  -4   2 -10  172.11   31.29
  -4   2 -10   49.59   38.18
  -4   2 -10   32.46   99.79
   4  -2  10  192.77   32.34
   4  -2  10  171.30   33.23
  -5   2 -10  119.45   25.56
  -5   2 -10   22.20   80.52
   5  -2  10   75.59   24.74
   5  -2  10  110.09   25.00
  -6   2 -10 -275.86  345.81
  -6   2 -10  118.57   32.19
   6  -2  10  155.61   33.78
   6  -2  10  164.73   32.66
  -7   2 -10   11.84  466.21
  -7   2 -10  214.35   46.88
   7  -2  10  200.25   46.81
   7  -2  10  225.60   45.53
  -8   2 -10 -492.95  421.76
  -8   2 -10   67.30   21.77
   8  -2  10   14.28   20.76
   8  -2  10   66.65   20.94
  -9   2 -10  188.56   43.42
   9  -2  10  163.88   43.57
 -10   2 -10 -601.69  591.18
 -10   2 -10   85.43   27.87
  10  -2  10   62.27   27.88
  12   1 -10    2.20  154.30
  12   1 -10   -2.71   65.13
  12   1 -10   22.34   20.02
  11   1 -10  146.30  158.09
  11   1 -10  -18.37   69.33
  11   1 -10   56.97   23.05
  10   1 -10  262.55  129.31
  10   1 -10  977.72  295.30
  10   1 -10  319.99   72.20
   9   1 -10  136.79  142.65
   9   1 -10   19.41   16.01
   9   1 -10   73.54   71.96
   8   1 -10   90.54   24.88
   8   1 -10   63.13   62.24
   8   1 -10  332.38  174.85
   7   1 -10   56.40  140.39
   7   1 -10   32.44   13.11
   7   1 -10   59.67   58.91
   7   1 -10   30.15   14.08
   6   1 -10 1426.61  337.10
   6   1 -10  478.77   93.95
   6   1 -10  491.39   94.15
   6   1 -10  616.14  153.90
  -6  -1  10  374.87   89.98
   5   1 -10  433.53   86.55
   5   1 -10  358.40  133.22
   5   1 -10  456.89   86.64
  -5  -1  10  484.55   84.66
   4   1 -10   14.98   10.93
   4   1 -10   67.81   12.82
   4   1 -10   66.87   45.36
   4   1 -10  289.60  152.78
  -4  -1  10   48.09   16.40
   3   1 -10  633.07  180.67
   3   1 -10  615.88  120.11
   3   1 -10  607.47  120.22
  -3  -1  10  674.00  114.84
  -3  -1  10  660.54  117.58
   2   1 -10  488.72  125.35
   2   1 -10  363.38   74.91
   2   1 -10  361.91   74.98
   2   1 -10 1104.29  269.90
  -2  -1  10  421.18   73.83
  -2  -1  10  435.34   76.62
   1   1 -10   99.87   20.67
   1   1 -10   42.53   50.28
   1   1 -10  363.93  146.96
   1   1 -10   78.29   20.28
  -1  -1  10  110.97   24.07
  -1  -1  10  126.85   23.37
   0   1 -10   10.72    6.82
   0   1 -10   35.26   40.63
   0   1 -10   55.81   88.87
   0   1 -10  -14.54    6.17
   0  -1  10   11.92   10.52
   0  -1  10  -13.34   10.55
  -1   1 -10  498.86   90.99
  -1   1 -10  734.27  261.86
  -1   1 -10  463.22   90.16
  -1   1 -10  445.61  133.98
   1  -1  10  426.01   99.64
   1  -1  10  456.50   90.03
   1  -1  10  495.92   86.34
  -2   1 -10  278.64  176.29
  -2   1 -10  252.58   55.80
  -2   1 -10  315.48   59.53
   2  -1  10  283.09   56.84
   2  -1  10  303.41   60.25
   2  -1  10  238.37   54.09
  -3   1 -10    1.46    9.34
  -3   1 -10 -291.06  181.65
  -3   1 -10  -22.22   77.91
  -3   1 -10  -46.69   18.45
   3  -1  10   -9.82   11.05
   3  -1  10    2.16   10.42
  -4   1 -10   18.31   11.61
  -4   1 -10   71.50   26.36
  -4   1 -10 -352.58  219.34
  -4   1 -10   -4.68   75.95
   4  -1  10  -16.28   11.14
   4  -1  10    2.75   11.66
  -5   1 -10  -50.47   78.21
  -5   1 -10   89.80   20.81
  -5   1 -10   55.07   31.93
   5  -1  10  112.53   24.22
   5  -1  10   69.61   21.05
  -6   1 -10  121.00   28.50
  -6   1 -10 -120.41  317.91
   6  -1  10  126.39   30.51
   6  -1  10  113.70   27.91
  -7   1 -10 -479.91  395.99
  -7   1 -10   -5.16   14.28
   7  -1  10   32.04   17.16
   7  -1  10   12.66   14.42
  -8   1 -10   64.22   21.07
  -8   1 -10 -658.68  430.58
   8  -1  10   94.33   22.42
   8  -1  10   33.92   23.49
  -9   1 -10   36.57   20.09
   9  -1  10   38.05   21.29
  12   0 -10  112.12  172.38
  12   0 -10  158.37  106.62
  11   0 -10   59.63   73.76
  11   0 -10   58.89   21.14
  11   0 -10  219.68  167.86
  10   0 -10  -33.88   65.07
  10   0 -10   55.93   18.83
  10   0 -10  157.11  163.24
   9   0 -10   -6.92   10.19
   9   0 -10   68.76   65.49
   9   0 -10  -45.20  126.10
   8   0 -10    5.17    9.12
   8   0 -10    2.26    8.89
   8   0 -10  -58.22  111.82
   8   0 -10  -90.82   49.43
   7   0 -10   67.63   15.40
   7   0 -10  122.28  146.62
   7   0 -10  -48.32   46.77
   7   0 -10   57.30   15.20
   6   0 -10  899.41  276.48
   6   0 -10  318.12  122.10
   6   0 -10  372.93   74.08
   6   0 -10  384.17   74.23
  -6   0  10  386.30   74.01
   5   0 -10   57.42   13.79
   5   0 -10  122.14  133.97
   5   0 -10   17.69   58.16
   5   0 -10   71.88   14.23
  -5   0  10   68.01   18.88
   4   0 -10  246.27  144.12
   4   0 -10  119.14   64.31
  -4   0  10   84.95   23.92
   3   0 -10   62.55   55.75
   3   0 -10  105.95  125.43
  -3   0  10   30.58   14.95
  -3   0  10   20.39   13.02
   2   0 -10   24.19   49.55
   2   0 -10   42.51  112.37
  -2   0  10   70.29   19.19
  -2   0  10   48.41   16.91
   1   0 -10   -7.19   43.38
   1   0 -10  -18.95   93.44
  -1   0  10   17.67   14.27
  -1   0  10   50.32   14.07
   0   0 -10  206.19  174.48
   0   0 -10  248.75   89.04
   0   0  10  298.08   52.85
   0   0  10  261.73   54.63
  -1   0 -10  369.11  282.98
  -1   0 -10  577.41  159.60
   1   0  10  570.36  101.93
   1   0  10  590.65  105.16
  -2   0 -10 -200.77  149.78
  -2   0 -10  -40.68   83.07
   2   0  10  -18.97    8.86
   2   0  10   13.43   12.58
  -3   0 -10  128.45   25.60
  -3   0 -10  150.74   26.82
  -3   0 -10   96.29  111.02
  -3   0 -10 -182.52  198.10
   3   0  10  114.53   28.28
   3   0  10  132.61   30.42
  -4   0 -10 -242.35  199.52
  -4   0 -10   18.21    9.21
  -4   0 -10   19.72   15.44
  -4   0 -10  -21.53   84.39
   4   0  10   39.96   16.24
   4   0  10   39.67   14.41
  -5   0 -10  452.85   87.57
  -5   0 -10  447.93   92.79
   5   0  10  486.29   85.55
   5   0  10  411.00   87.65
  -6   0 -10 -329.37  322.68
  -6   0 -10  236.29   47.84
  -6   0 -10  162.18   54.59
   6   0  10  282.69   49.41
   6   0  10  367.82   54.16
  -7   0 -10 -166.03  289.50
  -7   0 -10   -1.22   11.64
   7   0  10   21.69   16.61
   7   0  10    7.12   13.57
  -8   0 -10   82.08   23.19
   8   0  10   79.15   27.31
  -9   0 -10   18.37   16.00
  -9   0 -10 -521.00  426.55
   9   0  10   20.92   19.44
  12  -1 -10 -113.41  144.87
  12  -1 -10   -8.30   74.44
  11  -1 -10  -17.40  142.43
  11  -1 -10  139.30   88.18
  11  -1 -10   81.30   19.75
  10  -1 -10   53.62   79.63
  10  -1 -10   65.94  138.33
  10  -1 -10   -1.58    8.13
  10  -1 -10   12.01    8.27
   9  -1 -10  123.81   25.60
   9  -1 -10  211.38  179.29
   9  -1 -10  156.84   88.55
   9  -1 -10  122.41   25.60
   8  -1 -10  141.42   79.70
   8  -1 -10   34.13  139.87
   7  -1 -10  594.68  277.43
   7  -1 -10  315.49  135.05
   6  -1 -10  325.59  136.84
   6  -1 -10  806.37  287.50
  -6   1  10  421.31   82.96
   5  -1 -10   -7.14   44.62
   5  -1 -10  -66.95  112.27
  -5   1  10   -7.45   11.57
   4  -1 -10  249.62   88.01
   4  -1 -10  344.41  174.05
  -4   1  10  169.19   39.32
   3  -1 -10    6.98   51.65
   3  -1 -10  -60.49   88.91
  -3   1  10    5.35   13.01
  -3   1  10   16.61   11.00
   2  -1 -10  244.48  214.97
   2  -1 -10  277.83  116.24
  -2   1  10  374.70   69.05
  -2   1  10  410.69   72.00
   1  -1 -10   57.72   58.68
   1  -1 -10   93.00  139.62
  -1   1  10  145.20   25.40
  -1   1  10   81.41   25.89
   0  -1 -10  309.49   94.40
   0  -1 -10   43.31  166.23
   0   1  10  278.02   51.16
   0   1  10  288.75   53.71
  -1  -1 -10  197.93   67.61
  -1  -1 -10  -40.34  119.21
   1   1  10  219.59   36.06
   1   1  10  142.31   32.05
  -2  -1 -10   29.16  121.17
   2   1  10  185.14   34.52
   2   1  10  172.41   36.18
  -3  -1 -10 -146.10  247.32
  -3  -1 -10  136.24  143.94
   3   1  10  274.41   43.64
   3   1  10  244.80   44.86
  -4  -1 -10  -56.27   81.62
  -4  -1 -10 -285.84  189.28
   4   1  10   25.83   12.76
   4   1  10   24.00   14.69
  -5  -1 -10  -69.78  223.65
  -5  -1 -10  -14.78   89.88
   5   1  10  148.59   26.65
   5   1  10  119.88   27.19
  -6  -1 -10 -204.15  245.86
   6   1  10   42.37   17.43
   6   1  10   33.75   19.34
  -7  -1 -10 -130.78  270.65
   7   1  10   -5.14   14.38
   7   1  10    2.42   14.73
  -8  -1 -10   38.84   19.20
  -8  -1 -10    2.80   12.06
   8   1  10   22.11   17.61
  11  -2 -10   12.67  184.96
  11  -2 -10   53.94   87.18
  10  -2 -10  -43.82  158.74
  10  -2 -10   18.37   80.10
   9  -2 -10  -43.54  141.32
   9  -2 -10   -2.50   71.54
   8  -2 -10    2.54   60.62
   8  -2 -10  -41.19  133.27
   7  -2 -10  -99.04  129.50
   7  -2 -10   76.34   65.08
   6  -2 -10   46.47   58.54
   6  -2 -10  138.40  171.88
  -6   2  10   77.84   22.21
   5  -2 -10  -31.86   55.28
   5  -2 -10  261.99  180.96
  -5   2  10   22.94   13.77
   4  -2 -10   46.47  147.69
   4  -2 -10  124.32   69.02
  -4   2  10   20.31   12.95
   3  -2 -10  380.06  284.87
   3  -2 -10  617.85  154.29
  -3   2  10  490.99   89.96
  -3   2  10  476.66   94.11
   2  -2 -10  142.16  222.06
   2  -2 -10  387.79  123.98
  -2   2  10  385.48   75.53
  -2   2  10  446.39   73.65
   1  -2 -10   27.34   45.57
   1  -2 -10   39.21  130.53
  -1   2  10   24.05   12.89
  -1   2  10   16.13   12.95
   0  -2 -10   43.85  118.47
   0  -2 -10  -44.10   34.30
   0   2  10   45.06   15.03
   0   2  10   21.05   13.00
  -1  -2 -10   82.59   56.52
  -1  -2 -10   -8.98  114.78
   1   2  10  199.32   30.27
   1   2  10  119.07   30.37
  -2  -2 -10   33.44  175.30
   2   2  10  366.02   60.19
   2   2  10  351.56   63.05
  -3  -2 -10  -55.11  218.63
  -3  -2 -10  -81.58   99.38
   3   2  10  177.38   28.61
   3   2  10  153.75   30.29
  -4  -2 -10   24.86  101.24
  -4  -2 -10   23.07  206.71
   4   2  10   78.73   20.31
   4   2  10   49.48   17.53
  -5  -2 -10  -43.62  231.22
  -5  -2 -10   29.98  101.30
   5   2  10   60.13   20.41
   5   2  10   62.52   18.98
  -6  -2 -10  -76.10  235.05
   6   2  10   25.47   14.61
   6   2  10   30.02   16.52
  -7  -2 -10 -423.04  262.88
   7   2  10    8.07   16.89
  -8  -2 -10 -397.88  310.61
   8   2  10   24.81   17.76
  11  -3 -10   17.82   78.96
  11  -3 -10   90.58  195.75
  10  -3 -10  106.99  214.66
  10  -3 -10  267.10  120.47
   9  -3 -10   -0.20  175.88
   9  -3 -10    5.95   64.16
   8  -3 -10    8.70  166.60
   8  -3 -10  218.71   94.15
   7  -3 -10  112.29   86.08
   7  -3 -10  -87.45  169.10
  -7   3  10  227.90   39.53
   6  -3 -10  154.24   81.10
   6  -3 -10  143.29  189.67
   5  -3 -10  128.86   85.72
   5  -3 -10  105.92  181.47
  -5   3  10  213.08   40.27
   4  -3 -10   79.98  143.98
   4  -3 -10    1.40   53.25
  -4   3  10    6.72   12.30
  -4   3  10   21.17   15.03
   3  -3 -10  235.47  318.47
   3  -3 -10  669.77  188.23
  -3   3  10  614.55  117.61
  -3   3  10  718.53  114.50
   2  -3 -10  108.46  160.45
   2  -3 -10   39.72   59.30
  -2   3  10  155.52   28.80
  -2   3  10  124.62   29.76
   1  -3 -10   20.50   43.68
   1  -3 -10  -12.34  105.97
  -1   3  10    8.01   11.88
  -1   3  10   18.83   11.81
   0  -3 -10  139.46  146.32
   0  -3 -10   85.09   58.18
   0   3  10  147.74   29.73
   0   3  10  148.36   32.10
  -1  -3 -10   92.16   57.92
  -1  -3 -10  -83.17  113.82
   1   3  10  167.47   28.74
   1   3  10  136.97   29.89
   2   3  10  466.35   90.45
   2   3  10  475.07   87.62
  -3  -3 -10  -70.75   95.08
   3   3  10   59.86   14.75
   3   3  10   24.60   15.76
  -4  -3 -10   72.21  110.29
   4   3  10   42.86   16.37
   4   3  10   48.52   17.75
  -5  -3 -10  179.89  272.89
  -5  -3 -10 -117.07  100.18
   5   3  10    8.40   12.29
   5   3  10  -30.80   13.65
  -6  -3 -10 -324.34  242.75
   6   3  10   65.37   19.61
  -7  -3 -10 -236.85  282.67
   7   3  10   -4.42   16.88
  11  -4 -10   22.95   87.33
  11  -4 -10    4.11  183.39
  10  -4 -10   82.69   96.83
  10  -4 -10  -44.42  169.67
   9  -4 -10   74.92  195.50
   9  -4 -10   12.90   80.77
   8  -4 -10   -8.76   69.74
   8  -4 -10  -97.28  122.26
   7  -4 -10  -47.57   63.06
   7  -4 -10  120.70  182.74
  -7   4  10   -9.90   12.40
   6  -4 -10   57.93  164.45
   6  -4 -10   42.72   74.30
  -6   4  10   81.62   22.23
   5  -4 -10  -73.87  142.89
   5  -4 -10  136.02   77.03
  -5   4  10   62.17   18.32
   4  -4 -10  -25.15   56.33
   4  -4 -10  119.71  163.51
  -4   4  10   70.06   21.00
  -4   4  10   71.09   18.96
   3  -4 -10   11.21  129.43
   3  -4 -10   83.92   64.17
  -3   4  10   87.87   25.67
  -3   4  10  141.85   26.16
   2  -4 -10  -67.65  134.07
   2  -4 -10    7.97   51.95
  -2   4  10   68.55   19.46
  -2   4  10  128.21   23.51
   1  -4 -10  113.28  151.97
   1  -4 -10   60.43   53.93
  -1   4  10  -12.29   11.45
  -1   4  10    8.23   10.69
   0  -4 -10  115.66   72.03
   0  -4 -10  -38.06  128.79
   0   4  10  188.41   35.45
   0   4  10  229.55   39.06
  -1  -4 -10  -17.77  159.61
   1   4  10  259.53   48.81
   1   4  10  260.10   46.04
  -2  -4 -10   49.56  129.46
   2   4  10   59.46   19.14
  -3  -4 -10  -38.61  110.40
   3   4  10   20.46   13.22
  -4  -4 -10  -60.88  106.02
   4   4  10   60.43   18.38
   5   4  10    8.79   14.78
  -6  -4 -10   22.94  291.24
  -7  -4 -10 -149.91  327.81
  10  -5 -10   17.54   88.15
  10  -5 -10  -32.54  164.96
   9  -5 -10   46.81   83.99
   9  -5 -10   15.69  185.16
   8  -5 -10  -29.63  165.00
   8  -5 -10   52.70   89.04
  -8   5  10   45.94   20.30
   7  -5 -10  299.36  105.26
   7  -5 -10  -17.16  168.99
  -7   5  10  129.57   30.94
   6  -5 -10  232.52  119.69
   6  -5 -10  123.21  209.47
  -6   5  10  367.62   62.15
   5  -5 -10  -79.70  128.47
   5  -5 -10  -40.43   56.09
  -5   5  10   17.95   11.65
   4  -5 -10  222.03   90.14
   4  -5 -10  151.68  187.82
  -4   5  10  141.69   41.48
  -4   5  10  258.43   41.13
   3  -5 -10  -70.06  108.23
   3  -5 -10  101.31   66.97
  -3   5  10   -3.21   12.41
  -3   5  10    5.01   11.34
   2  -5 -10  195.10   84.53
   2  -5 -10  -29.42  145.27
  -2   5  10  275.13   44.86
   1  -5 -10   69.48   63.57
   1  -5 -10   47.29  146.55
  -1   5  10   99.77   24.02
   0  -5 -10   -9.54   49.92
   0  -5 -10   98.38  152.18
   0   5  10  157.76   27.82
  -1  -5 -10   37.91  191.61
   1   5  10  397.30   64.32
  -2  -5 -10  152.64  162.45
  -3  -5 -10    0.60  128.57
  -4  -5 -10   15.27  132.85
  10  -6 -10   78.74  213.24
   9  -6 -10    2.91  189.54
   9  -6 -10  103.69   91.80
  -9   6  10   32.51   20.15
   8  -6 -10  -20.07   77.23
   8  -6 -10  132.98  190.15
  -8   6  10   26.80   17.34
   7  -6 -10   69.37  191.08
   7  -6 -10  157.42   85.56
  -7   6  10  112.90   28.39
   6  -6 -10 -154.81  112.88
   6  -6 -10  178.96   83.15
  -6   6  10   69.14   19.32
   5  -6 -10  -18.40  144.27
   5  -6 -10   23.57   70.16
  -5   6  10   -8.91   13.17
   4  -6 -10   11.32   54.90
   4  -6 -10  -32.81  134.69
  -4   6  10   -8.17   13.52
   3  -6 -10 -102.36   60.58
   3  -6 -10   -9.49  129.62
  -3   6  10   47.37   16.95
   2  -6 -10   13.62  154.34
   2  -6 -10  138.04   86.18
  -2   6  10  280.05   45.79
   1  -6 -10  -62.68   45.33
   1  -6 -10  -52.08  108.42
  -1   6  10   18.77   13.13
   0  -6 -10  -10.96  122.16
   0  -6 -10   16.76   61.26
  -1  -6 -10   -9.04  131.32
  -2  -6 -10    3.49  147.09
  -3  -6 -10 -109.25  126.92
   9  -7 -10   96.80  195.38
   8  -7 -10   48.66   87.30
   8  -7 -10   83.35  190.28
   7  -7 -10   73.02   80.86
   7  -7 -10  117.74  172.07
   6  -7 -10   84.56   79.69
   6  -7 -10   -2.93  152.31
  -6   7  10    8.12   16.58
   5  -7 -10   44.54  183.98
   5  -7 -10  111.79   81.97
  -5   7  10  129.32   31.06
   4  -7 -10  -31.96   57.16
   4  -7 -10 -188.96  116.83
  -4   7  10    8.40   13.56
   3  -7 -10  240.03   79.39
   3  -7 -10  -83.70  151.75
   2  -7 -10   42.09   53.83
   2  -7 -10   -5.27  150.80
   1  -7 -10   -8.19  129.36
   1  -7 -10  -12.52   53.73
   0  -7 -10   44.94  159.96
  -1  -7 -10  -13.92  155.43
  -2  -7 -10   -2.84  150.90
  -3  -7 -10   20.06  158.40
   7  -8 -10  -88.87  178.87
   7  -8 -10   22.38   83.49
   6  -8 -10   77.70  178.91
   6  -8 -10  101.83   96.20
   5  -8 -10  -27.56  169.67
   5  -8 -10  154.57   89.11
   4  -8 -10   45.58   72.74
   4  -8 -10   11.00  157.38
   3  -8 -10  116.12  185.91
   3  -8 -10  166.36   88.40
   2  -8 -10   76.07  179.19
   2  -8 -10   14.30   68.47
   1  -8 -10  -90.23  140.49
   1  -8 -10   28.48   61.16
   0  -8 -10   94.55  188.85
  -1  -8 -10   95.77  190.44
   4  -9 -10  -15.83  179.92
   3  -9 -10 -119.78  145.99
  -2 -14  11   65.75   37.75
  -1 -14  11  139.33   48.57
   0 -14  11    5.48   29.67
   1 -14  11  110.64   43.52
   2 -14  11   24.18   19.16
   2 -14  11   59.88   32.83
   3 -14  11  177.36   56.64
   3 -14  11  170.74   40.52
   4 -14  11  119.31   41.96
   4 -14  11   39.34   22.96
   5 -14  11  156.30   34.26
   5 -14  11   55.43   44.30
  -4 -13  11   50.48   32.12
  -3 -13  11   40.96   29.22
  -2 -13  11  382.83   95.19
  -1 -13  11  113.72   39.96
  -1 -13  11   93.38   26.81
   0 -13  11   -5.16   14.72
   0 -13  11   -9.84   23.92
   1 -13  11   -2.36   26.89
   1 -13  11   94.56   23.16
   2 -13  11   85.18   33.30
   2 -13  11   40.00   21.23
   3 -13  11  152.10   36.83
   3 -13  11  138.97   48.43
   4 -13  11   86.35   35.81
   4 -13  11   38.04   19.30
   4 -13  11   33.91   20.12
   5 -13  11    9.69   19.46
   5 -13  11   12.27   16.85
   5 -13  11   47.45   32.98
   6 -13  11  -35.60   16.36
   6 -13  11  -28.96   28.48
   6 -13  11   -7.55   17.64
  -5 -12  11  173.36   37.69
  -5 -12  11  134.42   48.50
  -4 -12  11   38.59   20.00
  -4 -12  11   60.90   30.50
  -3 -12  11   23.88   25.22
  -3 -12  11   34.06   18.60
  -3 -12  11   55.46  100.85
  -2 -12  11   91.99   35.23
  -2 -12  11  105.33   27.89
  -1 -12  11  -10.98   14.24
  -1 -12  11   10.72   22.31
   0 -12  11  141.77   41.76
   0 -12  11  110.69   30.01
   1 -12  11  153.22   35.45
   1 -12  11  165.83   36.92
   1 -12  11  148.82   47.65
   2 -12  11  387.54   87.29
   2 -12  11  308.74   68.78
   2 -12  11  361.53   69.64
   3 -12  11  184.91   34.28
   3 -12  11  124.14   44.35
   3 -12  11   95.05   31.92
   4 -12  11  105.10   36.71
   4 -12  11   62.41   24.29
   4 -12  11   48.91   22.96
   5 -12  11   59.16   25.44
   5 -12  11  100.16   37.78
   5 -12  11   85.65   27.52
   6 -12  11  145.58   40.08
   6 -12  11  194.90   40.57
   6 -12  11  142.90   52.64
   7 -12  11   96.06   50.17
   7 -12  11  194.49   41.79
   7 -12  11  183.71   40.95
   8 -12  11   -6.17   20.08
  -7 -11  11   21.26   20.47
  -7 -11  11   30.81   29.49
  -6 -11  11    6.04   26.20
  -6 -11  11   86.62   23.32
  -5 -11  11   67.57   23.95
  -5 -11  11   67.29   32.09
  -4 -11  11  -16.21   18.13
  -4 -11  11   30.05   15.58
  -3 -11  11  187.44   57.18
  -3 -11  11  242.36   46.27
  -2 -11  11   -8.18   10.44
  -2 -11  11    3.52   14.78
  -2 -11  11   -6.23   18.57
  -1 -11  11   99.58   25.66
  -1 -11  11    3.69   84.49
  -1 -11  11  110.30   26.86
  -1 -11  11  120.75   37.52
   0 -11  11    5.52   14.07
   0 -11  11   27.07   21.65
   0 -11  11    4.79   12.68
   1 -11  11  103.98   26.74
   1 -11  11   99.67   36.36
   1 -11  11   91.67   25.90
   2 -11  11  451.78   81.28
   2 -11  11  424.95   81.83
   2 -11  11  360.62   96.93
   3 -11  11   95.92   26.00
   3 -11  11   49.26   32.94
   3 -11  11  104.51   25.48
   4 -11  11  -20.75   21.75
   4 -11  11    1.44   16.69
   4 -11  11  -21.34   14.63
   5 -11  11  -26.35   13.43
   5 -11  11   27.47   25.81
   5 -11  11    3.29   17.11
   6 -11  11  274.09   53.12
   6 -11  11  192.39   62.08
   6 -11  11  216.84   50.00
   7 -11  11  114.66   44.84
   7 -11  11  162.48   37.62
   7 -11  11  118.91   36.26
   8 -11  11    4.39   17.93
   8 -11  11   78.20   33.22
   8 -11  11  -60.24   12.81
  -8 -10  11   26.18   34.46
  -8 -10  11  104.49   26.16
  -7 -10  11  -15.40   15.87
  -7 -10  11  -17.69   22.11
  -6 -10  11   48.89   30.93
  -6 -10  11   91.47   24.21
  -5 -10  11   11.33   15.42
  -5 -10  11  -40.80   18.83
  -5 -10  11   18.48   13.87
  -4 -10  11  -19.82   20.42
  -4 -10  11   17.39   14.70
  -4 -10  11    0.35   14.61
  -3 -10  11   -0.68   15.30
  -3 -10  11   19.51   14.56
  -3 -10  11  -19.74   12.58
  -2 -10  11   85.13   31.39
  -2 -10  11  109.90   24.50
  -2 -10  11   73.48   24.30
  -1 -10  11  775.53  148.49
  -1 -10  11  786.69  146.01
  -1 -10  11  864.62  174.55
   0 -10  11   26.82   14.46
   0 -10  11  -15.32   11.83
   0 -10  11   15.63   18.79
   1 -10  11   83.30   33.08
   1 -10  11  149.73   29.10
   1 -10  11   88.41   26.30
   2 -10  11   95.29   29.64
   2 -10  11   60.80   20.92
   2 -10  11   55.89   21.90
   3 -10  11   82.10   23.21
   3 -10  11   77.95   31.28
   3 -10  11   67.56   23.07
   4 -10  11   37.27   18.60
   4 -10  11   42.17   25.36
   4 -10  11   19.98   18.03
   5 -10  11  214.08   51.86
   5 -10  11  257.93   51.96
   5 -10  11  253.52   62.57
   6 -10  11  381.69   74.70
   6 -10  11  293.84   71.15
   6 -10  11  445.92   90.13
   7 -10  11   -4.40   22.60
   7 -10  11   14.94   18.91
   7 -10  11  -13.74   16.65
   8 -10  11   54.29   26.64
   8 -10  11   85.87   27.80
   8 -10  11   86.41   35.67
   9 -10  11  -25.12   20.52
   9 -10  11   16.73   23.08
  -8  -9  11  143.42   59.51
  -8  -9  11  -13.20   25.79
  -7  -9  11  101.30   55.34
  -7  -9  11  122.11   30.00
  -7  -9  11  134.70   31.04
  -7  -9  11   56.32   38.65
  -6  -9  11   68.20   63.09
  -6  -9  11  233.57   49.11
  -6  -9  11  247.26   61.26
  -6  -9  11  291.42   50.50
  -5  -9  11  -24.41   18.56
  -5  -9  11   52.16   43.80
  -5  -9  11    3.65   13.18
  -5  -9  11   -5.38   13.36
   4   9 -11  149.13   41.90
  -4  -9  11  183.08   39.56
  -4  -9  11  215.35   40.36
  -4  -9  11  172.46   47.16
   3   9 -11   21.42   16.32
  -3  -9  11    2.91   15.13
  -3  -9  11    5.53   12.63
  -3  -9  11    3.77   13.50
   2   9 -11  566.04  113.00
  -2  -9  11  524.59  105.22
  -2  -9  11  495.87  124.21
  -2  -9  11  665.96  104.34
   1   9 -11  180.84   41.25
  -1  -9  11  186.21   38.75
  -1  -9  11  188.33   46.93
  -1  -9  11  149.76   37.88
   0   9 -11  112.06   30.33
   0  -9  11  128.86   28.46
   0  -9  11   85.38   27.23
   0  -9  11  151.42   37.05
  -1   9 -11   59.22   20.84
   1  -9  11   35.23   15.80
   1  -9  11   49.17   20.89
   1  -9  11   -0.84   13.67
  -2   9 -11   12.96   14.90
   2  -9  11  -26.99   12.08
   2  -9  11    4.56   13.49
   2  -9  11   -5.61   16.14
  -3   9 -11  387.00   67.62
   3  -9  11  279.51   61.01
   3  -9  11  297.00   72.97
   3  -9  11  275.89   62.27
  -4   9 -11    8.83   18.34
   4  -9  11   -6.89   12.96
   4  -9  11    5.71   14.85
   4  -9  11   17.92   18.79
  -5   9 -11  179.09   49.22
   5  -9  11  263.60   57.35
   5  -9  11  206.54   47.84
   5  -9  11  226.85   46.47
  -6   9 -11  172.04   48.95
   6  -9  11  196.34   55.26
   6  -9  11  197.44   47.42
   6  -9  11  279.61   48.23
   7  -9  11   -3.10   17.72
   7  -9  11  -15.49   16.50
   7  -9  11   -5.80   20.85
   8  -9  11    8.61   15.54
   8  -9  11   21.40   19.30
   9  -9  11  126.12   32.66
   9  -9  11   65.89   29.55
   9   8 -11  -28.94   56.91
  -9  -8  11  198.92   50.52
  -9  -8  11  125.46   63.87
  -9  -8  11  147.91   34.41
   8   8 -11  -11.29   46.37
   8   8 -11   32.13   20.53
  -8  -8  11    7.27   18.48
  -8  -8  11  -15.61   30.60
  -8  -8  11   40.70   48.98
   7   8 -11  169.81   65.40
   7   8 -11  180.03   39.82
  -7  -8  11  125.95   33.63
  -7  -8  11   -1.31   52.89
  -7  -8  11  140.18   43.59
   6   8 -11   25.17   42.18
   6   8 -11   -1.22   18.06
  -6  -8  11   66.40   28.44
  -6  -8  11  103.91   22.38
  -6  -8  11  -44.91   37.73
  -6  -8  11   40.74   17.75
   5   8 -11   17.51   36.56
   5   8 -11    4.79   15.45
  -5  -8  11   -9.43   12.57
  -5  -8  11   -1.77   14.48
  -5  -8  11   75.35   42.71
  -5  -8  11   -5.07   18.50
   4   8 -11    9.85   31.88
   4   8 -11   27.00   16.70
  -4  -8  11   14.86   13.01
  -4  -8  11  -25.51   19.57
  -4  -8  11   -0.24   14.04
  -4  -8  11   23.58   38.13
   3   8 -11   47.12   19.64
   3   8 -11   62.78   40.76
  -3  -8  11   53.13   18.24
  -3  -8  11   60.67   19.78
  -3  -8  11   63.85   25.78
   2   8 -11  504.97   91.36
  -2  -8  11  358.23   99.21
  -2  -8  11  489.39   86.84
  -2  -8  11  450.94   84.42
   1   8 -11  264.47   51.41
  -1  -8  11  255.36   47.86
  -1  -8  11  227.08   47.86
  -1  -8  11  188.25   55.22
   0   8 -11   23.39   17.74
   0  -8  11   51.72   16.96
   0  -8  11   49.16   20.93
   0  -8  11   42.56   16.28
  -1   8 -11   12.84   14.43
   1  -8  11   49.54   15.73
   1  -8  11    1.71   12.67
   1  -8  11   38.45   18.25
  -2   8 -11  223.05   55.93
   2  -8  11  307.03   63.64
   2  -8  11  280.61   54.91
   2  -8  11  246.98   52.75
  -3   8 -11  154.18   29.68
   3  -8  11   71.89   25.66
   3  -8  11  120.50   32.54
   3  -8  11   72.49   25.11
  -4   8 -11   54.42   20.02
   4  -8  11   50.91   18.87
   4  -8  11   17.44   19.10
   4  -8  11   34.87   17.51
  -5   8 -11  390.32   76.48
   5  -8  11  401.04   84.36
   5  -8  11  331.01   72.47
   5  -8  11  318.95   70.44
  -6   8 -11   29.79   20.29
   6  -8  11   41.81   17.06
   6  -8  11   22.75   19.33
   6  -8  11   11.01   20.92
  -7   8 -11  172.51   47.07
   7  -8  11  224.09   45.73
   7  -8  11  194.57   45.82
  -8   8 -11   -1.39   20.99
   8  -8  11    2.71   18.68
   8  -8  11   19.85   19.11
  -9   8 -11  177.46   56.08
   9  -8  11  293.49   57.31
   9  -8  11  273.50   54.84
  10   7 -11  167.81   42.52
  10   7 -11  172.00   87.72
 -10  -7  11  257.11   62.69
 -10  -7  11    7.28   59.14
 -10  -7  11  142.95   39.92
   9   7 -11   99.84   66.11
   9   7 -11  148.82   33.85
  -9  -7  11   67.09   59.72
  -9  -7  11   77.67   28.25
  -9  -7  11   89.83   45.85
   8   7 -11  -16.82   15.50
   8   7 -11   25.38   50.87
  -8  -7  11   15.82   16.29
  -8  -7  11  -28.32   39.84
  -8  -7  11    3.43   28.69
   7   7 -11   99.69   54.63
   7   7 -11   34.70   20.64
  -7  -7  11   55.36   22.38
  -7  -7  11  102.42   37.19
  -7  -7  11   57.78   45.18
   6   7 -11   20.08   19.21
   6   7 -11   29.39   44.67
  -6  -7  11   60.78   25.93
  -6  -7  11   41.95   42.12
  -6  -7  11   52.92   19.76
   5   7 -11  312.44   85.70
   5   7 -11  209.63   52.63
  -5  -7  11  277.69   51.28
  -5  -7  11  152.48   65.64
  -5  -7  11  200.55   59.99
  -5  -7  11  299.13   52.02
   4   7 -11  -10.82   11.56
   4   7 -11  -12.08   34.65
  -4  -7  11   -4.08   13.52
  -4  -7  11    7.67   13.59
  -4  -7  11  -41.96   16.63
  -4  -7  11    2.97   31.41
   3   7 -11  493.42   91.36
   3   7 -11  477.32  129.52
  -3  -7  11  443.92  101.34
  -3  -7  11  522.62   86.49
  -3  -7  11  207.05   97.68
  -3  -7  11  453.66   86.56
   2   7 -11  130.43   35.13
   2   7 -11  119.62   53.77
  -2  -7  11  166.99   40.85
  -2  -7  11  158.36   34.33
  -2  -7  11  167.09   33.62
   1   7 -11   30.83   26.99
   1   7 -11   13.99   14.21
  -1  -7  11   38.62   14.71
  -1  -7  11    8.06   16.62
  -1  -7  11   10.33   13.21
   0   7 -11   91.08   31.57
   0   7 -11   93.10   24.26
   0  -7  11   61.65   21.80
   0  -7  11   95.07   26.90
   0  -7  11   78.49   22.68
  -1   7 -11  156.49   37.64
   1  -7  11  166.30   36.95
   1  -7  11  167.52   35.25
   1  -7  11  164.96   42.64
  -2   7 -11  926.89  173.54
   2  -7  11  896.20  165.96
   2  -7  11  923.17  162.17
   2  -7  11  844.12  191.00
  -3   7 -11  117.89   33.12
   3  -7  11  112.28   36.46
   3  -7  11  158.22   32.50
   3  -7  11  158.19   33.60
  -4   7 -11  136.14   31.49
   4  -7  11  128.68   34.51
   4  -7  11   86.35   27.53
   4  -7  11  132.55   31.95
  -5   7 -11   51.18   19.15
   5  -7  11   37.96   17.47
   5  -7  11   23.07   21.02
   5  -7  11   45.80   19.34
  -6   7 -11    9.40   19.30
   6  -7  11   78.50   22.44
   6  -7  11   95.28   24.91
   6  -7  11   45.19   24.22
  -7   7 -11  169.19   37.87
   7  -7  11  129.22   35.72
   7  -7  11  112.64   31.97
  -8   7 -11   37.29   21.78
   8  -7  11   -3.27   14.97
   8  -7  11    7.46   19.45
  -9   7 -11   42.96   29.93
   9  -7  11  127.58   33.72
   9  -7  11  144.57   32.05
 -10   7 -11    6.75   24.23
  10  -7  11   87.20   29.11
  10  -7  11   -9.53   19.77
  10   6 -11   83.72   28.48
  10   6 -11   62.44   67.04
 -10  -6  11   90.61   41.53
 -10  -6  11   98.26   54.55
 -10  -6  11   63.19   26.78
   9   6 -11   24.87   64.06
   9   6 -11  114.83   32.44
  -9  -6  11   90.23   31.16
  -9  -6  11   69.23   53.36
  -9  -6  11  197.62   46.66
   8   6 -11   22.11   56.70
   8   6 -11   50.52   21.77
  -8  -6  11    6.69   17.55
  -8  -6  11  -18.21   35.04
  -8  -6  11  102.79   33.58
   7   6 -11   43.33   18.62
   7   6 -11    5.26   46.60
  -7  -6  11   -9.55   31.88
  -7  -6  11   -9.26   22.15
  -7  -6  11   14.91   15.22
   6   6 -11  284.47   54.98
   6   6 -11  210.36   85.20
  -6  -6  11  203.37   59.86
  -6  -6  11  180.75   64.78
  -6  -6  11  291.14   51.98
   5   6 -11  229.49   52.21
   5   6 -11  316.12   86.84
  -5  -6  11  169.78   48.95
  -5  -6  11  282.62   67.01
  -5  -6  11  275.47   50.22
  -5  -6  11  264.31   60.88
   4   6 -11  -15.58   37.43
   4   6 -11   21.69   13.62
  -4  -6  11  -11.78   16.65
  -4  -6  11   16.92   13.61
  -4  -6  11   14.76   14.19
  -4  -6  11  -14.72   28.21
   3   6 -11   24.18   37.05
   3   6 -11   14.86   13.53
  -3  -6  11    3.87   13.41
  -3  -6  11  -39.45   24.73
  -3  -6  11   47.31   22.54
  -3  -6  11  -11.28   10.80
   2   6 -11  368.64   81.13
   2   6 -11  473.24  118.15
  -2  -6  11  376.33   77.92
  -2  -6  11  396.92   76.44
  -2  -6  11  432.73   90.60
   1   6 -11  152.65   30.11
   1   6 -11  138.69   46.69
  -1  -6  11   81.52   25.29
  -1  -6  11  135.23   28.42
  -1  -6  11   94.21   30.90
   0   6 -11   -9.79   11.71
   0   6 -11   28.48   24.32
   0  -6  11   14.44   12.13
   0  -6  11   24.05   14.07
   0  -6  11   -8.10   10.29
  -1   6 -11  424.90   86.62
   1  -6  11  427.07   94.67
   1  -6  11  440.32   83.72
   1  -6  11  421.11   81.09
  -2   6 -11  614.59  319.97
  -2   6 -11  239.48   57.27
   2  -6  11  270.65   55.13
   2  -6  11  293.00   57.03
   2  -6  11  261.70   63.75
  -3   6 -11   10.09   13.28
   3  -6  11  -10.75   12.00
   3  -6  11   17.28   12.88
   3  -6  11    4.32   13.15
  -4   6 -11   18.78   17.77
   4  -6  11   51.70   18.13
   4  -6  11   65.29   19.81
   4  -6  11   51.28   19.24
  -5   6 -11  210.61   43.83
   5  -6  11  179.26   42.38
   5  -6  11  169.40   40.99
   5  -6  11  192.26   46.34
  -6   6 -11  264.91   60.02
   6  -6  11  341.07   58.43
   6  -6  11  235.93   58.08
  -7   6 -11   43.15   20.24
   7  -6  11    8.55   18.58
   7  -6  11    6.45   17.53
  -8   6 -11   88.27   31.39
   8  -6  11  140.78   34.39
   8  -6  11  114.98   31.09
  -9   6 -11   68.38   26.58
   9  -6  11   77.79   26.41
   9  -6  11   27.15   22.80
 -10   6 -11  -16.70   22.73
  10  -6  11  -13.72   18.74
  10  -6  11   -1.48   22.63
  11   5 -11  134.44   90.69
 -11  -5  11  151.86   41.02
  10   5 -11   37.24   23.39
  10   5 -11   21.67   64.42
 -10  -5  11   65.29   24.77
   9   5 -11   14.94   58.21
   9   5 -11   49.50   22.34
  -9  -5  11    8.43   18.40
   8   5 -11  -16.49   49.73
   8   5 -11   10.65   17.24
  -8  -5  11   -5.00   16.81
  -8  -5  11   -7.89   32.05
   7   5 -11   79.52   61.41
   7   5 -11  119.12   30.79
  -7  -5  11  117.89   29.93
  -7  -5  11   59.61   41.17
   6   5 -11  515.68  100.62
   6   5 -11  497.36  148.55
  -6  -5  11  598.34   96.54
  -6  -5  11  329.54  106.73
   5   5 -11  162.66   59.63
   5   5 -11  106.33   26.61
  -5  -5  11   22.60   35.70
  -5  -5  11  100.33   26.05
   4   5 -11   89.86   52.93
   4   5 -11   99.01   27.38
  -4  -5  11  137.41   42.98
  -4  -5  11  128.54   27.41
  -4  -5  11  118.10   33.18
  -4  -5  11   83.43   26.40
   3   5 -11   -7.88   11.16
   3   5 -11   23.50   37.72
  -3  -5  11   72.11   30.13
  -3  -5  11    2.38   15.66
  -3  -5  11   -0.47   12.55
  -3  -5  11   16.01   13.08
   2   5 -11 1013.64  248.31
   2   5 -11  965.23  181.35
  -2  -5  11  940.09  169.81
  -2  -5  11  943.16  173.69
  -2  -5  11  888.04  200.23
   1   5 -11  200.96   73.71
   1   5 -11  220.68   48.33
  -1  -5  11  247.92   46.25
  -1  -5  11  229.31   47.07
  -1  -5  11  232.53   54.03
   0   5 -11    6.27   28.34
   0   5 -11   23.32   12.99
   0  -5  11    3.34   10.89
   0  -5  11    6.44   11.40
   0  -5  11   40.01   14.97
  -1   5 -11  676.27  130.25
  -1   5 -11  785.04  177.12
   1  -5  11  646.34  142.91
   1  -5  11  721.71  125.57
   1  -5  11  581.83  121.89
  -2   5 -11   94.53   24.59
  -2   5 -11   12.65  185.93
   2  -5  11   52.27   22.70
   2  -5  11   99.39   24.07
   2  -5  11  148.01   27.92
  -3   5 -11  488.84  311.33
  -3   5 -11  107.08   31.35
   3  -5  11  136.74   32.35
   3  -5  11  137.01   33.99
   3  -5  11  135.60   30.64
  -4   5 -11  154.28  115.57
  -6   5 -11  281.79   66.23
  -6   5 -11  561.65  609.02
   6  -5  11  366.90   67.29
   6  -5  11  308.28   63.40
  -7   5 -11 1112.36 1058.52
  -8   5 -11  728.44  668.81
   8  -5  11   56.20   27.65
  11   4 -11   64.14   27.01
  11   4 -11  130.53   86.36
  10   4 -11   27.50   20.56
  10   4 -11    4.15   65.45
   9   4 -11  117.28   74.43
   9   4 -11   85.46   27.24
  -9  -4  11   65.63   26.30
   8   4 -11   74.15   24.65
   8   4 -11   47.14   55.58
  -8  -4  11   81.61   24.77
   7   4 -11  201.02   72.69
   7   4 -11  115.44   31.12
  -7  -4  11  109.31   29.74
   6   4 -11  339.01   71.19
   6   4 -11  442.24  117.60
  -6  -4  11  213.59   79.48
  -6  -4  11  400.17   69.30
   5   4 -11   17.71   13.33
   5   4 -11   21.84   42.78
  -5  -4  11    7.87   15.14
  -5  -4  11   34.85   27.73
   4   4 -11   62.10   43.59
   4   4 -11    1.13   11.93
  -4  -4  11    8.43   30.17
  -4  -4  11   32.17   16.18
  -4  -4  11   15.77   13.63
   3   4 -11   28.20   13.76
   3   4 -11   17.54   42.21
  -3  -4  11   30.84   14.58
  -3  -4  11   32.55   14.06
  -3  -4  11    4.34   27.48
   2   4 -11  147.37   34.11
   2   4 -11  112.48   61.47
   2   4 -11  138.61   32.92
  -2  -4  11  151.37   33.59
  -2  -4  11  128.44   45.06
  -2  -4  11  135.89   32.45
  -2  -4  11  171.52   38.27
   1   4 -11  277.23   53.81
   1   4 -11  321.61   58.47
   1   4 -11  277.54   83.86
  -1  -4  11  260.71   51.14
  -1  -4  11  235.98   52.34
  -1  -4  11  223.88   58.93
   0   4 -11   83.69   30.24
   0   4 -11  139.63   45.57
   0   4 -11  105.17   22.70
   0  -4  11   59.21   20.72
   0  -4  11  100.72   23.94
   0  -4  11   83.06   24.26
  -1   4 -11  -25.14  124.62
  -1   4 -11   95.35   26.42
  -1   4 -11  105.03   44.32
  -1   4 -11  102.78   39.73
   1  -4  11  166.65   30.65
   1  -4  11  141.30   27.64
   1  -4  11  154.94   28.97
  -2   4 -11  -98.19  142.78
  -2   4 -11   19.31   13.13
   2  -4  11   34.15   14.18
   2  -4  11   56.61   18.47
   2  -4  11   55.24   14.93
  -3   4 -11   97.26  289.26
  -3   4 -11   73.79   19.71
  -3   4 -11  154.01  103.70
   3  -4  11   54.19   19.43
   3  -4  11   20.93   17.96
   3  -4  11   77.50   19.28
  -4   4 -11  222.58   42.90
  -4   4 -11  256.68  376.15
  -4   4 -11  447.71  143.27
   4  -4  11  175.84   44.34
   4  -4  11  154.91   40.13
   4  -4  11  165.55   42.27
  -5   4 -11  399.26  424.12
  -5   4 -11  168.04   41.33
   5  -4  11  232.31   43.97
   5  -4  11  157.41   39.71
  -6   4 -11   67.02   22.69
  -6   4 -11  279.98  361.26
   6  -4  11   86.07   23.37
   6  -4  11   61.58   22.57
  -7   4 -11  367.16  557.64
  -8   4 -11  395.15  646.00
  -9   4 -11 1178.25  815.28
  -9   4 -11  285.21   56.01
   9  -4  11  246.29   53.46
   9  -4  11  168.00   49.22
 -10   4 -11  515.64  838.28
  11   3 -11   20.79   19.89
  11   3 -11   -5.07   71.24
  10   3 -11   59.17   23.18
  10   3 -11   -4.37   66.69
   9   3 -11   85.86   25.97
   9   3 -11   41.02   64.94
   8   3 -11   86.25   26.69
   8   3 -11   42.10   66.85
  -8  -3  11  111.29   28.44
   7   3 -11  169.78   40.03
   7   3 -11  114.71   73.34
  -7  -3  11  211.68   41.12
   6   3 -11  -34.44   45.86
   6   3 -11   26.25   13.18
  -6  -3  11  -13.00   13.12
   5   3 -11   63.15   19.60
   5   3 -11  121.39   56.81
  -5  -3  11   73.11   22.48
   4   3 -11   42.63   13.65
   4   3 -11   45.53   14.12
   4   3 -11   96.06   49.29
  -4  -3  11   13.69   16.08
  -4  -3  11   42.99   30.39
  -4  -3  11   11.23   13.32
   3   3 -11 1160.73  231.90
   3   3 -11 1349.81  232.16
   3   3 -11 1023.16  321.51
  -3  -3  11 1361.27  218.24
  -3  -3  11  885.07  238.86
   2   3 -11  368.13   76.28
   2   3 -11  427.59  118.79
   2   3 -11  407.52   76.11
  -2  -3  11  197.45   81.61
  -2  -3  11  461.74   73.91
  -2  -3  11  407.59   75.16
   1   3 -11    0.13   12.09
   1   3 -11  -12.64   35.83
   1   3 -11   -3.69    8.57
  -1  -3  11    9.60   10.58
  -1  -3  11   50.38   15.01
  -1  -3  11   63.78   30.94
   0   3 -11  153.68   57.19
   0   3 -11  214.60   37.62
   0   3 -11  148.43   30.95
   0  -3  11  197.70   32.72
   0  -3  11   66.24   30.12
   0  -3  11  141.10   34.81
  -1   3 -11  -26.76   97.15
  -1   3 -11   38.07   34.43
  -1   3 -11   85.16  105.56
  -1   3 -11   18.32   11.87
  -1   3 -11   30.65   22.00
   1  -3  11   42.54   14.57
   1  -3  11   35.15   12.77
   1  -3  11   52.49   16.48
  -2   3 -11  586.53  125.00
  -2   3 -11  734.62  134.48
   2  -3  11  677.71  137.25
   2  -3  11  631.27  121.47
   2  -3  11  663.41  118.28
  -3   3 -11  134.42   34.09
  -3   3 -11 -264.57  254.67
  -3   3 -11  296.92  133.02
   3  -3  11  169.32   34.72
   3  -3  11  189.76   36.26
   3  -3  11  122.96   35.55
  -4   3 -11  244.07  117.86
  -4   3 -11   76.25   22.67
   4  -3  11   55.22   23.75
   4  -3  11  112.04   24.45
  -5   3 -11  206.67   44.23
  -5   3 -11 -518.42  385.16
   5  -3  11  250.66   43.43
   5  -3  11  194.77   44.75
  -6   3 -11  -20.70  347.24
  -6   3 -11  -13.73   14.27
   6  -3  11    2.71   15.61
   6  -3  11   -5.64   13.20
  -7   3 -11   78.38   25.86
  -7   3 -11 -334.34  406.49
   7  -3  11   70.18   26.35
   7  -3  11   98.39   24.45
  -8   3 -11 -661.90  555.91
  -8   3 -11  -12.03   17.08
   8  -3  11  -12.04   14.05
   8  -3  11   -0.68   17.20
  -9   3 -11 -683.82  580.70
  -9   3 -11   81.19   28.17
   9  -3  11  103.15   30.34
   9  -3  11   94.83   28.24
  11   2 -11  -53.25   64.01
  11   2 -11  -29.03  149.08
  11   2 -11   23.62   19.31
  10   2 -11  594.22  262.32
  10   2 -11  301.82   64.87
  10   2 -11  184.40  113.57
   9   2 -11  227.06   47.35
   9   2 -11  133.57   91.26
   8   2 -11    4.63   13.34
   8   2 -11    0.85   46.83
  -8  -2  11   24.82   18.62
   7   2 -11  241.00   86.30
   7   2 -11  210.51   42.07
  -7  -2  11  154.90   40.41
   6   2 -11   13.25   11.48
   6   2 -11    5.46   52.13
  -6  -2  11  -17.71   12.28
   5   2 -11  125.07   24.94
   5   2 -11  100.95   61.82
   5   2 -11   91.31   23.87
  -5  -2  11   78.16   25.47
   4   2 -11   23.07   10.76
   4   2 -11   55.49   47.37
   4   2 -11    6.97   10.04
  -4  -2  11   22.51   14.65
  -4  -2  11   13.15   12.79
   3   2 -11  352.65   89.71
   3   2 -11  222.24   48.07
   3   2 -11  222.51   47.89
  -3  -2  11  256.80   48.22
  -3  -2  11  240.92   49.49
   2   2 -11  304.97   97.69
   2   2 -11  289.13   56.33
   2   2 -11  275.18   56.10
  -2  -2  11  259.86   56.38
  -2  -2  11  294.49   55.27
   1   2 -11   39.69  106.78
   1   2 -11   -0.67    7.39
   1   2 -11  -29.46   35.53
   1   2 -11    5.51    8.58
  -1  -2  11    1.51   11.31
  -1  -2  11   -1.51   12.58
   0   2 -11   18.76   37.43
   0   2 -11  -12.17    7.18
   0   2 -11   23.64  100.89
   0   2 -11   16.46   11.04
   0  -2  11   -8.06   11.02
   0  -2  11  -16.23   10.90
   0  -2  11   12.35   11.75
  -1   2 -11   62.15   46.83
  -1   2 -11  118.65   29.66
  -1   2 -11  106.79   25.82
  -1   2 -11  265.53  134.90
   1  -2  11  143.79   27.81
   1  -2  11  141.98   29.59
   1  -2  11  108.14   28.15
  -2   2 -11  317.06   67.42
  -2   2 -11  297.35  183.48
  -2   2 -11  262.11   61.37
   2  -2  11  306.36   60.07
   2  -2  11  361.10   63.13
   2  -2  11  323.83   66.52
  -3   2 -11    9.81   24.15
  -3   2 -11  -44.76  180.88
  -3   2 -11   27.55   86.88
  -3   2 -11   -6.37    9.40
   3  -2  11   15.32   13.58
   3  -2  11    4.75   12.49
  -4   2 -11    1.04   31.38
  -4   2 -11   54.03   20.16
  -4   2 -11   93.30  102.98
   4  -2  11  106.43   25.64
   4  -2  11  118.22   23.37
  -5   2 -11  -10.37   12.05
   5  -2  11   20.23   16.09
   5  -2  11   13.47   13.66
  -6   2 -11 -166.78  342.30
  -6   2 -11  151.05   33.31
   6  -2  11  113.66   31.35
   6  -2  11  174.66   35.52
  -7   2 -11   31.23   17.54
   7  -2  11   19.67   19.60
   7  -2  11   18.66   16.44
  -8   2 -11   70.50   28.71
   8  -2  11  117.98   32.30
   8  -2  11  188.02   33.56
  -9   2 -11 -890.75  590.94
  -9   2 -11  123.35   33.42
   9  -2  11  126.67   34.30
   9  -2  11  134.72   32.29
  11   1 -11 -105.61   64.98
  11   1 -11   48.43  155.88
  11   1 -11   21.16   16.54
  10   1 -11  176.72   98.84
  10   1 -11  314.32  204.15
  10   1 -11  162.79   39.92
   9   1 -11   -1.11   64.17
   9   1 -11   22.00  144.30
   9   1 -11   -3.41   12.23
   8   1 -11   17.77   13.36
   8   1 -11   53.37  140.41
   8   1 -11   71.39   65.06
  -8  -1  11    3.50   16.65
   7   1 -11  -31.81   53.55
   7   1 -11  198.25  148.71
   7   1 -11   20.74   12.22
   7   1 -11   37.10   13.04
  -7  -1  11   14.77   17.28
   6   1 -11  225.45   38.50
   6   1 -11  146.99   37.54
   6   1 -11  471.56  204.26
   6   1 -11  217.78   82.21
  -6  -1  11  146.78   39.24
   5   1 -11   17.48    9.11
   5   1 -11   26.32  125.99
   5   1 -11    4.49   54.82
   5   1 -11    2.27    7.93
  -5  -1  11    9.66   13.91
   4   1 -11  351.37   63.91
   4   1 -11  300.08  110.85
   4   1 -11  892.86  258.92
   4   1 -11  286.70   63.32
  -4  -1  11  362.42   64.61
  -4  -1  11  320.09   65.36
   3   1 -11  372.37   64.83
   3   1 -11  265.52   64.25
   3   1 -11  995.07  263.02
   3   1 -11  332.39  111.63
  -3  -1  11  387.95   67.65
  -3  -1  11  394.00   65.07
   2   1 -11  100.16   56.63
   2   1 -11   62.33   15.53
   2   1 -11  141.90  142.07
   2   1 -11   68.36   15.48
  -2  -1  11   81.19   19.71
  -2  -1  11   88.70   22.19
   1   1 -11  983.68  262.69
   1   1 -11  355.85   72.37
   1   1 -11  407.61  118.50
   1   1 -11  370.75   72.37
  -1  -1  11  384.69   74.37
  -1  -1  11  404.98   72.37
   0   1 -11   19.74   42.44
   0   1 -11  105.04  114.85
   0   1 -11    2.61    5.81
   0   1 -11   17.23    6.71
   0  -1  11    1.21   13.45
   0  -1  11    7.58   11.01
  -1   1 -11  610.56  354.80
  -1   1 -11  955.99  199.97
  -1   1 -11  771.04  135.60
  -1   1 -11  679.55  135.50
   1  -1  11  775.61  132.82
   1  -1  11  657.05  128.74
   1  -1  11  659.10  150.05
  -2   1 -11  274.93   57.99
  -2   1 -11  165.64  176.21
  -2   1 -11   -7.72  264.75
  -2   1 -11  326.25   57.02
   2  -1  11  328.12   57.32
   2  -1  11  348.64   60.03
  -3   1 -11  -10.03    8.92
  -3   1 -11    4.97   15.47
  -3   1 -11   -3.77   90.54
  -3   1 -11 -250.96  182.66
   3  -1  11    3.86   11.66
   3  -1  11    5.75   13.74
  -4   1 -11   94.98   32.41
  -4   1 -11  116.24   24.51
  -4   1 -11  -10.02   92.87
   4  -1  11   92.47   27.05
   4  -1  11  147.93   27.70
  -5   1 -11    0.49   24.65
  -5   1 -11   -1.54   11.03
  -5   1 -11  -84.43  230.95
   5  -1  11   -6.31   13.88
   5  -1  11   36.09   16.81
  -6   1 -11  167.34   33.27
  -6   1 -11 -237.02  322.91
   6  -1  11  153.63   35.92
   6  -1  11  134.16   33.42
  -7   1 -11   16.17   13.91
  -7   1 -11 -228.41  292.85
   7  -1  11   35.75   19.35
   7  -1  11   -2.89   15.00
  -8   1 -11   22.83   16.38
   8  -1  11   11.67   21.49
   8  -1  11   35.27   18.69
  -9   1 -11   61.73   20.35
  -9   1 -11 -543.72  429.07
   9  -1  11   34.28   23.67
  11   0 -11  519.68  224.66
  11   0 -11  159.15   35.72
  11   0 -11   17.22   92.97
  10   0 -11  458.79  222.81
  10   0 -11  112.10   26.94
  10   0 -11   44.40   88.18
   9   0 -11   -3.51  141.06
   9   0 -11   24.80   68.93
   9   0 -11    0.00    9.74
   9   0 -11   -2.67    9.06
   8   0 -11   80.35   15.99
   8   0 -11   52.27   15.62
   8   0 -11  258.96  178.22
   8   0 -11   -8.34   68.94
  -8   0  11   25.89   21.90
   7   0 -11  200.29  162.33
   7   0 -11   87.44   22.24
   7   0 -11  126.52   22.73
   7   0 -11   63.78   67.73
  -7   0  11  124.36   29.01
   6   0 -11  313.94  134.35
   6   0 -11  944.11  300.42
  -6   0  11  390.02   80.48
   5   0 -11  -14.58   50.90
   5   0 -11  -25.08  108.12
  -5   0  11    1.92   13.90
   4   0 -11  148.13  145.05
   4   0 -11  142.74   67.40
  -4   0  11   45.94   18.90
  -4   0  11   26.22   16.00
   3   0 -11   19.07   48.48
   3   0 -11   38.28  108.74
  -3   0  11   -2.78   11.72
  -3   0  11   38.46   16.23
   2   0 -11   78.02   72.15
   2   0 -11  317.21  178.38
  -2   0  11  260.99   42.85
  -2   0  11  181.24   42.52
   1   0 -11  207.09   83.99
   1   0 -11  277.04  174.79
  -1   0  11  202.65   43.65
  -1   0  11  230.59   46.29
   0   0 -11  -31.00  112.89
   0   0 -11   47.40   47.69
   0   0  11   29.37   13.29
   0   0  11   16.51   14.29
  -1   0 -11   67.80  116.69
  -1   0 -11   41.20   45.39
   1   0  11   53.23   20.27
   1   0  11   77.07   18.92
  -2   0 -11  -10.98  102.17
   2   0  11   49.14   15.40
   2   0  11   20.80   15.07
  -3   0 -11   41.89  103.84
  -3   0 -11 -116.58  195.27
   3   0  11   20.69   15.41
   3   0  11   50.20   16.10
  -4   0 -11  104.28  133.65
  -4   0 -11 -103.14  244.63
   4   0  11  204.38   39.15
   4   0  11  245.61   42.33
  -5   0 -11  492.43   92.74
  -5   0 -11   14.36  412.87
  -5   0 -11  470.92   91.09
   5   0  11  584.80   91.24
   5   0  11  535.28   93.96
  -6   0 -11   60.15   14.50
  -6   0 -11   77.49   24.04
  -6   0 -11 -156.22  267.72
   6   0  11   20.02   19.04
   6   0  11   46.84   21.40
  -7   0 -11   24.12   12.65
  -7   0 -11   77.98   27.92
  -7   0 -11 -391.82  326.57
   7   0  11   46.08   20.55
   7   0  11   14.40   17.24
  -8   0 -11 -535.22  332.42
  -8   0 -11   31.42   13.87
   8   0  11   15.38   18.09
   8   0  11   35.41   20.85
  11  -1 -11  -57.71  144.10
  11  -1 -11   49.77   97.88
  10  -1 -11  -92.53  130.10
  10  -1 -11    6.27   76.74
   9  -1 -11  -72.29  104.88
   9  -1 -11   28.47   74.44
   8  -1 -11   41.09   67.88
   8  -1 -11   93.63  150.19
  -8   1  11  -13.91   14.82
   7  -1 -11  361.22  121.16
   7  -1 -11  184.71  206.01
  -7   1  11  314.38   61.29
   6  -1 -11   79.36   73.10
   6  -1 -11  120.05  161.70
  -6   1  11   68.66   22.18
   5  -1 -11  -66.03  100.36
   5  -1 -11   43.10   59.05
  -5   1  11   21.02   13.71
   4  -1 -11   99.05   66.92
   4  -1 -11   26.75  144.17
  -4   1  11  136.59   30.38
  -4   1  11  107.83   26.38
   3  -1 -11  210.73   94.48
   3  -1 -11  290.48  215.93
  -3   1  11  278.52   52.92
  -3   1  11  269.18   55.15
   2  -1 -11  550.89  150.52
   2  -1 -11  328.90  281.31
  -2   1  11  515.62   90.43
  -2   1  11  465.90   93.62
   1  -1 -11  -49.33  124.23
   1  -1 -11   95.27   55.08
  -1   1  11   57.39   16.47
  -1   1  11   20.89   15.62
   0  -1 -11  -85.26  116.82
   0  -1 -11  151.84   61.75
   0   1  11   87.88   22.99
   0   1  11   91.93   22.06
  -1  -1 -11  -38.01  117.85
  -1  -1 -11   90.74   55.80
   1   1  11  132.21   26.30
   1   1  11   83.19   23.31
  -2  -1 -11   66.05  123.07
   2   1  11  154.15   28.91
   2   1  11   98.02   28.98
  -3  -1 -11   72.70  222.07
  -3  -1 -11   26.02  118.96
   3   1  11  175.28   31.25
   3   1  11  121.34   31.57
  -4  -1 -11  -46.74  223.45
  -4  -1 -11   79.84  107.54
   4   1  11   77.60   22.19
   4   1  11   97.72   25.17
  -5  -1 -11  -20.43  365.19
   5   1  11  440.86   72.70
   5   1  11  410.44   75.07
  -6  -1 -11 -111.23  254.65
   6   1  11  128.03   31.34
   6   1  11  128.16   29.64
  -7  -1 -11 -434.43  280.77
   7   1  11    8.49   15.62
   7   1  11   17.54   18.49
  -8  -1 -11   -5.35  360.45
   8   1  11   -8.28   15.99
  11  -2 -11   95.16  105.81
  11  -2 -11   36.39  199.20
  10  -2 -11  -91.65  164.91
  10  -2 -11   15.33   75.68
   9  -2 -11    0.41  165.05
   9  -2 -11   54.61   85.17
   8  -2 -11   35.72  154.41
   8  -2 -11   20.12   67.35
  -8   2  11  107.69   27.84
   7  -2 -11  134.59  182.62
   7  -2 -11  177.03   91.40
  -7   2  11  179.34   39.31
   6  -2 -11   66.56   67.39
   6  -2 -11    9.90  140.33
  -6   2  11   54.30   19.89
   5  -2 -11   15.10   57.57
   5  -2 -11  -65.09  126.52
  -5   2  11  -10.91   11.78
   4  -2 -11   79.50   65.34
   4  -2 -11   -3.59  131.97
  -4   2  11    7.95   12.22
  -4   2  11   -5.79   12.69
   3  -2 -11  184.82  179.66
   3  -2 -11  229.00   81.87
  -3   2  11  164.55   37.20
  -3   2  11  177.74   39.69
   2  -2 -11  180.72   85.71
   2  -2 -11  156.29  190.25
  -2   2  11  272.63   45.46
  -2   2  11  190.03   46.37
   1  -2 -11  -71.14  119.52
   1  -2 -11   -2.39   45.21
  -1   2  11   14.42   13.45
  -1   2  11   -3.08   11.75
   0  -2 -11  -19.41  122.83
   0  -2 -11  -54.70   33.92
   0   2  11   16.61   12.03
   0   2  11   12.50   13.28
  -1  -2 -11   41.62   47.27
  -1  -2 -11  -82.06   95.58
   1   2  11   55.50   18.02
   1   2  11   57.38   16.76
  -2  -2 -11   82.23  170.64
   2   2  11  262.90   54.71
   2   2  11  314.38   53.11
  -3  -2 -11  -16.37  107.54
   3   2  11   -6.49   12.57
   3   2  11  -10.51   12.27
  -4  -2 -11  -15.26  122.14
  -4  -2 -11   -9.57  259.54
   4   2  11  158.12   33.66
   4   2  11  160.46   30.80
  -5  -2 -11  -52.80  233.82
   5   2  11   57.52   21.42
   5   2  11   64.75   19.58
  -6  -2 -11  -96.89  286.23
   6   2  11   65.49   17.46
   6   2  11  -17.64   15.82
  -7  -2 -11 -382.34  313.21
   7   2  11   25.24   20.53
  11  -3 -11  -46.91  186.31
  11  -3 -11   55.22   97.60
  10  -3 -11  -29.66  186.24
  10  -3 -11   99.94  101.44
   9  -3 -11  -19.75   72.22
   9  -3 -11   98.68  202.67
   8  -3 -11   68.19   74.63
   8  -3 -11    1.35  162.10
  -8   3  11  -10.25   14.64
   7  -3 -11  -49.38   59.38
   7  -3 -11 -105.55  153.23
  -7   3  11  -24.83   13.34
   6  -3 -11   82.66   73.05
   6  -3 -11  -56.82  174.58
  -6   3  11  126.76   27.65
   5  -3 -11 -140.88  135.30
   5  -3 -11   87.34   65.88
  -5   3  11   42.51   16.97
   4  -3 -11  114.99  168.42
   4  -3 -11   37.91   62.11
  -4   3  11   86.29   26.94
  -4   3  11  144.81   26.84
   3  -3 -11  225.47  238.29
   3  -3 -11  197.10  120.58
  -3   3  11  392.96   75.84
  -3   3  11  479.05   74.32
   2  -3 -11  -31.17   54.32
   2  -3 -11   94.47  144.69
  -2   3  11   23.50   15.40
  -2   3  11   52.40   16.20
   1  -3 -11   85.32  167.14
   1  -3 -11  137.33   84.87
  -1   3  11  195.54   40.33
  -1   3  11  239.76   43.82
   0  -3 -11   36.19   60.23
   0  -3 -11  -49.08  118.86
   0   3  11  230.42   31.91
   0   3  11  130.41   32.53
  -1  -3 -11  146.33   81.68
  -1  -3 -11   78.92  164.84
   1   3  11  276.55   46.83
   1   3  11  243.51   48.70
  -2  -3 -11 -130.36  111.45
   2   3  11  163.67   33.93
   2   3  11  202.91   32.61
  -3  -3 -11   12.33  128.84
   3   3  11  -37.83    9.62
   3   3  11    6.45   13.94
  -4  -3 -11  -91.00  100.17
   4   3  11   79.88   21.10
   5   3  11    9.88   16.20
  -6  -3 -11  -18.04  311.19
   6   3  11   46.06   21.26
  10  -4 -11  206.42  116.46
  10  -4 -11   26.28  211.74
   9  -4 -11   43.15   89.71
   9  -4 -11 -102.10  156.45
  -9   4  11   37.11   20.83
   8  -4 -11 -122.18  167.92
   8  -4 -11  155.79   92.55
  -8   4  11   12.72   17.38
   7  -4 -11   57.03   74.19
   7  -4 -11  -87.19  141.51
  -7   4  11    3.60   13.91
   6  -4 -11  238.74  102.76
   6  -4 -11   77.74  213.32
  -6   4  11  254.04   48.97
   5  -4 -11  156.87  168.93
   5  -4 -11   -7.83   66.54
  -5   4  11   48.44   17.85
  -5   4  11   38.62   18.08
   4  -4 -11  -10.73   62.03
   4  -4 -11 -100.19  114.39
  -4   4  11    3.12   12.85
  -4   4  11    7.89   15.07
   3  -4 -11  161.29   85.89
   3  -4 -11   83.99  200.18
  -3   4  11  270.96   45.55
  -3   4  11  202.08   46.74
   2  -4 -11   43.14   51.81
   2  -4 -11  -11.81  137.67
  -2   4  11   27.33   14.13
  -2   4  11  -10.87   13.69
   1  -4 -11   42.20  143.82
   1  -4 -11  -76.97   44.07
  -1   4  11  -15.39   11.44
  -1   4  11  -12.07   11.60
   0  -4 -11   95.63  154.17
   0  -4 -11   93.23   64.62
   0   4  11  173.52   34.26
  -1  -4 -11  -44.85  143.39
   1   4  11  236.44   40.97
  -2  -4 -11   -8.21  126.19
   2   4  11   47.43   18.69
  -3  -4 -11  176.66  171.31
  -4  -4 -11  145.87  163.02
  10  -5 -11  -78.74  176.25
   9  -5 -11 -103.58  177.95
   9  -5 -11   32.35   80.87
  -9   5  11   -2.48   18.58
   8  -5 -11 -170.46  162.37
   8  -5 -11   14.41   89.70
  -8   5  11   17.89   17.26
   7  -5 -11  180.12  103.98
   7  -5 -11  116.63  202.31
  -7   5  11  153.37   35.29
   6  -5 -11  147.61   92.47
   6  -5 -11   17.34  167.68
  -6   5  11  159.19   33.62
   5  -5 -11  162.58  182.29
   5  -5 -11  -55.48   55.70
  -5   5  11   -1.83   12.70
  -5   5  11   -2.39   14.29
   4  -5 -11   -1.40   58.12
   4  -5 -11   53.34  173.81
  -4   5  11   67.52   22.15
  -4   5  11  111.39   23.11
   3  -5 -11  -20.85   60.99
   3  -5 -11   64.98  156.33
  -3   5  11   19.75   14.15
   2  -5 -11  212.02   89.30
   2  -5 -11  164.94  186.47
  -2   5  11  192.10   41.91
   1  -5 -11  -72.28  127.10
   1  -5 -11   37.06   56.98
  -1   5  11   30.82   16.33
   0  -5 -11  275.73  108.18
   0  -5 -11   71.49  198.36
   0   5  11  370.93   62.52
  -1  -5 -11  158.49  177.62
   1   5  11  129.68   31.28
  -2  -5 -11   77.87  155.36
  -3  -5 -11   17.85  133.12
  -4  -5 -11   69.71  143.90
   9  -6 -11  -39.42  165.12
   8  -6 -11   27.72   86.37
   8  -6 -11   23.32  189.70
  -8   6  11   17.68   18.15
   7  -6 -11  169.22   91.99
   7  -6 -11   51.53  172.11
   6  -6 -11    9.79  177.49
   6  -6 -11   39.27   80.75
  -6   6  11   62.14   22.65
   5  -6 -11  -67.79   61.83
   5  -6 -11    0.29  166.38
  -5   6  11   16.24   15.70
   4  -6 -11    2.53  154.91
   4  -6 -11   80.74   77.90
  -4   6  11  -14.78   13.70
   3  -6 -11   80.31   72.62
   3  -6 -11  170.50  179.85
  -3   6  11   24.64   16.55
   2  -6 -11  338.75   95.80
   2  -6 -11  -24.21  162.73
  -2   6  11  109.43   30.08
   1  -6 -11   31.90  163.18
   1  -6 -11   32.11   57.57
   0  -6 -11  143.49  177.58
   0  -6 -11  101.01   67.29
  -1  -6 -11  -52.95  136.53
  -2  -6 -11  -83.82  128.67
  -3  -6 -11 -155.55  134.61
   7  -7 -11   76.71  200.79
   7  -7 -11   29.46   93.44
  -7   7  11   35.09   20.27
   6  -7 -11 -146.79   64.47
   6  -7 -11   18.35  190.45
  -6   7  11    2.02   16.45
   5  -7 -11   86.31   84.96
   5  -7 -11   56.20  179.85
  -5   7  11   36.09   19.91
   4  -7 -11  111.78   79.64
   4  -7 -11  -50.94  141.57
   3  -7 -11  211.35   89.77
   3  -7 -11   -7.09  141.61
   2  -7 -11  142.93   79.66
   2  -7 -11   91.69  179.18
   1  -7 -11   13.84  170.02
   1  -7 -11  -23.33   52.61
   0  -7 -11   27.89  161.55
  -1  -7 -11  -52.47  151.45
   5  -8 -11   61.02  199.70
   4  -8 -11   91.92   91.92
   4  -8 -11   82.06  180.00
   3  -8 -11  192.61   97.77
   3  -8 -11  180.08  218.13
   2  -8 -11  -13.80  191.03
   2  -8 -11  -12.33   66.59
  -1 -14  12  203.93   61.02
   0 -14  12   -9.81   28.37
   1 -14  12   12.95   32.13
   1 -14  12   20.96   19.04
   2 -14  12   37.68   34.89
   2 -14  12   25.67   21.17
   3 -14  12   77.57   38.94
   3 -14  12   60.43   26.03
   4 -14  12    1.86   19.91
   4 -14  12   11.54   33.68
  -4 -13  12  -92.22  123.77
  -3 -13  12  124.61   43.21
  -3 -13  12   92.03   28.71
  -2 -13  12  242.43   67.75
  -2 -13  12  268.74   54.54
  -1 -13  12   35.13   30.71
  -1 -13  12   37.39   19.13
   0 -13  12  111.47   28.87
   0 -13  12   85.34   37.99
   1 -13  12   28.31   27.05
   1 -13  12   -7.31   16.27
   2 -13  12  214.63   60.75
   2 -13  12  206.73   46.80
   3 -13  12  232.34   50.83
   3 -13  12  291.33   53.39
   3 -13  12  181.09   63.65
   4 -13  12   45.82   33.60
   4 -13  12    8.55   18.98
   4 -13  12   13.65   18.24
   5 -13  12  219.76   42.94
   5 -13  12  105.64   51.78
   5 -13  12  179.12   42.52
   6 -13  12   28.62   22.31
   6 -13  12   49.74   23.10
   6 -13  12   42.37   35.63
  -5 -12  12  172.65   37.34
  -5 -12  12  114.69   46.46
  -4 -12  12  105.29   26.64
  -4 -12  12   52.06   31.39
  -3 -12  12   22.87   26.13
  -3 -12  12   10.51   19.12
  -2 -12  12  176.18   38.82
  -2 -12  12  162.34   52.35
  -1 -12  12   -8.34   14.91
  -1 -12  12   -1.31   21.00
   0 -12  12   19.06   16.66
   0 -12  12   11.31   15.14
   0 -12  12    8.61   23.56
   1 -12  12   36.19   18.80
   1 -12  12   23.17   25.92
   1 -12  12    6.21   16.72
   2 -12  12  201.21   47.83
   2 -12  12  209.17   60.24
   2 -12  12  249.60   48.20
   3 -12  12  174.69   40.11
   3 -12  12  178.55   39.99
   3 -12  12  145.51   50.78
   4 -12  12    0.37   17.88
   4 -12  12   18.36   19.32
   4 -12  12   17.03   24.07
   5 -12  12   -6.09   17.91
   5 -12  12   19.74   17.47
   5 -12  12  -11.55   25.02
   6 -12  12   21.20   29.79
   6 -12  12   -4.97   17.70
   6 -12  12   15.51   19.24
   7 -12  12   21.47   32.71
   7 -12  12   16.83   22.85
   7 -12  12   61.02   23.67
  -6 -11  12  101.71   39.04
  -6 -11  12  101.47   29.33
  -5 -11  12  181.99   50.09
  -5 -11  12  148.78   37.57
  -4 -11  12    2.99   20.61
  -4 -11  12  -21.38   13.28
  -3 -11  12   83.83   21.70
  -3 -11  12   50.15   29.13
  -3 -11  12   66.69   22.55
  -2 -11  12   14.31   15.85
  -2 -11  12    7.64   20.59
  -2 -11  12   47.54   16.42
  -1 -11  12  100.63   46.01
  -1 -11  12  247.51   40.82
  -1 -11  12  170.82   38.56
   0 -11  12   -8.78   13.35
   0 -11  12   13.49   15.01
   0 -11  12    6.79   20.97
   1 -11  12  332.06   61.83
   1 -11  12  310.68   62.88
   1 -11  12  266.43   73.97
   2 -11  12  447.86   95.03
   2 -11  12  355.37   78.10
   2 -11  12  393.62   77.54
   3 -11  12   -5.57   23.09
   3 -11  12   11.95   16.85
   3 -11  12    2.06   16.33
   4 -11  12   20.40   25.14
   4 -11  12   30.19   18.25
   4 -11  12   58.88   21.08
   5 -11  12    2.17   17.07
   5 -11  12   20.82   18.63
   5 -11  12   65.02   27.78
   6 -11  12  375.15   69.88
   6 -11  12  329.56   67.07
   6 -11  12  270.27   81.48
   7 -11  12   88.54   38.07
   7 -11  12   93.46   28.30
   7 -11  12   49.70   27.64
   8 -11  12   44.50   25.22
   8 -11  12   66.22   28.14
  -7 -10  12   -6.31   23.97
  -7 -10  12  -16.05   51.29
  -7 -10  12    9.67   17.80
  -6 -10  12  289.16   54.60
  -6 -10  12  274.50   67.36
  -6 -10  12  213.79   52.15
  -5 -10  12  329.89   56.33
  -5 -10  12  274.69   55.24
  -5 -10  12  190.22   65.56
  -4 -10  12   12.56   15.85
  -4 -10  12   31.67   16.34
  -4 -10  12   43.25   22.80
  -3 -10  12  -23.05   17.91
  -3 -10  12  -11.37   12.13
  -3 -10  12    5.90   14.44
  -2 -10  12  112.91   38.92
  -2 -10  12  134.71   32.19
  -2 -10  12  165.40   33.86
  -1 -10  12  284.09   55.53
  -1 -10  12  285.10   56.43
  -1 -10  12  240.37   66.09
   0 -10  12   13.75   15.33
   0 -10  12   17.85   14.62
   0 -10  12    4.29   18.05
   1 -10  12  215.43   49.61
   1 -10  12  254.62   51.53
   1 -10  12  254.30   61.12
   2 -10  12   40.67   20.01
   2 -10  12   70.13   20.61
   2 -10  12   31.93   23.45
   3 -10  12   18.22   22.35
   3 -10  12   10.03   17.34
   3 -10  12   18.61   15.78
   4 -10  12   67.06   27.37
   4 -10  12   39.99   19.91
   4 -10  12   30.38   19.08
   5 -10  12  215.63   53.35
   5 -10  12  207.13   44.74
   5 -10  12  167.81   43.86
   6 -10  12  220.48   53.95
   6 -10  12  169.56   44.39
   6 -10  12  175.02   44.26
   7 -10  12   -6.14   24.35
   7 -10  12   -0.09   17.23
   7 -10  12   -7.73   17.95
   8 -10  12    1.49   17.27
   8 -10  12  -40.52   19.09
  -8  -9  12   88.83   56.09
  -8  -9  12  -39.00   15.30
  -8  -9  12   71.48   21.72
  -8  -9  12   12.48   30.41
  -7  -9  12   63.03   20.01
  -7  -9  12  -53.17   41.20
  -7  -9  12   -2.84   16.60
  -7  -9  12   11.94   27.32
   6   9 -12  246.49   55.39
  -6  -9  12  247.30   63.09
  -6  -9  12  216.38   50.29
  -6  -9  12  295.75   78.97
  -6  -9  12  224.09   51.26
   5   9 -12  -28.20   17.44
  -5  -9  12    8.71   16.19
  -5  -9  12  -21.49   12.57
  -5  -9  12  -44.06   18.73
   4   9 -12   23.34   19.31
  -4  -9  12   44.36   18.29
  -4  -9  12   19.41   21.39
  -4  -9  12   39.11   17.25
   3   9 -12  146.08   41.03
  -3  -9  12  124.68   44.71
  -3  -9  12  223.25   39.93
  -3  -9  12  199.82   38.80
   2   9 -12  388.58   93.26
  -2  -9  12  433.69  104.49
  -2  -9  12  525.84   88.57
  -2  -9  12  497.30   89.50
   1   9 -12  128.72   33.77
  -1  -9  12  133.74   30.91
  -1  -9  12  135.02   37.67
  -1  -9  12  113.47   30.42
   0   9 -12   94.49   35.59
   0  -9  12  126.04   40.32
   0  -9  12  165.84   34.39
   0  -9  12  223.32   36.76
  -1   9 -12  314.46   48.31
   1  -9  12  147.62   48.35
   1  -9  12  165.25   41.57
   1  -9  12  174.58   40.92
  -2   9 -12   25.29   18.66
   2  -9  12   17.65   16.69
   2  -9  12   16.73   15.89
   2  -9  12   77.01   23.67
  -3   9 -12   93.12   34.46
   3  -9  12  183.11   42.81
   3  -9  12  180.71   35.49
   3  -9  12  140.42   34.84
  -4   9 -12   56.20   22.15
   4  -9  12   48.67   24.29
   4  -9  12   17.89   17.60
   4  -9  12   32.98   19.29
  -5   9 -12  463.14   89.68
   5  -9  12  382.43   97.58
   5  -9  12  509.81   87.06
   5  -9  12  375.95   82.46
  -6   9 -12  274.96   56.31
   6  -9  12  245.25   52.73
   6  -9  12  171.04   52.32
   6  -9  12  279.47   63.71
  -7   9 -12   21.62   19.73
   7  -9  12  -10.94   16.51
   7  -9  12   11.74   18.36
   8  -9  12  -16.16   17.14
   8  -9  12   57.82   23.57
   9  -9  12   80.08   32.22
   9  -9  12  132.86   36.50
   9   8 -12   96.05   35.00
   9   8 -12  172.31   75.65
  -9  -8  12   65.39   64.31
  -9  -8  12  101.67   33.71
  -9  -8  12  161.79   51.40
   8   8 -12   -9.59   20.22
   8   8 -12   38.16   55.68
  -8  -8  12   -1.47   29.97
  -8  -8  12   -4.49   17.67
  -8  -8  12    3.94   44.45
   7   8 -12  186.26   42.48
   7   8 -12  202.98   74.52
  -7  -8  12   39.09   59.64
  -7  -8  12  168.97   39.04
  -7  -8  12  143.71   37.83
  -7  -8  12  161.96   49.01
   6   8 -12  111.46   54.50
   6   8 -12   55.22   22.99
  -6  -8  12   52.46   46.84
  -6  -8  12   41.22   18.44
  -6  -8  12   19.97   19.52
  -6  -8  12   15.92   26.53
   5   8 -12   46.19   44.93
   5   8 -12   31.96   21.11
  -5  -8  12   52.65   24.42
  -5  -8  12   38.77   19.06
  -5  -8  12  114.34   46.22
  -5  -8  12   37.60   19.58
   4   8 -12   80.02   22.68
   4   8 -12   27.71   43.31
  -4  -8  12   56.68   24.59
  -4  -8  12   63.22   20.66
  -4  -8  12   66.96   44.61
  -4  -8  12   55.48   21.06
   3   8 -12  187.99   44.51
  -3  -8  12  243.34   43.54
  -3  -8  12  207.88   43.10
  -3  -8  12  147.56   49.29
   2   8 -12  284.79   55.99
  -2  -8  12  240.26   61.66
  -2  -8  12  286.42   53.74
  -2  -8  12  222.04   51.19
   1   8 -12  151.05   28.44
  -1  -8  12   47.71   22.05
  -1  -8  12   89.27   28.45
  -1  -8  12   94.47   24.38
   0   8 -12   14.57   16.78
   0  -8  12   50.38   19.64
   0  -8  12   14.11   13.43
   0  -8  12   25.00   15.73
  -1   8 -12   15.27   15.79
   1  -8  12   24.00   15.54
   1  -8  12   26.01   17.35
   1  -8  12   -2.90   13.30
  -2   8 -12  132.14   30.27
   2  -8  12  140.21   28.53
   2  -8  12   78.63   26.56
   2  -8  12   83.53   30.63
  -3   8 -12   32.00   17.98
   3  -8  12   16.97   16.98
   3  -8  12   36.44   19.88
   3  -8  12    8.22   15.67
  -4   8 -12  178.50   33.03
   4  -8  12   72.09   26.97
   4  -8  12   96.88   29.24
   4  -8  12  101.53   32.60
  -5   8 -12   90.55   27.60
   5  -8  12   63.39   26.12
   5  -8  12  105.82   27.43
   5  -8  12   97.40   30.86
  -6   8 -12    9.98   17.84
   6  -8  12  -12.06   19.90
   6  -8  12    8.18   14.64
   6  -8  12  -34.68   14.96
  -7   8 -12    7.24   20.53
   7  -8  12  -16.22   15.78
   7  -8  12    1.22   17.94
  -8   8 -12   65.34   28.72
   8  -8  12   36.56   23.23
   8  -8  12  119.30   28.12
  -9   8 -12  180.93   48.79
   9  -8  12  190.32   47.86
   9  -8  12  232.79   50.60
   9   7 -12  104.26   81.59
   9   7 -12  151.54   38.97
  -9  -7  12  145.56   62.16
  -9  -7  12  122.65   35.02
  -9  -7  12  130.06   48.14
   8   7 -12    3.49   17.24
   8   7 -12   55.68   55.44
  -8  -7  12  -67.51   40.08
  -8  -7  12   -5.00   17.37
  -8  -7  12   19.93   29.81
   7   7 -12   45.85   54.41
   7   7 -12   47.38   22.85
  -7  -7  12   77.26   32.07
  -7  -7  12  107.62   48.58
  -7  -7  12   35.63   21.99
   6   7 -12   57.08   47.85
   6   7 -12   68.36   22.28
  -6  -7  12   21.07   17.14
  -6  -7  12    3.87   36.75
  -6  -7  12    1.80   16.17
  -6  -7  12   67.04   29.52
   5   7 -12   64.76   55.47
   5   7 -12  183.43   34.50
  -5  -7  12   31.78   44.60
  -5  -7  12  146.04   31.13
  -5  -7  12  105.39   36.92
  -5  -7  12   92.65   27.88
   4   7 -12   16.78   16.15
   4   7 -12   36.65   41.30
  -4  -7  12   -2.73   33.20
  -4  -7  12   55.31   24.18
  -4  -7  12   36.72   16.68
  -4  -7  12   37.09   17.82
   3   7 -12  430.11  104.85
   3   7 -12  420.11   69.63
  -3  -7  12  323.56   63.43
  -3  -7  12  315.18   75.17
  -3  -7  12  352.45   65.13
  -3  -7  12   48.17   73.73
   2   7 -12  392.52   95.76
   2   7 -12  379.82   67.07
  -2  -7  12  278.78   60.11
  -2  -7  12  292.75   72.86
  -2  -7  12  271.81   61.78
   1   7 -12   96.32   41.52
   1   7 -12  131.28   28.62
  -1  -7  12   76.66   27.81
  -1  -7  12   84.80   25.08
  -1  -7  12  112.69   25.97
   0   7 -12   12.35   14.39
   0   7 -12   10.67   21.52
   0  -7  12   -2.43   11.96
   0  -7  12  -25.02   11.76
   0  -7  12   13.76   13.97
  -1   7 -12  268.97   53.47
   1  -7  12  245.22   50.99
   1  -7  12  240.77   49.39
   1  -7  12  211.82   56.86
  -2   7 -12  850.47  148.59
   2  -7  12  735.71  141.92
   2  -7  12  710.59  162.87
   2  -7  12  753.42  138.58
  -3   7 -12  153.79   31.67
   3  -7  12   63.12   25.77
   3  -7  12  149.61   33.94
   3  -7  12   97.12   28.85
  -4   7 -12   94.95   29.73
   4  -7  12  114.55   28.90
   4  -7  12  141.29   32.88
   4  -7  12   83.92   29.37
  -5   7 -12   47.96   23.26
   5  -7  12   99.73   26.12
   5  -7  12   18.48   19.78
   5  -7  12   97.08   25.06
  -6   7 -12  118.39   32.93
   6  -7  12  138.70   32.67
   6  -7  12  101.94   32.08
  -7   7 -12  120.46   31.64
   7  -7  12   56.23   24.58
   7  -7  12  124.96   32.15
  -8   7 -12  141.53   30.90
   8  -7  12   47.57   23.56
   8  -7  12   54.31   24.74
  -9   7 -12  360.04   69.41
   9  -7  12  276.32   65.30
   9  -7  12  271.53   63.31
  10   6 -12  115.46   36.14
  10   6 -12   94.98   80.46
 -10  -6  12  261.71   53.93
 -10  -6  12   57.62   32.90
   9   6 -12   24.14   21.25
   9   6 -12   16.21   62.84
  -9  -6  12   68.70   34.47
  -9  -6  12   41.81   23.16
   8   6 -12  119.05   69.31
   8   6 -12   55.21   25.80
  -8  -6  12   84.22   45.40
  -8  -6  12   41.49   30.62
  -8  -6  12   65.90   25.55
   7   6 -12  -22.44   14.89
   7   6 -12  101.64   59.61
  -7  -6  12    1.02   24.02
  -7  -6  12  -10.70   14.63
  -7  -6  12   56.24   40.08
   6   6 -12  154.67   41.64
   6   6 -12  213.62   78.29
  -6  -6  12  182.41   48.56
  -6  -6  12  201.83   62.38
  -6  -6  12  180.86   40.35
   5   6 -12  194.13   78.95
   5   6 -12  225.01   47.43
  -5  -6  12  255.48   46.31
  -5  -6  12  147.78   58.70
  -5  -6  12  176.99   43.27
  -5  -6  12  200.26   54.11
   4   6 -12   42.42   46.02
   4   6 -12   91.65   22.43
  -4  -6  12   24.74   19.42
  -4  -6  12   83.59   21.40
  -4  -6  12   58.90   26.30
  -4  -6  12   21.77   36.52
   3   6 -12  116.20   28.87
   3   6 -12  159.25   60.08
  -3  -6  12  102.67   26.91
  -3  -6  12   93.81   27.62
  -3  -6  12   92.00   32.32
  -3  -6  12  209.67   50.33
   2   6 -12    6.75   14.27
   2   6 -12   22.27   35.92
  -2  -6  12   17.87   12.48
  -2  -6  12   29.12   15.09
  -2  -6  12   26.59   17.04
   1   6 -12  -23.36   29.44
   1   6 -12    3.97   12.71
  -1  -6  12   13.94   11.29
  -1  -6  12   -2.13   13.36
  -1  -6  12  -19.03   10.06
   0   6 -12  -12.81   11.05
   0   6 -12   11.94   25.42
   0  -6  12  -12.01   11.59
   0  -6  12  -12.85   11.53
   0  -6  12  -15.01   12.04
  -1   6 -12  242.12   51.10
   1  -6  12  202.98   47.32
   1  -6  12  278.85   56.74
   1  -6  12  232.51   50.30
  -2   6 -12  357.05   67.70
   2  -6  12  302.80   73.32
   2  -6  12  300.32   63.16
   2  -6  12  342.53   66.59
  -3   6 -12  224.81  289.61
  -3   6 -12   -3.42   14.15
   3  -6  12   14.38   13.98
   3  -6  12   -3.10   13.36
   3  -6  12   17.69   14.90
  -5   6 -12   80.20   25.14
  -5   6 -12 -198.76  379.09
   5  -6  12  104.58   25.90
   5  -6  12   70.70   25.05
  -6   6 -12   50.94   22.43
   6  -6  12   56.86   21.62
   6  -6  12   45.43   20.74
  -7   6 -12    9.94  706.50
  -7   6 -12    4.46   18.28
   7  -6  12    3.75   15.93
   7  -6  12  -16.50   14.91
  10   5 -12   50.14   25.66
  10   5 -12   52.62   73.70
 -10  -5  12   71.08   26.02
   9   5 -12    4.12   64.36
   9   5 -12  -10.93   16.78
  -9  -5  12   -2.48   18.94
   8   5 -12  -10.90   55.14
   8   5 -12    4.28   17.63
  -8  -5  12  -29.55   14.62
   7   5 -12   85.59   28.72
   7   5 -12  112.70   65.24
  -7  -5  12  123.51   29.83
   6   5 -12  263.96   55.36
   6   5 -12  237.26   92.85
  -6  -5  12  287.89   53.85
  -6  -5  12  153.93   67.12
   5   5 -12   68.10   50.46
   5   5 -12   29.47   15.52
  -5  -5  12   16.36   15.97
  -5  -5  12  -35.11   27.12
  -5  -5  12    7.90   13.79
   4   5 -12   53.09   20.63
   4   5 -12   92.93   54.61
  -4  -5  12   47.96   21.54
  -4  -5  12   53.57   37.43
  -4  -5  12  111.70   28.61
  -4  -5  12   73.26   20.48
   3   5 -12   39.29   50.30
   3   5 -12   95.66   24.13
  -3  -5  12   91.06   24.39
  -3  -5  12   83.19   41.14
  -3  -5  12   90.33   24.02
  -3  -5  12   71.99   27.48
   2   5 -12  373.41   83.74
   2   5 -12  549.88  128.05
  -2  -5  12  442.07   79.94
  -2  -5  12  450.13   82.65
  -2  -5  12  471.31   94.52
  -2  -5  12  249.68   90.79
   1   5 -12   24.57   43.47
   1   5 -12   96.63   23.65
  -1  -5  12   70.05   27.17
  -1  -5  12  102.11   24.15
  -1  -5  12  109.44   24.43
   0   5 -12   69.32   18.08
   0   5 -12   85.07   37.15
   0  -5  12   33.02   17.57
   0  -5  12   46.62   20.02
   0  -5  12   29.31   16.91
  -1   5 -12  352.02   69.02
  -1   5 -12  419.52   98.93
   1  -5  12  360.84   67.49
   1  -5  12  244.90   63.84
   1  -5  12  359.79   75.83
  -2   5 -12  131.66  142.25
  -2   5 -12    7.63   12.98
   2  -5  12    7.78   14.01
   2  -5  12   32.53   14.39
   2  -5  12   -4.05   11.73
  -3   5 -12  128.99   24.24
  -3   5 -12  308.20  133.51
   3  -5  12   60.16   22.12
   3  -5  12   58.62   21.90
   3  -5  12   41.66   20.10
  -4   5 -12   18.71  323.82
  -4   5 -12   42.85   86.56
  -4   5 -12   20.75   16.43
   4  -5  12   45.49   16.92
   4  -5  12    0.33   15.17
  -5   5 -12  412.37  562.25
  -5   5 -12  697.41  122.01
   5  -5  12  576.42  115.83
   5  -5  12  594.46  118.83
  -6   5 -12  913.94  606.82
  -6   5 -12  524.18  109.71
   6  -5  12  532.96  107.12
   6  -5  12  543.65  103.70
  -7   5 -12  376.71  569.13
  -8   5 -12 2302.36 1831.61
  -9   5 -12   36.93   23.38
  -9   5 -12  557.80  708.01
   9  -5  12  -13.42   19.52
   9  -5  12   14.14   22.04
  10   4 -12  -16.19   16.80
  10   4 -12   99.61   79.91
 -10  -4  12  -25.06   17.70
   9   4 -12  129.38   33.45
   9   4 -12  124.34   84.16
  -9  -4  12  105.63   33.10
   8   4 -12   48.19   62.05
   8   4 -12  -10.15   15.24
  -8  -4  12   33.98   20.61
   7   4 -12  174.62   43.86
   7   4 -12  244.49   91.72
  -7  -4  12  210.96   44.85
   6   4 -12  259.52   96.05
   6   4 -12  216.69   52.17
  -6  -4  12  289.05   52.59
   5   4 -12    9.92   12.31
   5   4 -12  -60.55   43.34
  -5  -4  12  -22.21   13.17
  -5  -4  12   11.62   14.09
   4   4 -12   99.58   21.44
   4   4 -12   40.08   53.84
  -4  -4  12   51.34   20.90
  -4  -4  12   48.82   20.06
   3   4 -12  143.15   73.11
   3   4 -12  171.90   38.78
  -3  -4  12  147.78   37.60
  -3  -4  12  263.85   42.07
  -3  -4  12  132.14   50.60
   2   4 -12  175.65   33.58
   2   4 -12  163.73   63.42
  -2  -4  12  135.77   38.00
  -2  -4  12  180.05   33.85
  -2  -4  12  138.48   33.95
  -2  -4  12   19.16   41.08
   1   4 -12   68.99   20.08
   1   4 -12   68.63   47.28
  -1  -4  12   94.87   22.01
  -1  -4  12   51.33   20.86
  -1  -4  12   75.40   24.46
   0   4 -12   54.16   21.81
   0   4 -12   79.92   46.34
   0  -4  12  103.09   24.31
   0  -4  12  110.90   23.63
   0  -4  12  113.25   26.71
  -1   4 -12   77.78   43.85
  -1   4 -12  119.82   25.16
  -1   4 -12  -86.11  114.01
   1  -4  12   93.58   23.62
   1  -4  12  129.50   26.69
   1  -4  12  153.32   28.31
  -2   4 -12   68.18  106.69
  -2   4 -12  118.75  139.65
  -2   4 -12   28.38   15.39
   2  -4  12   25.18   18.37
   2  -4  12   41.06   16.58
   2  -4  12   62.84   16.67
  -3   4 -12  129.43   36.11
  -3   4 -12  268.08  135.72
   3  -4  12  163.63   35.92
   3  -4  12  101.90   36.40
   3  -4  12  219.42   39.68
  -4   4 -12   48.84   87.43
  -4   4 -12 -423.40  302.09
  -4   4 -12   75.15   20.68
   4  -4  12   46.96   21.47
   4  -4  12   69.88   19.92
  -5   4 -12  122.67   24.88
  -5   4 -12 -400.03  295.08
   5  -4  12  101.84   24.54
   5  -4  12   50.59   21.72
  -6   4 -12  143.07  420.02
  -6   4 -12   69.24   25.12
   6  -4  12   92.27   27.37
   6  -4  12   90.00   25.63
  -7   4 -12   -3.17   18.30
  -7   4 -12 -191.32  429.76
   7  -4  12   -0.80   15.41
   7  -4  12  -32.25   13.36
  -8   4 -12 -753.17  672.94
  -8   4 -12   37.32   22.83
   8  -4  12   35.65   23.47
   8  -4  12   53.22   21.10
  -9   4 -12  171.06   35.95
  -9   4 -12 -234.17  667.03
   9  -4  12  122.91   34.70
   9  -4  12   69.26   28.93
  11   3 -12  -11.62   19.35
  11   3 -12  -43.78   83.19
  11   3 -12   10.52  184.39
 -11  -3  12   57.98   26.31
  10   3 -12   28.69   20.09
  10   3 -12   54.82   79.43
 -10  -3  12   23.83   21.70
   9   3 -12  -24.62   60.64
   9   3 -12   42.35   18.99
  -9  -3  12   17.43   21.52
   8   3 -12  159.13   69.37
   8   3 -12   16.18   16.95
  -8  -3  12   50.00   21.36
   7   3 -12  292.07   56.28
   7   3 -12  321.14  105.50
  -7  -3  12  212.92   53.96
   6   3 -12   46.74   58.60
   6   3 -12   -4.11   12.38
  -6  -3  12   -2.51   14.84
   5   3 -12   33.34   54.19
   5   3 -12    2.50   12.27
  -5  -3  12   13.51   14.90
   4   3 -12   41.72   14.39
   4   3 -12    5.21   47.42
  -4  -3  12   24.66   15.74
  -4  -3  12   25.29   16.78
   3   3 -12  247.42   51.80
   3   3 -12  263.58   90.95
   3   3 -12  299.78   52.66
  -3  -3  12  210.14   49.99
  -3  -3  12  233.62   51.92
   2   3 -12  544.95  120.53
   2   3 -12  642.03  179.04
   2   3 -12  752.06  121.34
  -2  -3  12  543.84  113.89
  -2  -3  12  681.68  117.81
   1   3 -12    5.68    9.32
   1   3 -12   72.20   44.75
   1   3 -12  -16.96    9.93
  -1  -3  12    8.76   12.85
  -1  -3  12  -22.20   12.42
  -1  -3  12  -14.36   12.78
   0   3 -12   83.99   20.96
   0   3 -12  107.78   48.61
   0   3 -12   77.26   24.37
   0   3 -12  237.37  149.12
   0  -3  12   74.23   24.37
   0  -3  12  106.80   23.95
   0  -3  12   65.75   22.44
  -1   3 -12  109.13   29.64
  -1   3 -12   93.90   21.95
  -1   3 -12   41.15   43.64
  -1   3 -12  245.39  134.72
   1  -3  12   85.30   24.76
   1  -3  12   47.57   21.40
   1  -3  12  109.11   24.50
  -2   3 -12   65.67  232.70
  -2   3 -12  793.17  209.13
  -2   3 -12  225.65   52.77
  -2   3 -12  222.25   59.75
   2  -3  12  309.24   57.16
   2  -3  12  219.07   51.02
   2  -3  12  299.95   54.77
  -3   3 -12  127.80  111.50
  -3   3 -12   56.94   18.53
   3  -3  12   55.75   20.13
   3  -3  12   62.15   22.96
  -4   3 -12   37.37  139.60
  -4   3 -12  212.65   45.95
   4  -3  12  227.18   47.39
   4  -3  12  276.16   47.23
  -5   3 -12 -111.36  328.60
  -5   3 -12  223.87   57.84
   5  -3  12  450.44   60.62
   5  -3  12  338.22   60.25
  -6   3 -12   27.31   18.23
  -6   3 -12 -226.20  368.88
   6  -3  12   31.11   19.30
   6  -3  12   38.81   18.42
  -7   3 -12 -587.36  384.67
  -7   3 -12    0.90   16.55
   7  -3  12   14.09   19.42
   7  -3  12   24.60   17.73
  -8   3 -12   58.89   24.82
   8  -3  12   73.16   25.55
   8  -3  12   99.33   29.26
  -9   3 -12  161.98   47.20
   9  -3  12  210.07   49.32
   9  -3  12  262.99   48.99
  11   2 -12   -7.38   76.17
  11   2 -12  -78.17  146.77
  11   2 -12   47.74   21.11
  10   2 -12  221.92  112.30
  10   2 -12  229.33   47.64
  10   2 -12  456.68  233.15
 -10  -2  12  146.98   47.18
   9   2 -12   -7.97   13.06
   9   2 -12  -55.43   64.95
   9   2 -12    6.02  149.83
  -9  -2  12   36.16   20.21
   8   2 -12  306.56  184.82
   8   2 -12  136.96   31.72
   8   2 -12   89.00   76.55
  -8  -2  12  110.05   32.96
   7   2 -12  332.08  199.51
   7   2 -12  100.00   27.08
   7   2 -12   47.04   72.99
  -7  -2  12  139.38   32.16
   6   2 -12  214.82   77.62
   6   2 -12  370.95  181.14
  -6  -2  12   73.95   28.04
   5   2 -12  389.36   67.98
   5   2 -12  271.35   66.47
   5   2 -12  319.04  115.16
   5   2 -12 1152.12  297.14
  -5  -2  12  329.82   66.72
   4   2 -12   28.39   12.41
   4   2 -12  214.88  159.71
   4   2 -12   37.86   53.84
   4   2 -12   31.72   12.66
  -4  -2  12   36.10   17.94
  -4  -2  12   41.80   17.41
   3   2 -12  482.93   86.33
   3   2 -12  410.43   85.83
   3   2 -12  284.42  132.76
   3   2 -12 1236.04  316.78
  -3  -2  12  469.03   87.47
  -3  -2  12  405.71   83.56
   2   2 -12  216.68  143.73
   2   2 -12  108.47   61.74
   2   2 -12   85.67   21.82
   2   2 -12   93.29   22.18
  -2  -2  12  121.79   26.57
  -2  -2  12  101.48   27.12
   1   2 -12   29.40   45.25
   1   2 -12   28.64   10.58
   1   2 -12   30.50   11.12
   1   2 -12   37.24  101.48
  -1  -2  12   33.79   16.58
  -1  -2  12   29.98   16.09
   0   2 -12  -30.13   96.98
   0   2 -12   28.18   40.27
   0   2 -12   -2.88    8.17
   0   2 -12   -6.02    8.22
   0  -2  12  -20.18   11.36
   0  -2  12   11.97   13.04
   0  -2  12    3.79   12.13
  -1   2 -12   59.82   17.64
  -1   2 -12   41.42   18.79
  -1   2 -12   82.03   44.20
  -1   2 -12  219.03  137.46
   1  -2  12  106.21   22.09
   1  -2  12   47.42   20.71
   1  -2  12   90.46   20.14
  -2   2 -12  283.66   59.95
  -2   2 -12  356.27  194.48
  -2   2 -12    4.97  268.86
  -2   2 -12  379.87   64.62
   2  -2  12  337.19   62.74
   2  -2  12  362.25   60.62
  -3   2 -12   34.75   22.57
  -3   2 -12 -215.73  178.49
  -3   2 -12  -12.47   10.27
  -3   2 -12  -18.57   99.65
   3  -2  12   11.23   14.08
   3  -2  12   35.47   15.52
  -4   2 -12   78.56   22.13
  -4   2 -12   23.89   99.56
  -4   2 -12   99.77  222.31
   4  -2  12  105.39   25.48
   4  -2  12   83.55   24.24
  -5   2 -12   21.84   13.51
  -5   2 -12 -223.05  239.52
   5  -2  12    0.61   14.27
   5  -2  12    1.31   15.36
  -6   2 -12 -150.33  262.77
  -6   2 -12   14.68   15.39
   6  -2  12   87.25   21.42
   6  -2  12   17.02   16.97
  -7   2 -12    6.99   14.84
   7  -2  12   -6.80   15.99
   7  -2  12   -5.76   16.72
  -8   2 -12   51.49   22.82
   8  -2  12   70.19   26.82
   8  -2  12   85.54   24.29
  11   1 -12   41.47   17.74
  11   1 -12  -53.78   72.35
  11   1 -12   95.27  180.43
  10   1 -12   67.51   20.86
  10   1 -12  356.58  197.50
  10   1 -12   -8.95   77.02
 -10  -1  12   70.78   28.71
   9   1 -12   -2.12   10.71
   9   1 -12  135.49  163.33
   9   1 -12  -44.74   67.41
  -9  -1  12   -7.44   17.16
   8   1 -12  -18.23  144.74
   8   1 -12   89.09   20.46
   8   1 -12   61.47   18.45
   8   1 -12   78.21   79.17
  -8  -1  12   43.94   22.95
   7   1 -12  -57.19  129.57
   7   1 -12    5.75    9.20
   7   1 -12   10.57   62.88
   7   1 -12   11.56    9.31
  -7  -1  12   17.49   15.73
   6   1 -12  209.59   46.11
   6   1 -12  749.21  249.56
   6   1 -12  281.79   46.71
   6   1 -12  127.42   85.91
  -6  -1  12  166.34   46.95
   5   1 -12   41.88  137.53
   5   1 -12   43.84   12.20
   5   1 -12   46.29   12.40
   5   1 -12   58.57   63.98
  -5  -1  12   48.81   18.35
   4   1 -12   76.59   68.88
   4   1 -12   83.48   20.11
   4   1 -12  118.69   20.76
   4   1 -12  312.79  182.92
  -4  -1  12  101.32   26.38
  -4  -1  12   68.97   24.08
   3   1 -12   28.38    7.93
   3   1 -12   32.44    8.04
   3   1 -12    6.51   47.10
   3   1 -12   53.11  130.90
  -3  -1  12   33.39   15.46
  -3  -1  12    9.75   15.61
   2   1 -12  118.28  143.93
   2   1 -12   86.59   63.77
  -2  -1  12   61.94   21.95
  -2  -1  12   99.52   23.02
   1   1 -12  254.69  161.33
   1   1 -12  119.59   59.52
  -1  -1  12  114.01   26.98
  -1  -1  12   79.21   24.62
   0   1 -12  617.95  245.79
   0   1 -12  348.40  113.56
   0  -1  12  366.32   70.94
   0  -1  12  346.34   73.01
  -1   1 -12  482.00  356.82
  -1   1 -12  718.70  134.30
  -1   1 -12  691.36  134.38
  -1   1 -12  645.15  195.05
   1  -1  12  710.36  150.06
   1  -1  12  757.31  129.31
   1  -1  12  772.76  133.03
  -2   1 -12  -83.58  187.18
  -2   1 -12   83.49   21.03
  -2   1 -12  130.88   21.56
  -2   1 -12   26.09  127.70
   2  -1  12   98.24   25.77
   2  -1  12  117.63   28.01
  -3   1 -12  -18.01   98.48
  -3   1 -12   20.19    9.45
  -3   1 -12 -130.98  181.04
  -3   1 -12   20.85   11.57
   3  -1  12   35.24   15.95
   3  -1  12   30.14   16.62
  -4   1 -12   72.10  193.18
  -4   1 -12   60.43   18.27
  -4   1 -12    0.43   98.79
  -4   1 -12    5.70   10.14
   4  -1  12   15.23   16.88
   4  -1  12   31.97   15.19
  -5   1 -12   72.98   19.52
  -5   1 -12  -30.75  235.22
  -5   1 -12   95.05   27.61
   5  -1  12   86.06   23.13
   5  -1  12   64.25   24.49
  -6   1 -12  -79.61  291.54
  -6   1 -12  171.04   34.72
   6  -1  12  164.39   37.47
   6  -1  12  154.28   37.92
  -7   1 -12  -10.98   12.02
   7  -1  12   12.69   15.78
   7  -1  12   -4.37   17.27
  -8   1 -12  176.76   39.45
   8  -1  12  192.92   43.25
   8  -1  12  166.57   43.90
  11   0 -12  124.43   28.13
  11   0 -12  129.98   28.01
  11   0 -12  258.14  210.66
  11   0 -12  194.30  111.13
  10   0 -12   32.70   85.72
  10   0 -12   26.29  158.43
  10   0 -12   44.91   12.33
  10   0 -12   36.30   11.97
 -10   0  12   55.00   24.48
   9   0 -12  110.79   21.06
   9   0 -12   51.16   87.59
   9   0 -12  186.67  170.33
  -9   0  12   43.67   27.26
   8   0 -12   -8.82   74.10
   8   0 -12  135.49  162.09
  -8   0  12   -4.88   17.36
   7   0 -12  205.07  107.29
   7   0 -12  377.17  229.16
  -7   0  12  285.86   57.77
   6   0 -12  804.21  282.52
   6   0 -12  364.86  127.69
  -6   0  12  327.18   71.90
   5   0 -12    8.86   59.12
   5   0 -12  -12.22  133.66
  -5   0  12   13.71   14.71
   4   0 -12  343.11  119.99
   4   0 -12  656.40  256.18
  -4   0  12  298.50   68.58
  -4   0  12  364.10   67.81
   3   0 -12  148.77  162.77
   3   0 -12  113.22   63.37
  -3   0  12  150.78   27.08
  -3   0  12   58.05   25.45
   2   0 -12  177.24  176.22
   2   0 -12  200.09   91.98
  -2   0  12  247.04   52.06
  -2   0  12  270.98   49.75
   1   0 -12  -16.66  119.40
   1   0 -12   49.33   57.22
  -1   0  12  100.11   22.49
  -1   0  12   69.37   21.81
   0   0 -12  152.13   71.19
   0   0 -12  214.13  175.41
   0   0  12  158.40   33.76
   0   0  12  141.96   35.00
  -1   0 -12  154.53  279.65
  -1   0 -12  564.14  158.34
   1   0  12  675.22  101.33
   1   0  12  524.71  104.84
  -2   0 -12   50.53  122.44
   2   0  12  123.19   29.58
   2   0  12  111.83   26.99
  -3   0 -12   49.13  208.40
  -3   0 -12  -40.34   96.74
   3   0  12    0.01   13.79
   3   0  12   13.53   14.48
  -4   0 -12    9.54  217.89
  -4   0 -12  -52.87   93.38
   4   0  12   53.61   19.56
   4   0  12   73.70   21.17
  -5   0 -12  -56.70  281.10
   5   0  12  251.72   43.79
   5   0  12  194.06   44.68
  -6   0 -12 -289.35  266.41
   6   0  12   15.58   18.37
   6   0  12   62.30   20.19
  -7   0 -12 -264.85  305.30
   7   0  12   -3.77   17.60
   7   0  12   -9.47   15.00
  11  -1 -12   93.39   92.56
  11  -1 -12   47.13  184.90
  10  -1 -12  -71.59   77.41
  10  -1 -12   13.67  164.55
 -10   1  12    2.55   20.72
   9  -1 -12   -2.43  147.37
   9  -1 -12 -143.48   69.54
  -9   1  12  -38.30   16.12
   8  -1 -12   37.15   69.79
   8  -1 -12   96.90  155.79
  -8   1  12   31.60   20.08
   7  -1 -12   71.19   83.96
   7  -1 -12  259.39  176.96
  -7   1  12  118.73   30.82
   6  -1 -12   17.60  147.79
   6  -1 -12   89.71   78.40
  -6   1  12   67.46   22.35
   5  -1 -12   25.05  149.08
   5  -1 -12  -31.96   57.63
  -5   1  12   35.16   15.62
  -5   1  12   -9.85   13.54
   4  -1 -12  -74.27  106.30
   4  -1 -12  -67.11   45.74
  -4   1  12   -7.64   13.46
  -4   1  12   -4.91   11.60
   3  -1 -12   77.53   64.72
   3  -1 -12   61.41  151.65
  -3   1  12   81.81   23.43
  -3   1  12  101.46   26.13
   2  -1 -12  206.92  198.23
   2  -1 -12  290.40   94.65
  -2   1  12  213.87   45.47
  -2   1  12  198.81   43.49
   1  -1 -12   42.03  143.30
   1  -1 -12  -55.12   40.25
  -1   1  12    4.85   13.47
  -1   1  12   -7.64   13.64
   0  -1 -12   58.48   54.10
   0  -1 -12   95.50  155.99
   0   1  12   97.75   25.17
   0   1  12  124.06   28.31
  -1  -1 -12   37.85   46.10
  -1  -1 -12  116.36  131.89
   1   1  12  -14.19   13.69
   1   1  12  -16.10   10.59
  -2  -1 -12   81.14  134.83
   2   1  12   -1.53   14.35
   2   1  12   25.61   15.66
  -3  -1 -12   82.41  125.47
   3   1  12  -21.35   13.06
   3   1  12   -9.03   14.46
  -4  -1 -12   54.90  122.00
  -4  -1 -12  -35.09  255.00
   4   1  12  114.98   30.50
   4   1  12  141.80   29.14
  -5  -1 -12   58.41  326.52
   5   1  12  334.19   66.69
   5   1  12  395.83   65.31
  -6  -1 -12 -370.58  283.61
   6   1  12   -3.68   17.26
   6   1  12   12.24   15.99
  -7  -1 -12 -250.46  316.87
   7   1  12   78.61   21.47
   7   1  12   45.02   22.58
  10  -2 -12  167.47  120.06
  10  -2 -12  130.83  230.52
 -10   2  12  221.82   48.30
   9  -2 -12  113.97  207.83
   9  -2 -12  115.64   85.73
  -9   2  12   -7.98   17.66
   8  -2 -12   -2.30  210.77
   8  -2 -12  224.77  111.19
  -8   2  12  234.46   46.96
   7  -2 -12  235.15  110.62
   7  -2 -12   35.52  211.12
  -7   2  12  336.02   57.99
   6  -2 -12  112.39   76.36
   6  -2 -12   -6.85  146.16
  -6   2  12   19.54   17.22
   5  -2 -12   93.57   83.51
   5  -2 -12   69.33  181.43
  -5   2  12  218.51   45.95
  -5   2  12  250.74   44.69
   4  -2 -12  -26.00   59.27
   4  -2 -12   -4.55  146.34
  -4   2  12   48.23   19.18
  -4   2  12   56.09   18.15
   3  -2 -12  226.40  102.64
   3  -2 -12  -17.94  178.75
  -3   2  12  293.91   52.48
  -3   2  12  292.80   55.12
   2  -2 -12  190.77   86.24
   2  -2 -12  104.30  183.58
  -2   2  12  216.69   42.82
  -2   2  12  207.53   44.73
   1  -2 -12   47.27   53.45
   1  -2 -12   71.73  134.60
  -1   2  12    7.96   16.67
  -1   2  12   59.64   17.09
   0  -2 -12   60.22   55.83
   0  -2 -12   13.92  145.56
   0   2  12   44.50   19.00
   0   2  12  100.21   23.24
  -1  -2 -12   64.63   54.97
  -1  -2 -12   74.21  138.64
   1   2  12   30.30   18.33
   1   2  12   48.17   16.93
  -2  -2 -12  -41.90  121.88
   2   2  12   79.20   23.38
   2   2  12  104.89   25.41
  -3  -2 -12   39.85  114.90
   3   2  12   24.67   16.71
   3   2  12    6.34   14.23
  -4  -2 -12  -47.88  119.43
   4   2  12  137.08   29.06
   4   2  12  125.04   30.95
  -5  -2 -12 -230.42  281.45
   5   2  12  111.20   23.77
   5   2  12   54.77   22.67
  -6  -2 -12 -112.42  307.38
   6   2  12  -13.39   16.49
  10  -3 -12  -99.18  179.42
  10  -3 -12  108.68  105.89
 -10   3  12   59.37   25.96
   9  -3 -12  -91.70   69.51
   9  -3 -12   53.24  197.60
  -9   3  12  131.79   29.78
   8  -3 -12  -63.79   74.81
   8  -3 -12    1.74  167.42
  -8   3  12   15.35   16.71
   7  -3 -12  -29.61   62.91
   7  -3 -12  269.31  223.95
   6  -3 -12   15.72   74.34
   6  -3 -12  107.10  177.51
  -6   3  12   18.24   15.19
   5  -3 -12 -104.37   59.80
   5  -3 -12   62.53  156.14
  -5   3  12  -19.52   13.46
  -5   3  12   30.57   14.25
   4  -3 -12   15.60   63.98
   4  -3 -12  -31.80  134.91
  -4   3  12   51.77   18.39
  -4   3  12   45.22   19.04
   3  -3 -12   75.90  169.19
   3  -3 -12   76.12   71.46
  -3   3  12  149.04   34.09
  -3   3  12  155.77   32.16
   2  -3 -12  141.02  177.14
   2  -3 -12   42.37   54.75
  -2   3  12   24.40   15.96
  -2   3  12   28.66   16.54
   1  -3 -12   -5.02   54.65
   1  -3 -12  248.61  176.75
  -1   3  12   32.92   15.49
  -1   3  12   14.16   14.96
   0  -3 -12   32.13   47.57
   0  -3 -12  -57.23  124.89
   0   3  12   32.23   14.15
   0   3  12   24.08   15.91
  -1  -3 -12  170.10  198.69
   1   3  12  261.96   58.53
   1   3  12  323.24   56.51
  -2  -3 -12   18.79  135.99
   2   3  12   46.00   20.30
   2   3  12   71.49   20.40
  -3  -3 -12  -93.04  113.35
   3   3  12   36.86   17.38
  -4  -3 -12   66.67  148.75
   4   3  12  180.62   38.59
   5   3  12    1.41   17.69
   9  -4 -12 -185.29  174.60
   9  -4 -12   44.38   93.61
  -9   4  12   38.92   21.95
   8  -4 -12   97.29   83.67
   8  -4 -12   59.90  187.50
  -8   4  12   61.63   23.35
   7  -4 -12  213.09   99.87
   7  -4 -12   64.14  199.83
  -7   4  12   68.23   23.97
   6  -4 -12   68.76  213.96
   6  -4 -12  303.32  113.82
  -6   4  12  212.28   48.38
  -6   4  12  227.12   46.05
   5  -4 -12   18.24   70.90
   5  -4 -12 -232.06  125.47
  -5   4  12   40.52   18.24
  -5   4  12    6.29   13.84
   4  -4 -12   53.30  227.48
   4  -4 -12  284.46  128.55
  -4   4  12  406.57   75.34
  -4   4  12  450.96   73.47
   3  -4 -12  -24.63  157.47
   3  -4 -12   22.62   70.14
  -3   4  12  141.85   34.05
  -3   4  12  208.59   34.14
   2  -4 -12   15.95   65.82
   2  -4 -12  -50.45  121.15
  -2   4  12   -8.98   13.47
  -2   4  12   11.35   14.98
   1  -4 -12   -5.36   49.24
   1  -4 -12  -20.56  135.71
  -1   4  12   23.29   15.64
   0  -4 -12  -60.55  133.42
   0  -4 -12   14.52   58.69
   0   4  12   64.10   19.77
  -1  -4 -12  -97.64  138.20
   1   4  12  194.77   35.58
  -2  -4 -12  108.00  152.40
   2   4  12   84.78   25.69
  -3  -4 -12  -41.86  126.68
   3   4  12   16.30   16.70
  -4  -4 -12  -69.67  128.71
   9  -5 -12   29.32  208.17
   8  -5 -12   -9.67  178.45
   8  -5 -12 -103.11   69.75
  -8   5  12  -21.54   16.67
   7  -5 -12  165.47  102.53
   7  -5 -12    0.60  184.51
  -7   5  12  102.66   27.74
   6  -5 -12   13.65  190.13
   6  -5 -12   13.89   74.02
  -6   5  12   81.28   21.35
  -6   5  12   38.58   20.14
   5  -5 -12  -36.04   66.92
   5  -5 -12  -12.59  164.26
  -5   5  12   -4.84   13.71
   4  -5 -12  140.08  177.73
   4  -5 -12   -0.13   62.70
  -4   5  12   30.74   18.82
   3  -5 -12   57.20  151.84
   3  -5 -12   76.49   76.57
  -3   5  12   14.67   16.59
   2  -5 -12  -24.14   60.83
   2  -5 -12  -37.99  128.99
  -2   5  12   21.01   16.26
   1  -5 -12   22.82   61.10
   1  -5 -12   36.87  152.26
  -1   5  12   20.26   16.59
   0  -5 -12  181.59   75.46
   0  -5 -12  -30.59  158.88
   0   5  12  134.49   31.93
  -1  -5 -12   44.78  149.99
  -2  -5 -12 -141.87  131.77
  -3  -5 -12  -23.77  147.98
   7  -6 -12   -1.04  228.07
   7  -6 -12  144.80  108.36
  -7   6  12  205.22   43.71
   6  -6 -12  140.23   89.55
   6  -6 -12  -13.00  169.33
  -6   6  12   45.88   21.36
   5  -6 -12    2.79  194.08
   5  -6 -12   77.79   80.51
  -5   6  12  108.50   28.82
   4  -6 -12   10.15   72.29
   4  -6 -12  -33.05  176.48
  -4   6  12  -15.28   15.04
   3  -6 -12   21.14   80.38
   3  -6 -12   73.35  194.17
  -3   6  12  124.28   29.50
   2  -6 -12 -116.83  167.22
   2  -6 -12   96.90   70.12
   1  -6 -12   17.58  123.25
   1  -6 -12  -44.82   57.13
   0  -6 -12   -6.20  163.53
  -1  -6 -12  -50.20  155.50
   5  -7 -12  106.63  203.64
   5  -7 -12   32.58   87.79
   4  -7 -12  -39.05  176.56
   4  -7 -12 -112.53   62.40
   3  -7 -12  103.63   85.66
   3  -7 -12  -38.54  174.07
   2  -7 -12  -48.46   63.24
   2  -7 -12  119.91  198.49
   1  -7 -12  -57.73  155.26
   1  -7 -12    1.94   68.88
   0 -14  13   25.62   31.66
   0 -14  13   31.55   20.53
   1 -14  13   28.72   21.03
   1 -14  13   40.08   34.13
   2 -14  13  -14.83   17.81
   2 -14  13   21.05   31.11
  -3 -13  13  118.07   36.48
  -3 -13  13   15.94   20.17
  -2 -13  13  122.20   32.70
  -2 -13  13  126.14   42.81
  -1 -13  13   24.97   29.37
  -1 -13  13   20.66   18.13
   0 -13  13   -2.97   24.42
   0 -13  13  -19.68   15.26
   1 -13  13   41.65   21.05
   1 -13  13   26.75   27.91
   2 -13  13  196.85   43.91
   2 -13  13  193.44   42.96
   2 -13  13  141.06   52.82
   3 -13  13   33.37   20.16
   3 -13  13    2.65   19.57
   3 -13  13   17.65   28.16
   4 -13  13  293.80   63.17
   4 -13  13  313.42   63.95
   4 -13  13  273.44   77.45
   5 -13  13  131.00   38.79
   5 -13  13  184.19   40.53
   5 -13  13  159.12   52.61
  -5 -12  13  118.97   43.87
  -5 -12  13  134.03   34.76
  -4 -12  13   -2.70   17.80
  -4 -12  13   -0.22   23.82
  -3 -12  13  307.43   86.37
  -3 -12  13  379.03   70.63
  -2 -12  13  142.48   34.19
  -2 -12  13  123.81   43.64
  -1 -12  13  -29.06   19.85
  -1 -12  13   -8.79   14.53
  -1 -12  13  -14.99   14.88
   0 -12  13   25.70   17.40
   0 -12  13   15.39   17.34
   0 -12  13   51.03   26.86
   1 -12  13   32.91   28.06
   1 -12  13   54.95   22.00
   1 -12  13   35.91   20.20
   2 -12  13  352.87   76.19
   2 -12  13  386.38   92.49
   2 -12  13  409.78   78.09
   3 -12  13  241.66   62.54
   3 -12  13  198.60   49.51
   3 -12  13  236.65   50.66
   4 -12  13   14.26   28.21
   4 -12  13   27.20   18.36
   4 -12  13   13.00   20.28
   5 -12  13   90.00   38.45
   5 -12  13   77.25   28.93
   5 -12  13  131.39   33.00
   6 -12  13   40.05   21.85
   6 -12  13    9.44   19.91
   6 -12  13  -21.91   25.90
  -6 -11  13  193.99   40.92
  -6 -11  13  126.58   48.98
  -5 -11  13  192.27   41.20
  -5 -11  13  150.78   50.61
  -4 -11  13    3.64   16.35
  -4 -11  13  -24.45   19.93
  -4 -11  13  -28.73   15.97
  -3 -11  13   79.33   23.53
  -3 -11  13   48.53   27.58
  -3 -11  13   74.03   23.16
  -2 -11  13   36.02   23.17
  -2 -11  13   -8.23   13.64
  -2 -11  13   -6.02   14.92
  -1 -11  13   12.33   15.29
  -1 -11  13   20.99   15.79
  -1 -11  13   13.22   22.77
   0 -11  13    4.40   15.39
   0 -11  13   45.58   17.61
   0 -11  13   11.46   22.19
   1 -11  13  338.53   64.56
   1 -11  13  340.81   63.22
   1 -11  13  245.64   76.07
   2 -11  13  222.95   46.29
   2 -11  13  168.40   43.47
   2 -11  13  217.17   54.99
   3 -11  13   58.49   28.42
   3 -11  13    2.14   14.83
   3 -11  13   30.18   19.06
   4 -11  13  -24.59   16.06
   4 -11  13   36.72   26.00
   4 -11  13    8.26   17.35
   5 -11  13  163.45   39.62
   5 -11  13  134.38   46.28
   5 -11  13  157.20   38.69
   6 -11  13  233.57   59.23
   6 -11  13  312.20   59.06
   6 -11  13  252.91   70.08
   7 -11  13   34.36   22.64
   7 -11  13   25.32   20.59
  -7 -10  13   84.47   43.62
  -7 -10  13   93.56   31.98
  -7 -10  13  153.75   34.53
  -6 -10  13  325.12   69.08
  -6 -10  13  391.00   86.50
  -6 -10  13  324.77   69.73
  -5 -10  13   17.54   19.27
  -5 -10  13   11.76   15.32
  -5 -10  13   -8.79   20.85
  -4 -10  13   52.68   23.05
  -4 -10  13   97.92   25.15
  -4 -10  13  114.26   32.82
  -3 -10  13   45.53   23.50
  -3 -10  13  122.57   34.43
  -3 -10  13   88.90   24.31
   2  10 -13   77.27   24.05
  -2 -10  13    7.59   22.15
  -2 -10  13   46.07   17.25
  -2 -10  13   41.90   19.11
   1  10 -13  197.59   55.60
  -1 -10  13  259.99   52.78
  -1 -10  13  324.54   54.54
  -1 -10  13  228.10   62.80
   0  10 -13   33.79   21.56
   0 -10  13   25.01   21.36
   0 -10  13   18.49   15.36
   0 -10  13   38.26   17.45
  -1  10 -13  366.42   74.81
   1 -10  13  310.02   69.26
   1 -10  13  289.89   80.74
   1 -10  13  430.50   70.21
  -2  10 -13    4.49   22.34
   2 -10  13  117.94   31.19
   2 -10  13   83.03   24.65
   2 -10  13   92.15   23.95
  -3  10 -13   19.80   21.23
   3 -10  13  -19.86   14.45
   3 -10  13  -13.87   15.43
   3 -10  13   23.09   22.64
  -4  10 -13   63.28   23.35
   4 -10  13   22.32   23.26
   4 -10  13   20.07   17.95
   4 -10  13   -6.52   17.07
   5 -10  13  220.99   51.29
   5 -10  13  204.98   50.35
   5 -10  13  268.71   61.53
   6 -10  13  219.40   62.21
   6 -10  13  253.61   54.79
   6 -10  13  242.91   53.45
   7 -10  13   41.41   24.46
   7 -10  13   42.00   22.76
   8 -10  13   39.14   28.78
   8   9 -13   42.25   30.45
  -8  -9  13  133.64   29.89
  -8  -9  13   70.75   35.34
  -8  -9  13   36.74   22.57
  -8  -9  13  -30.63   52.90
   7   9 -13   19.05   23.61
  -7  -9  13   95.37   24.77
  -7  -9  13   30.75   21.50
  -7  -9  13    4.56   52.08
  -7  -9  13   85.19   35.10
   6   9 -13  218.38   47.98
  -6  -9  13  137.60   42.48
  -6  -9  13  152.63   66.78
  -6  -9  13  220.70   44.33
  -6  -9  13  232.87   56.22
   5   9 -13   37.91   19.57
  -5  -9  13   61.59   26.15
  -5  -9  13   -8.73   14.66
  -5  -9  13    9.99   16.83
   4   9 -13  -27.91   15.02
  -4  -9  13  -19.17   15.37
  -4  -9  13    5.81   14.27
  -4  -9  13  -31.98   18.91
   3   9 -13   10.42   18.45
  -3  -9  13   40.77   17.48
  -3  -9  13   44.69   17.78
  -3  -9  13   25.61   20.73
   2   9 -13  128.91   39.46
  -2  -9  13  205.44   39.29
  -2  -9  13  172.57   44.94
  -2  -9  13  153.77   36.76
   1   9 -13    6.66   17.49
  -1  -9  13   29.56   16.01
  -1  -9  13    8.70   17.87
  -1  -9  13   10.04   14.18
   0   9 -13   99.04   27.77
   0  -9  13   72.84   24.39
   0  -9  13   83.05   24.16
   0  -9  13   64.98   28.13
  -1   9 -13   18.50   17.85
   1  -9  13   16.97   19.16
   1  -9  13    9.72   15.29
   1  -9  13   38.01   17.83
  -2   9 -13   19.96   18.24
   2  -9  13    5.95   16.18
   2  -9  13   13.51   20.18
   2  -9  13   46.52   18.18
  -3   9 -13   61.24   28.44
   3  -9  13  109.66   26.94
   3  -9  13  110.18   33.27
   3  -9  13   94.78   27.25
  -4   9 -13  257.12   58.98
   4  -9  13  285.22   56.87
   4  -9  13  209.01   53.46
   4  -9  13  305.80   66.66
  -5   9 -13  463.60   90.21
   5  -9  13  387.68   97.43
   5  -9  13  383.18   83.57
   5  -9  13  481.34   87.27
  -6   9 -13   10.43   20.14
   6  -9  13    7.33   17.44
   6  -9  13   52.59   22.02
  -7   9 -13   43.47   26.34
   7  -9  13   36.00   23.43
   7  -9  13   76.98   26.87
  -8   9 -13  -46.29   21.27
   8  -9  13  -11.02   18.84
   8  -9  13   19.04   22.04
   8   8 -13   23.38   22.09
   8   8 -13   26.94   57.43
  -8  -8  13   55.39   24.08
  -8  -8  13   24.48   32.71
  -8  -8  13   -2.05   46.48
  -8  -8  13   55.29   22.15
   7   8 -13  125.69   68.19
   7   8 -13   53.30   31.55
  -7  -8  13   96.61   54.42
  -7  -8  13  149.29   44.12
  -7  -8  13  129.73   31.89
  -7  -8  13  130.74   31.55
   6   8 -13  -56.03   42.10
   6   8 -13   13.86   18.50
  -6  -8  13    3.72   15.79
  -6  -8  13  -19.51   14.05
  -6  -8  13   45.57   24.75
  -6  -8  13   -2.38   41.35
   5   8 -13  104.46   27.08
  -5  -8  13   64.68   32.00
  -5  -8  13   38.37   44.47
  -5  -8  13   48.92   22.63
  -5  -8  13   78.02   24.71
   4   8 -13   12.66   17.56
  -4  -8  13   57.11   18.65
  -4  -8  13   20.63   20.98
  -4  -8  13   40.30   17.46
  -4  -8  13   52.24   44.40
   3   8 -13  361.00   70.08
  -3  -8  13  315.68   65.94
  -3  -8  13  316.81   77.53
  -3  -8  13  309.82   64.36
   2   8 -13  584.35  112.71
  -2  -8  13  565.98  106.93
  -2  -8  13  552.49  123.27
  -2  -8  13  522.81  104.30
   1   8 -13   28.52   17.10
  -1  -8  13  -13.30   12.68
  -1  -8  13  -13.59   15.10
  -1  -8  13   30.20   15.38
   0   8 -13   92.06   28.25
   0  -8  13   95.80   27.97
   0  -8  13  127.11   33.51
   0  -8  13  128.56   29.16
  -1   8 -13   -3.28   14.86
   1  -8  13   30.35   15.26
   1  -8  13   38.83   19.36
   1  -8  13    7.00   15.98
  -2   8 -13  227.18   49.80
   2  -8  13  250.45   55.87
   2  -8  13  193.22   47.06
   2  -8  13  209.04   47.08
  -3   8 -13    2.04   17.11
   3  -8  13   21.36   19.71
   3  -8  13   25.46   15.78
   3  -8  13   30.99   18.02
  -4   8 -13   91.31   30.06
   4  -8  13  146.13   34.13
   4  -8  13   85.03   27.93
   4  -8  13   81.82   28.18
  -5   8 -13  287.69   55.95
   5  -8  13  209.15   50.77
   5  -8  13  247.94   53.55
   5  -8  13  220.93   58.79
  -6   8 -13   49.02   23.77
   6  -8  13   37.67   20.27
   6  -8  13   52.02   23.09
  -7   8 -13  -28.01   20.35
   7  -8  13    6.97   20.66
   7  -8  13  -24.54   14.66
  -8   8 -13    3.04   21.08
   8  -8  13   -1.05   18.81
   8  -8  13    7.75   21.74
   9   7 -13   36.22   65.73
   9   7 -13   94.18   28.90
  -9  -7  13   19.57   24.83
  -9  -7  13   59.15   41.27
   8   7 -13   26.78   22.08
   8   7 -13   35.01   60.89
  -8  -7  13   80.63   50.05
  -8  -7  13   12.48   32.32
  -8  -7  13   41.18   20.93
   7   7 -13   98.82   30.82
   7   7 -13   39.44   60.23
  -7  -7  13  132.60   29.83
  -7  -7  13   48.83   48.46
  -7  -7  13   88.12   28.27
  -7  -7  13   84.16   37.17
   6   7 -13  -16.22   46.95
   6   7 -13   18.44   17.45
  -6  -7  13  -45.29   37.33
  -6  -7  13   -7.15   16.00
  -6  -7  13   -4.49   15.40
  -6  -7  13   50.97   28.82
   5   7 -13  -22.71   44.93
   5   7 -13   41.09   20.55
  -5  -7  13   48.87   20.80
  -5  -7  13   18.72   38.64
  -5  -7  13   68.40   22.09
  -5  -7  13   51.22   24.72
   4   7 -13    6.92   17.20
   4   7 -13  -55.43   35.67
  -4  -7  13   -9.57   13.29
  -4  -7  13    5.10   18.83
  -4  -7  13   51.28   39.66
  -4  -7  13   23.62   15.97
   3   7 -13  449.71  115.39
   3   7 -13  397.86   75.45
  -3  -7  13  290.67   69.67
  -3  -7  13  359.63   72.67
  -3  -7  13  364.53   84.14
   2   7 -13   94.35   46.60
   2   7 -13   55.95   23.31
  -2  -7  13  118.76   25.30
  -2  -7  13   78.80   27.10
  -2  -7  13   51.70   22.10
   1   7 -13   50.14   32.54
   1   7 -13   17.63   15.03
  -1  -7  13   18.95   14.91
  -1  -7  13    4.94   14.24
  -1  -7  13   -5.89   13.88
   0   7 -13   76.38   21.48
   0   7 -13   32.65   28.73
   0  -7  13   54.52   17.85
   0  -7  13   52.44   19.39
   0  -7  13   34.29   19.27
  -1   7 -13  264.25   56.26
   1  -7  13  249.15   61.94
   1  -7  13  283.47   55.86
   1  -7  13  251.18   52.81
  -2   7 -13  404.52   94.23
   2  -7  13  440.17   88.98
   2  -7  13  561.86   93.56
   2  -7  13  493.81  104.66
  -3   7 -13  -45.37   12.38
   3  -7  13   -0.16   13.54
   3  -7  13   -5.03   14.61
   3  -7  13   29.61   17.35
  -4   7 -13   79.33   28.09
   4  -7  13  139.77   30.00
   4  -7  13  101.89   31.25
   4  -7  13   89.76   28.33
  -5   7 -13  808.02  738.39
  -6   7 -13  154.99   41.92
  -6   7 -13 -695.95  563.03
   6  -7  13  169.06   39.47
   6  -7  13  218.79   42.42
  -8   7 -13 2130.29 1728.45
   9   6 -13   16.49   65.71
   9   6 -13   41.57   23.29
  -9  -6  13   17.29   30.43
  -9  -6  13  -23.38   18.86
   8   6 -13   -8.91   53.40
   8   6 -13   13.41   20.89
  -8  -6  13   18.81   29.03
  -8  -6  13   55.06   21.41
   7   6 -13   56.71   20.09
   7   6 -13   22.87   55.94
  -7  -6  13    1.45   17.37
  -7  -6  13   30.89   26.80
   6   6 -13  179.84   45.67
   6   6 -13  244.93   87.65
  -6  -6  13  196.24   54.85
  -6  -6  13  225.43   46.37
  -6  -6  13  197.70   44.47
   5   6 -13  137.54   31.82
   5   6 -13   60.54   58.91
  -5  -6  13  113.38   30.98
  -5  -6  13   60.42   48.20
  -5  -6  13  135.34   37.27
  -5  -6  13   97.37   29.00
   4   6 -13  114.89   30.61
   4   6 -13   94.66   62.80
  -4  -6  13   72.04   48.40
  -4  -6  13   97.56   28.52
  -4  -6  13  116.99   36.31
  -4  -6  13  143.01   31.00
   3   6 -13   62.25   21.77
   3   6 -13   80.55   50.70
  -3  -6  13  -47.39   33.15
  -3  -6  13   75.86   26.39
  -3  -6  13  132.34   24.94
  -3  -6  13   64.24   22.84
   2   6 -13   12.82   17.13
   2   6 -13   90.24   45.40
  -2  -6  13   68.36   17.77
  -2  -6  13   46.22   20.32
  -2  -6  13   20.50   17.15
   1   6 -13  220.83   81.60
   1   6 -13  242.04   55.50
  -1  -6  13  255.46   53.18
  -1  -6  13  295.01   55.32
  -1  -6  13  281.39   62.37
   0   6 -13   16.02   27.30
   0   6 -13  -20.28   12.42
   0  -6  13  -19.44   12.23
   0  -6  13   -5.62   11.41
   0  -6  13  -31.90   12.34
  -1   6 -13  410.34   97.87
   1  -6  13  568.42   96.97
   1  -6  13  520.98  106.99
   1  -6  13  482.49   93.16
  -2   6 -13  193.27   43.45
   2  -6  13  179.07   43.56
   2  -6  13  192.34   47.52
   2  -6  13  189.49   41.16
  -3   6 -13   -3.50   13.95
   3  -6  13    0.17   15.07
   3  -6  13  -13.17   13.12
   3  -6  13   31.03   16.51
  -4   6 -13 -102.62  246.28
  -4   6 -13   -3.03   15.28
  -4   6 -13   60.39   99.25
   4  -6  13    3.70   12.73
   4  -6  13   23.97   17.53
  -5   6 -13   30.83   20.54
  -5   6 -13  402.87  373.95
   5  -6  13   16.47   18.06
   5  -6  13   79.91   23.81
  -6   6 -13  -85.53  419.80
  -6   6 -13   32.78   21.33
   6  -6  13   30.82   18.21
   6  -6  13   62.85   22.83
  -7   6 -13 1523.02 1293.39
  -8   6 -13 1076.83  674.29
   8  -6  13  124.94   38.75
  10   5 -13  131.90   34.61
  10   5 -13   76.65   85.81
 -10  -5  13   72.19   30.07
   9   5 -13   12.29   71.43
   9   5 -13   38.03   19.90
  -9  -5  13  -18.28   17.70
   8   5 -13    9.08   18.47
   8   5 -13   30.48   62.98
  -8  -5  13   59.31   21.97
   7   5 -13   71.15   65.06
   7   5 -13  106.81   26.61
  -7  -5  13   44.97   23.66
   6   5 -13  269.97   59.69
   6   5 -13  332.69  105.32
  -6  -5  13  224.65   57.04
  -6  -5  13  339.46   61.00
   5   5 -13    5.33   13.96
   5   5 -13    7.89   54.94
  -5  -5  13   26.20   15.93
  -5  -5  13   10.61   15.17
   4   5 -13   62.96   56.73
   4   5 -13  119.97   29.04
  -4  -5  13  103.67   29.48
  -4  -5  13  111.88   34.25
  -4  -5  13  114.64   29.09
   3   5 -13    3.13   45.29
   3   5 -13   -1.11   13.45
  -3  -5  13   37.47   15.23
  -3  -5  13    1.21   15.79
  -3  -5  13    7.09   16.53
   2   5 -13  181.80   37.70
   2   5 -13  118.24   64.92
  -2  -5  13  163.90   35.67
  -2  -5  13  162.62   37.67
  -2  -5  13  150.16   42.30
   1   5 -13   -0.75   12.35
   1   5 -13   -8.74   36.86
  -1  -5  13   -6.33   14.87
  -1  -5  13   40.64   15.32
  -1  -5  13   17.78   13.89
   0   5 -13  184.77   37.18
   0   5 -13  130.36   60.19
   0  -5  13  140.28   36.00
   0  -5  13  179.60   41.04
   0  -5  13  146.14   36.67
  -1   5 -13  193.54   40.78
   1  -5  13  229.47   42.51
   1  -5  13  178.21   43.20
   1  -5  13  136.41   37.49
  -2   5 -13   30.42   14.86
   2  -5  13   30.78   17.73
   2  -5  13   25.37   14.56
   2  -5  13   -6.91   12.82
  -3   5 -13   -4.08   13.31
  -3   5 -13  -18.16  187.45
  -3   5 -13  -43.10   84.39
   3  -5  13   16.96   14.21
   3  -5  13  -15.22   13.66
   3  -5  13   33.32   16.41
  -4   5 -13  167.68  109.89
  -4   5 -13   81.13   22.47
  -4   5 -13  -97.56  238.50
   4  -5  13   71.12   22.71
   4  -5  13   33.62   22.82
  -5   5 -13  553.43  110.15
  -5   5 -13   74.87  532.19
   5  -5  13  612.61  105.60
   5  -5  13  590.87  108.38
  -6   5 -13 -306.37  402.07
  -6   5 -13  277.13   58.89
   6  -5  13  327.14   57.63
   6  -5  13  283.12   59.43
  -7   5 -13   36.60   23.97
   7  -5  13   53.47   25.79
   7  -5  13   76.91   23.84
  -8   5 -13 -425.29  594.62
  -8   5 -13   -7.44   20.64
   8  -5  13    2.56   20.07
   8  -5  13   26.07   21.40
  10   4 -13   50.77   22.41
  10   4 -13  -25.38   70.08
 -10  -4  13    2.93   21.56
   9   4 -13   84.60   26.80
   9   4 -13   18.89   77.38
  -9  -4  13   74.17   27.37
   8   4 -13  -50.50   60.78
   8   4 -13   46.94   20.48
  -8  -4  13   54.35   22.75
   7   4 -13  258.29   57.15
   7   4 -13  251.30  105.13
  -7  -4  13  276.73   56.29
   6   4 -13  172.73   79.78
   6   4 -13  112.11   30.59
  -6  -4  13  122.56   31.71
   5   4 -13    2.18   51.73
   5   4 -13   27.14   16.52
  -5  -4  13   46.00   19.65
  -5  -4  13   73.15   20.06
   4   4 -13  -12.12   11.93
   4   4 -13   78.25   55.77
  -4  -4  13   -9.76   13.87
  -4  -4  13   -7.54   14.63
   3   4 -13  110.57   55.79
   3   4 -13   15.96   13.25
  -3  -4  13    2.09   15.41
  -3  -4  13   27.86   14.61
   2   4 -13  506.98   95.30
   2   4 -13  382.34  141.04
  -2  -4  13  447.74  106.81
  -2  -4  13  518.18   92.04
  -2  -4  13  505.54   94.67
   1   4 -13    5.02   44.24
   1   4 -13   38.45   14.35
  -1  -4  13   15.70   16.87
  -1  -4  13   44.05   18.63
  -1  -4  13   28.25   15.25
   0   4 -13  261.53   89.12
   0   4 -13  275.17   57.46
   0  -4  13  307.12   58.97
   0  -4  13  278.31   56.48
   0  -4  13  274.31   63.60
  -1   4 -13   43.82   36.12
  -1   4 -13    2.23   12.28
  -1   4 -13   42.64  123.00
   1  -4  13    0.90   13.27
   1  -4  13   43.19   16.26
   1  -4  13   15.53   11.91
  -2   4 -13   -6.46   11.41
  -2   4 -13   44.05  105.60
  -2   4 -13  -42.88  141.87
   2  -4  13    3.99   13.70
   2  -4  13   18.47   12.72
   2  -4  13   -1.26   14.30
  -3   4 -13   35.47   16.61
  -3   4 -13    2.31  177.41
  -3   4 -13   89.84   98.10
   3  -4  13   46.23   19.21
   3  -4  13   48.69   18.48
  -4   4 -13  203.10  230.51
  -4   4 -13   88.76   29.30
  -4   4 -13  194.92  133.71
   4  -4  13  131.68   30.88
   4  -4  13  122.47   31.58
  -5   4 -13 -190.95  335.29
  -5   4 -13  130.40   35.80
   5  -4  13  194.33   38.27
   5  -4  13  191.05   39.69
  -6   4 -13   85.71   27.10
  -6   4 -13 -168.78  332.88
   6  -4  13   73.59   27.35
   6  -4  13  114.39   27.23
  -7   4 -13   18.49   18.97
   7  -4  13   -5.32   20.31
   7  -4  13   13.42   18.02
  -8   4 -13  -12.48   19.05
  -8   4 -13 -760.84  533.14
   8  -4  13   25.44   21.87
   8  -4  13   38.98   20.68
  10   3 -13   30.51   18.81
  10   3 -13  -88.70  166.39
  10   3 -13   42.42   79.12
 -10  -3  13   25.27   22.87
   9   3 -13  148.68   36.98
   9   3 -13  343.42  105.73
  -9  -3  13  118.35   37.23
   8   3 -13   41.59   69.23
   8   3 -13  -35.99   11.43
  -8  -3  13   -0.44   15.87
   7   3 -13  116.35   83.95
   7   3 -13  157.83   35.42
  -7  -3  13  141.59   37.37
   6   3 -13   -2.67   12.79
   6   3 -13   19.60   56.29
  -6  -3  13   -1.99   13.38
   5   3 -13   35.10   15.97
   5   3 -13   11.77   58.59
  -5  -3  13   75.85   22.79
  -5  -3  13   54.75   20.18
   4   3 -13   39.12   15.54
   4   3 -13  101.38   61.26
  -4  -3  13   38.79   17.28
  -4  -3  13   46.22   19.86
   3   3 -13  411.99  131.40
   3   3 -13  484.32   81.94
   3   3 -13  355.75   81.57
  -3  -3  13  439.09   82.82
  -3  -3  13  378.02   79.58
   2   3 -13  506.60  198.35
   2   3 -13   92.40   24.59
   2   3 -13   56.15   55.59
   2   3 -13  110.43   24.49
  -2  -3  13  100.94   27.59
  -2  -3  13   98.93   26.40
   1   3 -13   27.02   41.33
   1   3 -13   -9.84    9.67
   1   3 -13  182.70  151.35
   1   3 -13    6.85   10.42
  -1  -3  13   -6.57   12.77
  -1  -3  13   25.41   13.71
  -1  -3  13    9.41   15.40
   0   3 -13  277.20  147.86
   0   3 -13   31.30   15.34
   0   3 -13   -1.61   40.49
   0   3 -13   77.59   19.27
   0  -3  13   79.06   19.98
   0  -3  13   33.91   18.22
   0  -3  13   52.38   18.01
  -1   3 -13   11.04   16.33
  -1   3 -13   32.51   13.94
  -1   3 -13   58.31   41.94
  -1   3 -13   66.78  115.70
   1  -3  13   19.47   17.18
   1  -3  13   36.70   16.72
   1  -3  13   37.54   14.26
  -2   3 -13  201.91   44.28
  -2   3 -13   -8.61  216.20
  -2   3 -13  391.04  173.90
   2  -3  13  244.06   47.53
   2  -3  13  259.42   45.84
  -3   3 -13  -72.85   90.98
  -3   3 -13    0.28   12.05
  -3   3 -13  120.13  179.91
   3  -3  13  -42.30   11.43
   3  -3  13    7.77   14.58
  -4   3 -13    1.37  136.85
  -4   3 -13  215.11   45.46
  -4   3 -13  256.82  251.14
   4  -3  13  247.20   46.53
   4  -3  13  238.57   47.20
  -5   3 -13  128.35   32.28
  -5   3 -13 -350.68  266.57
   5  -3  13  258.35   39.42
   5  -3  13  133.87   33.43
  -6   3 -13 -247.98  280.06
  -6   3 -13   23.90   17.36
   6  -3  13   -4.88   15.99
   6  -3  13    0.53   15.77
  -7   3 -13   11.92   17.45
   7  -3  13   -8.21   16.63
   7  -3  13  -12.11   18.72
  -8   3 -13   80.39   26.42
   8  -3  13  101.60   30.81
   8  -3  13   57.14   24.88
  10   2 -13  275.31  202.19
  10   2 -13  146.25   34.20
  10   2 -13   88.94   95.00
 -10  -2  13  123.43   38.32
   9   2 -13   29.08   75.40
   9   2 -13   14.78  164.35
   9   2 -13   24.40   15.40
  -9  -2  13    2.44   22.09
   8   2 -13   74.89  158.22
   8   2 -13  -10.08   68.42
   8   2 -13   23.60   14.72
  -8  -2  13   31.95   18.49
   7   2 -13   12.97   67.16
   7   2 -13   24.33   14.32
   7   2 -13  184.70  179.34
  -7  -2  13   82.08   23.88
   6   2 -13  251.87   52.23
   6   2 -13  216.57  100.19
   6   2 -13  282.55   53.19
   6   2 -13  465.55  232.15
  -6  -2  13  204.81   52.83
   5   2 -13   59.83   15.22
   5   2 -13   59.18   15.08
   5   2 -13  -63.23   52.78
   5   2 -13  111.60  146.24
  -5  -2  13   37.88   19.31
  -5  -2  13   11.06   18.54
   4   2 -13  145.10   71.59
   4   2 -13   89.62   20.52
   4   2 -13   90.71   20.98
   4   2 -13  577.66  206.85
  -4  -2  13   33.06   22.45
  -4  -2  13  110.68   25.50
   3   2 -13  747.41  144.22
   3   2 -13  686.84  214.83
   3   2 -13  814.64  144.44
  -3  -2  13  708.46  141.39
  -3  -2  13  712.51  137.38
   2   2 -13  197.55   87.62
   2   2 -13  217.40   43.90
   2   2 -13  203.66   43.63
   2   2 -13  725.09  227.47
  -2  -2  13  197.55   44.95
  -2  -2  13  237.24   47.81
   1   2 -13   27.43  116.95
   1   2 -13  -12.26    7.67
   1   2 -13   24.10   48.07
   1   2 -13   -4.53    7.84
  -1  -2  13    9.70   15.87
  -1  -2  13   20.97   14.42
   0   2 -13   -4.42    8.14
   0   2 -13   84.68  120.95
   0   2 -13  -23.15   40.44
   0   2 -13   -0.39    8.69
   0  -2  13   14.42   15.45
   0  -2  13   -7.65   12.01
   0  -2  13    4.20   12.53
  -1   2 -13  280.75   80.81
  -1   2 -13  263.58   44.95
  -1   2 -13  329.17  177.79
  -1   2 -13  163.37   43.63
   1  -2  13  219.87   45.38
   1  -2  13  242.69   49.87
   1  -2  13  184.07   46.76
  -2   2 -13   29.36  138.43
  -2   2 -13  189.28   34.09
  -2   2 -13  121.06   31.57
   2  -2  13  142.88   33.69
   2  -2  13  176.54   35.80
  -3   2 -13  -24.60   13.88
  -3   2 -13   53.06  120.71
  -3   2 -13  177.95  193.18
  -3   2 -13    3.15   10.38
   3  -2  13    4.86   13.58
   3  -2  13   -6.43   14.23
  -4   2 -13  -39.69  222.85
  -4   2 -13   27.16  114.63
  -4   2 -13   72.18   32.20
  -4   2 -13  137.92   26.37
   4  -2  13   95.93   29.90
   4  -2  13  143.46   31.35
  -5   2 -13  154.16  228.71
  -5   2 -13   -0.55   12.35
   5  -2  13  -25.77   12.08
   5  -2  13    2.60   16.61
  -6   2 -13 -208.05  285.09
  -6   2 -13    6.11   13.60
   6  -2  13   -1.19   14.68
   6  -2  13   -2.58   16.96
  -7   2 -13   -5.51   13.82
   7  -2  13   27.12   19.06
   7  -2  13  -12.40   18.06
   8  -2  13   44.03   25.93
  10   1 -13  277.09  113.88
  10   1 -13  234.38  204.45
  10   1 -13  121.05   29.34
 -10  -1  13  130.52   38.16
   9   1 -13   -9.96    9.27
   9   1 -13   14.93   10.28
   9   1 -13 -144.71  128.97
   9   1 -13   45.18   73.45
  -9  -1  13   -6.42   15.86
   8   1 -13   -2.39    8.32
   8   1 -13   -9.26    8.07
   8   1 -13  162.45   84.20
   8   1 -13 -150.11  126.81
  -8  -1  13    2.97   16.97
   7   1 -13  191.92  176.28
   7   1 -13  128.72   86.23
   6   1 -13  213.01   49.40
   6   1 -13  407.05  117.16
   6   1 -13  293.95   49.73
   6   1 -13  706.86  257.79
  -6  -1  13  316.56   55.49
   5   1 -13  127.39   75.30
   5   1 -13  114.84  164.46
  -5  -1  13   43.12   20.05
  -5  -1  13   51.38   22.17
   4   1 -13  236.58  106.57
   4   1 -13  602.85  256.81
  -4  -1  13  328.86   62.65
  -4  -1  13  260.31   58.55
   3   1 -13  327.43  178.96
   3   1 -13   25.44   62.63
  -3  -1  13  131.85   26.84
  -3  -1  13   68.35   25.13
   2   1 -13  -11.07  121.09
   2   1 -13   88.91   59.63
  -2  -1  13   16.26   14.28
  -2  -1  13   -5.20   15.04
   1   1 -13   -7.73  120.75
   1   1 -13   38.04   45.55
  -1  -1  13    9.15   13.54
  -1  -1  13   -7.33   14.20
   0   1 -13   30.80  146.67
   0   1 -13   40.70   59.17
   0  -1  13  163.77   32.93
   0  -1  13  191.93   36.11
  -1   1 -13  432.24  146.78
  -1   1 -13  330.51  279.84
   1  -1  13  573.42   99.04
   1  -1  13  516.23   94.82
  -2   1 -13   -2.13  128.54
   2  -1  13    9.72   14.87
   2  -1  13  -13.16   15.31
  -3   1 -13  -23.58   94.68
  -3   1 -13   36.06  195.55
   3  -1  13   11.89   16.08
   3  -1  13   69.23   19.72
  -4   1 -13 -111.89  210.73
  -4   1 -13    9.18  110.19
   4  -1  13  -24.94   13.63
   4  -1  13   31.92   16.20
  -5   1 -13   76.33  254.26
  -5   1 -13  137.90   25.27
  -5   1 -13   98.51   22.65
   5  -1  13   96.19   28.08
   5  -1  13   92.56   29.48
  -6   1 -13   93.82   21.84
  -6   1 -13   46.83   14.06
   6  -1  13   31.93   19.23
   6  -1  13   45.83   22.79
  -7   1 -13   18.02   11.61
  -7   1 -13 -298.31  288.47
  -7   1 -13    6.69   20.54
   7  -1  13   43.28   21.92
   7  -1  13   44.44   20.40
  10   0 -13  -80.70   67.22
  10   0 -13   11.92  156.24
 -10   0  13  -23.40   19.57
   9   0 -13  121.72   90.13
   9   0 -13  121.89  166.44
  -9   0  13   34.90   24.86
   8   0 -13  110.50  146.34
   8   0 -13  122.11   82.60
  -8   0  13   -5.06   16.73
   7   0 -13  505.03  242.63
   7   0 -13  156.91  109.01
  -7   0  13  277.07   58.04
   6   0 -13  343.02  199.00
   6   0 -13   48.06   72.75
  -6   0  13   55.03   21.80
   5   0 -13  -16.59  116.97
   5   0 -13   33.48   65.06
  -5   0  13   23.19   17.17
  -5   0  13   46.38   19.17
   4   0 -13   62.02  144.21
   4   0 -13  160.23   76.84
  -4   0  13   75.43   26.69
  -4   0  13  100.94   26.04
   3   0 -13  102.48   68.11
   3   0 -13   55.17  136.43
  -3   0  13    6.80   14.67
  -3   0  13   34.08   17.95
   2   0 -13   62.12   66.17
   2   0 -13   92.24  150.45
  -2   0  13   38.99   18.90
  -2   0  13   56.62   20.14
   1   0 -13  -77.94  113.49
   1   0 -13   11.95   48.21
  -1   0  13    8.75   14.66
  -1   0  13   14.44   15.59
   0   0 -13  525.69  150.61
   0   0 -13  256.73  271.40
   0   0  13  493.40   96.13
   0   0  13  542.59   93.33
  -1   0 -13  123.40  190.86
  -1   0 -13  148.56   91.69
   1   0  13  310.29   55.38
   1   0  13  322.42   58.10
  -2   0 -13  -96.23  105.34
   2   0  13    1.58   15.36
   2   0  13   36.57   16.52
  -3   0 -13    6.60  115.62
   3   0  13   61.79   21.35
   3   0  13   27.34   20.19
  -4   0 -13  -23.10  113.78
  -4   0 -13  -55.67  227.96
   4   0  13   63.76   21.70
   4   0  13   66.26   22.29
  -5   0 -13 -199.16  291.81
   5   0  13  279.63   49.27
   5   0  13  272.69   50.95
  -6   0 -13  -59.80  271.90
   6   0  13   94.79   29.24
   6   0  13  103.14   29.01
  -7   0 -13 -218.42  274.68
   7   0  13   17.37   19.77
  10  -1 -13 -193.20   71.37
  10  -1 -13   95.48  196.09
 -10   1  13  -26.36   18.71
   9  -1 -13  110.31  167.71
   9  -1 -13   50.06   87.36
  -9   1  13   -7.71   19.37
   8  -1 -13   14.89  158.04
   8  -1 -13  -81.15   73.82
  -8   1  13   23.80   18.72
   7  -1 -13  105.01  191.50
   7  -1 -13  147.83   93.40
  -7   1  13  132.89   33.40
   6  -1 -13   43.37   72.48
   6  -1 -13  140.01  195.66
  -6   1  13  131.24   30.70
   5  -1 -13    1.45   64.55
   5  -1 -13  -76.06  111.04
  -5   1  13   47.54   19.79
  -5   1  13   19.35   16.59
   4  -1 -13 -127.28  144.70
   4  -1 -13  -18.83   58.60
  -4   1  13   -4.25   14.80
  -4   1  13  -16.50   13.72
   3  -1 -13  192.68   82.11
   3  -1 -13   81.72  190.71
  -3   1  13  116.60   36.88
  -3   1  13  236.17   39.02
   2  -1 -13   12.01  185.04
   2  -1 -13  283.33   90.24
  -2   1  13  139.04   34.94
  -2   1  13  169.54   37.43
   1  -1 -13   -4.50   56.91
   1  -1 -13   18.87  132.38
  -1   1  13   -4.21   14.09
  -1   1  13  -19.41   13.17
   0  -1 -13   71.45   54.31
   0  -1 -13  -51.40  130.44
   0   1  13   33.50   17.48
   0   1  13   26.97   16.99
  -1  -1 -13  -56.04  129.76
  -1  -1 -13   24.53   51.78
   1   1  13   18.65   16.17
   1   1  13    5.18   14.12
  -2  -1 -13  -35.83  114.24
   2   1  13   39.41   19.28
   2   1  13   24.25   17.14
  -3  -1 -13   36.56  118.26
   3   1  13   30.47   17.87
   3   1  13   19.30   17.00
  -4  -1 -13   20.32  124.50
   4   1  13  107.68   30.82
   4   1  13  133.58   29.28
  -5  -1 -13 -184.95  269.57
   5   1  13  107.24   26.34
   5   1  13   84.60   26.90
  -6  -1 -13  -19.91  274.46
   6   1  13  -13.67   14.47
   6   1  13    4.57   19.18
  10  -2 -13   33.40  186.26
   9  -2 -13   42.18   88.23
   9  -2 -13 -113.17  167.06
  -9   2  13    9.93   18.07
   8  -2 -13  218.93  112.21
   8  -2 -13  150.82  245.92
  -8   2  13  228.24   49.63
   7  -2 -13   99.25   94.98
   7  -2 -13  137.97  225.97
  -7   2  13  127.74   32.07
   6  -2 -13   15.77  160.05
   6  -2 -13   13.45   65.97
  -6   2  13   48.36   19.67
  -6   2  13   16.57   19.03
   5  -2 -13   48.14  169.63
   5  -2 -13   62.47   74.64
  -5   2  13   -9.43   13.92
  -5   2  13  -17.46   13.58
   4  -2 -13  -11.52   55.96
   4  -2 -13  -29.43  148.61
  -4   2  13   13.00   16.75
  -4   2  13   21.11   17.11
   3  -2 -13  231.71  247.95
   3  -2 -13  271.94  115.88
  -3   2  13  342.57   65.79
  -3   2  13  360.92   68.69
   2  -2 -13  249.01   77.62
   2  -2 -13  -61.46  162.13
  -2   2  13   84.49   24.46
  -2   2  13   60.57   23.07
   1  -2 -13  -41.56  159.66
   1  -2 -13  115.20   77.10
  -1   2  13  221.88   40.83
  -1   2  13  210.30   42.08
   0  -2 -13  106.38  166.92
   0  -2 -13  108.43   68.78
   0   2  13  136.94   27.97
   0   2  13   77.31   28.10
  -1  -2 -13  -12.14  137.23
   1   2  13   41.45   17.07
   1   2  13   30.89   17.59
  -2  -2 -13  -99.18  135.71
   2   2  13  111.55   26.78
   2   2  13  109.94   27.64
  -3  -2 -13  119.01  144.50
   3   2  13    3.75   16.48
   3   2  13  -12.69   14.13
  -4  -2 -13   47.25  158.29
   4   2  13  224.84   44.61
   5   2  13  122.33   33.63
   9  -3 -13  144.38  108.44
   9  -3 -13 -288.99  143.12
  -9   3  13   30.30   21.19
   8  -3 -13  -36.02   82.22
   8  -3 -13 -104.78  204.17
  -8   3  13  117.23   28.53
   7  -3 -13   13.19   80.08
   7  -3 -13  -57.72  151.55
  -7   3  13   19.08   17.61
   6  -3 -13    3.83  199.73
   6  -3 -13  -77.41   58.28
  -6   3  13   15.10   15.53
  -6   3  13    3.79   16.24
   5  -3 -13  198.30  204.30
   5  -3 -13 -125.17   60.75
  -5   3  13  118.83   25.78
  -5   3  13   46.22   20.09
   4  -3 -13    1.99  204.53
   4  -3 -13  148.62   98.58
  -4   3  13  208.74   47.18
  -4   3  13  266.39   47.00
   3  -3 -13  -13.93  182.38
   3  -3 -13  132.78   89.80
  -3   3  13  207.88   43.90
  -3   3  13  222.90   42.45
   2  -3 -13  -45.65   58.02
   2  -3 -13    0.83  164.61
  -2   3  13    0.70   15.92
  -2   3  13   62.17   18.62
   1  -3 -13   54.51   58.41
   1  -3 -13  -13.40  154.12
  -1   3  13    6.17   14.39
  -1   3  13  -17.48   13.01
   0  -3 -13   53.69  164.19
   0  -3 -13  -36.73   44.07
   0   3  13  -18.90   14.74
   0   3  13   18.44   16.02
  -1  -3 -13  -30.00  142.60
   1   3  13  120.30   29.36
  -2  -3 -13  -14.89  129.48
   2   3  13   42.87   19.26
  -3  -3 -13  -68.53  120.20
   3   3  13  -11.48   15.78
  -4  -3 -13  -44.23  142.11
   4   3  13  -33.78   13.97
   8  -4 -13  -27.26   87.43
   8  -4 -13  162.52  228.44
  -8   4  13  -47.36   14.35
   7  -4 -13    6.19   77.31
   7  -4 -13   -5.80  189.62
  -7   4  13   37.85   23.38
  -7   4  13   65.31   21.40
   6  -4 -13   12.54   84.19
   6  -4 -13  281.93  239.11
  -6   4  13    1.69   14.42
  -6   4  13    0.36   17.09
   5  -4 -13  -99.37  153.94
   5  -4 -13   37.43   82.67
  -5   4  13   51.48   20.01
  -5   4  13   39.33   20.23
   4  -4 -13  121.22   84.57
   4  -4 -13  133.02  202.91
  -4   4  13  220.19   39.23
  -4   4  13  143.50   39.12
   3  -4 -13  -27.95  149.37
   3  -4 -13  -49.77   63.85
  -3   4  13    9.90   15.97
   2  -4 -13  -94.03  148.22
   2  -4 -13    0.17   66.75
  -2   4  13   28.83   18.69
   1  -4 -13   15.90  170.40
   1  -4 -13  -19.41   60.47
  -1   4  13    4.55   15.86
   0  -4 -13  133.24  185.53
   0  -4 -13  145.70   77.12
   0   4  13  111.99   30.42
  -1  -4 -13 -113.93  138.40
   1   4  13  211.83   37.23
  -2  -4 -13   20.39  154.53
   2   4  13   11.14   16.79
  -3  -4 -13   30.65  151.31
   7  -5 -13   41.34  226.60
   7  -5 -13   62.02  102.24
  -7   5  13   94.25   28.80
   6  -5 -13  142.25  107.64
   6  -5 -13  -40.83  174.67
  -6   5  13  231.35   44.25
   5  -5 -13   10.78  193.16
   5  -5 -13   47.75   84.32
  -5   5  13    2.70   16.51
   4  -5 -13  -75.94   61.31
   4  -5 -13   53.59  198.81
  -4   5  13   68.14   21.98
   3  -5 -13  -67.07  169.73
   3  -5 -13    2.63   62.61
  -3   5  13   25.68   17.56
   2  -5 -13   63.43   72.30
   2  -5 -13  -28.31  168.85
  -2   5  13   11.21   16.34
   1  -5 -13  -73.91  160.43
   1  -5 -13    5.25   52.20
  -1   5  13   46.91   19.59
   0  -5 -13  -29.92  153.93
  -1  -5 -13   52.68  163.35
   5  -6 -13 -124.87  174.15
   5  -6 -13   28.82   81.79
  -5   6  13    2.59   16.69
   4  -6 -13    5.87   70.16
   4  -6 -13   74.99  188.60
  -4   6  13   10.97   17.51
   3  -6 -13 -122.10  138.48
   3  -6 -13   32.64   82.00
   2  -6 -13   66.63   80.50
   2  -6 -13  160.19  215.55
   1  -6 -13   67.52   75.54
   1  -6 -13  171.99  204.03
  -2 -13  14  165.05   56.61
  -2 -13  14  211.01   44.82
  -1 -13  14   15.83   17.85
  -1 -13  14    6.59   24.76
   0 -13  14   18.85   18.91
   0 -13  14   -7.37   24.04
   1 -13  14   -8.61   16.82
   1 -13  14  -17.87   24.82
   2 -13  14  117.78   34.98
   2 -13  14  145.57   48.21
   2 -13  14  140.38   35.14
   3 -13  14  -48.07   16.87
   3 -13  14    1.68   28.31
   3 -13  14  -17.56   17.05
   4 -13  14   65.82   29.11
   4 -13  14  137.43   32.29
  -4 -12  14   46.69   21.50
  -4 -12  14   -8.04   24.91
  -3 -12  14  160.58   39.13
  -3 -12  14  159.98   49.65
  -2 -12  14  150.05   33.55
  -2 -12  14  152.99   44.55
  -2 -12  14   91.75   31.26
  -1 -12  14   12.04   23.42
  -1 -12  14   -3.22   16.82
  -1 -12  14    1.58   16.43
   0 -12  14  -12.33   20.94
   0 -12  14   31.90   18.09
   0 -12  14  -28.60   13.75
   1 -12  14  273.24   52.74
   1 -12  14  208.54   62.97
   1 -12  14  223.91   51.67
   2 -12  14  289.23   53.37
   2 -12  14  197.28   62.64
   2 -12  14  206.75   50.26
   3 -12  14   16.91   19.91
   3 -12  14   49.17   28.26
   3 -12  14   67.55   23.37
   4 -12  14   60.38   27.19
   4 -12  14   95.22   37.74
   4 -12  14   98.59   27.81
   5 -12  14    4.38   19.97
   5 -12  14   25.26   22.10
   5 -12  14   75.73   33.24
  -5 -11  14   26.49   19.56
  -5 -11  14   39.87   20.68
  -5 -11  14   93.92   35.16
  -4 -11  14  -16.73   15.78
  -4 -11  14   13.11   18.60
  -4 -11  14    3.05   24.58
  -3 -11  14  101.38   28.72
  -3 -11  14   78.35   34.98
  -3 -11  14  106.24   28.11
  -2 -11  14  -20.49   17.86
  -2 -11  14   31.69   17.73
  -2 -11  14  -10.07   15.10
  -1 -11  14   57.25   22.44
  -1 -11  14   50.55   21.67
  -1 -11  14   78.97   30.59
   0 -11  14  -19.34   20.04
   0 -11  14   18.75   15.99
   0 -11  14   11.20   16.23
   1 -11  14  228.74   60.82
   1 -11  14  250.45   50.77
   1 -11  14  205.37   48.51
   2 -11  14  176.22   41.36
   2 -11  14  157.87   40.15
   2 -11  14  176.05   49.61
   3 -11  14   29.03   20.15
   3 -11  14   25.04   19.77
   3 -11  14   42.02   25.57
   4 -11  14   -9.59   21.95
   4 -11  14   -8.88   17.32
   4 -11  14   21.35   18.77
   5 -11  14   34.56   21.88
   5 -11  14   -4.92   17.76
   5 -11  14   91.67   31.95
   6 -11  14   24.10   23.93
   6 -11  14   55.89   33.29
   6 -11  14  105.79   29.84
  -6 -10  14  121.01   35.96
  -6 -10  14  182.79   40.00
  -6 -10  14  164.25   48.70
   5  10 -14   14.69   21.13
  -5 -10  14   -0.26   21.75
  -5 -10  14   10.61   18.93
  -5 -10  14   11.88   17.05
   4  10 -14   74.97   24.03
  -4 -10  14   20.42   17.53
  -4 -10  14   13.98   22.50
  -4 -10  14   17.92   17.08
   3  10 -14    3.82   20.37
  -3 -10  14   19.11   20.19
  -3 -10  14    3.13   15.09
  -3 -10  14   15.30   16.42
   2  10 -14   48.64   23.89
  -2 -10  14  135.58   32.05
  -2 -10  14   67.49   20.93
  -2 -10  14    8.90   19.36
   1  10 -14   30.67   23.80
  -1 -10  14   68.68   28.14
  -1 -10  14  104.31   24.23
  -1 -10  14   40.54   20.56
   0  10 -14  161.76   43.35
   0 -10  14  175.82   39.91
   0 -10  14  183.38   50.35
   0 -10  14  183.69   41.62
  -1  10 -14  394.52   77.55
   1 -10  14  366.48   85.04
   1 -10  14  362.73   73.17
   1 -10  14  314.28   70.29
  -2  10 -14   45.77   22.61
   2 -10  14   28.62   18.03
   2 -10  14   29.54   22.79
   2 -10  14    1.42   17.26
  -3  10 -14   60.29   26.84
   3 -10  14   79.77   31.26
   3 -10  14   83.41   25.74
   3 -10  14   66.71   24.61
  -4  10 -14   -5.04   19.79
   4 -10  14   17.95   23.42
   4 -10  14   34.17   20.39
   4 -10  14    5.99   18.77
  -5  10 -14  157.21   42.92
   5 -10  14  203.97   42.58
   5 -10  14  123.18   44.64
   5 -10  14  154.47   39.52
  -6  10 -14  167.28   48.46
   6 -10  14  219.59   45.41
   6 -10  14  188.31   48.09
   7 -10  14   25.18   24.72
   7 -10  14   38.22   24.49
   7   9 -14  262.51   47.45
  -7  -9  14  133.24   40.23
  -7  -9  14  153.28   71.86
  -7  -9  14  138.04   50.77
  -7  -9  14  152.84   40.45
   6   9 -14  165.83   44.53
  -6  -9  14  217.05   42.46
  -6  -9  14  129.99   50.20
  -6  -9  14  240.60   44.50
  -6  -9  14   20.94   64.13
   5   9 -14    9.30   19.14
  -5  -9  14   -4.63   16.49
  -5  -9  14   43.17   17.54
  -5  -9  14    9.71   22.18
   4   9 -14   56.75   22.79
  -4  -9  14   29.49   17.70
  -4  -9  14   31.33   19.24
  -4  -9  14    5.09   21.04
   3   9 -14   59.40   24.16
  -3  -9  14   26.60   20.28
  -3  -9  14   64.22   22.60
  -3  -9  14  108.39   29.84
   2   9 -14  166.61   40.79
  -2  -9  14  135.01   44.15
  -2  -9  14  162.72   38.27
  -2  -9  14  180.24   37.93
   1   9 -14   50.78   21.62
  -1  -9  14   66.73   21.31
  -1  -9  14   41.05   23.39
  -1  -9  14   24.24   18.24
   0   9 -14  113.57   25.84
   0  -9  14   27.01   18.22
   0  -9  14   -2.98   19.80
   0  -9  14   52.08   20.01
  -1   9 -14  125.30   35.03
   1  -9  14  138.60   33.65
   1  -9  14  149.59   39.14
   1  -9  14  113.31   32.65
  -2   9 -14   31.54   20.33
   2  -9  14   36.80   21.76
   2  -9  14   29.05   18.42
   2  -9  14   23.99   18.21
  -3   9 -14   50.58   21.74
   3  -9  14   35.44   20.80
   3  -9  14  -26.72   13.43
   3  -9  14   20.52   19.86
  -4   9 -14  126.20   33.49
   4  -9  14   75.64   30.25
   4  -9  14   93.24   29.78
   4  -9  14  138.77   37.53
  -5   9 -14  161.36   41.60
   5  -9  14  141.55   38.84
   5  -9  14  158.28   38.40
  -6   9 -14   13.51   20.73
   6  -9  14  -14.40   18.48
   6  -9  14   51.63   22.21
  -7   9 -14   -4.78   22.69
   7  -9  14   -3.87   22.61
   7  -9  14   27.84   22.68
   8   8 -14   -2.07   19.56
  -8  -8  14   19.61   54.15
  -8  -8  14   45.53   35.43
  -8  -8  14  -16.18   18.08
  -8  -8  14   45.78   23.93
   7   8 -14  133.52   30.90
  -7  -8  14   46.64   33.73
  -7  -8  14   46.46   25.49
  -7  -8  14   74.16   26.47
  -7  -8  14   86.04   57.63
   6   8 -14   -8.52   18.72
  -6  -8  14  -11.82   16.10
  -6  -8  14   11.99   47.06
  -6  -8  14   -2.56   18.37
  -6  -8  14   -2.78   23.05
   5   8 -14  -18.24   16.91
  -5  -8  14   36.20   18.28
  -5  -8  14  -19.15   15.70
  -5  -8  14   20.66   22.01
  -5  -8  14  -84.33   37.45
   4   8 -14   38.29   20.04
  -4  -8  14   33.04   18.25
  -4  -8  14   -0.89   20.62
  -4  -8  14    6.70   16.23
   3   8 -14  461.46   80.63
  -3  -8  14  369.47   87.62
  -3  -8  14  336.74   73.23
  -3  -8  14  348.63   75.72
   2   8 -14  171.56   41.03
  -2  -8  14  174.74   39.51
  -2  -8  14  167.79   44.75
  -2  -8  14  164.70   38.36
   1   8 -14    9.98   16.98
  -1  -8  14   10.25   15.46
  -1  -8  14   33.70   17.53
  -1  -8  14   15.47   18.41
   0   8 -14   88.77   27.84
   0  -8  14   76.30   26.08
   0  -8  14   99.28   29.24
   0  -8  14   96.21   26.43
  -1   8 -14   43.61   20.83
   1  -8  14   48.40   20.14
   1  -8  14   39.10   17.25
   1  -8  14   26.95   20.66
  -2   8 -14  322.93   66.24
   2  -8  14  296.54   64.19
   2  -8  14  319.93   63.15
   2  -8  14  295.85   72.96
  -3   8 -14    6.30   16.53
   3  -8  14   -6.49   17.27
   3  -8  14   -3.28   17.93
   3  -8  14   -3.64   13.07
  -4   8 -14  196.76   49.01
   4  -8  14  193.18   53.25
   4  -8  14  198.60   45.96
   4  -8  14  268.07   50.16
  -5   8 -14  206.41   53.47
   5  -8  14  213.20   51.68
   5  -8  14  306.89   55.58
  -6   8 -14   25.24   21.66
   6  -8  14   42.51   19.55
   6  -8  14  -11.41   17.27
  -7   8 -14    4.12   22.71
   7  -8  14   49.40   21.53
   7  -8  14   53.91   25.05
   8   7 -14   66.52   25.96
   8   7 -14   -2.25   67.56
  -8  -7  14   84.87   27.49
  -8  -7  14   37.87   34.06
  -8  -7  14   73.76   24.89
   7   7 -14   28.46   22.49
   7   7 -14  -38.55   57.39
  -7  -7  14   77.83   23.49
  -7  -7  14  119.81   37.07
  -7  -7  14   -4.95   18.14
   6   7 -14   48.82   22.25
   6   7 -14   42.15   54.78
  -6  -7  14   54.87   22.63
  -6  -7  14   39.36   21.28
  -6  -7  14   -2.19   25.02
   5   7 -14  209.84   75.25
   5   7 -14  143.09   37.55
  -5  -7  14  107.22   35.32
  -5  -7  14  162.79   36.99
  -5  -7  14  175.18   46.03
  -5  -7  14   95.31   54.43
   4   7 -14   27.49   18.09
   4   7 -14   73.89   50.22
  -4  -7  14   10.40   16.29
  -4  -7  14   32.30   17.69
  -4  -7  14   -6.64   18.73
  -4  -7  14   31.47   42.09
   3   7 -14  215.57   49.86
   3   7 -14  136.21   77.82
  -3  -7  14  226.60   55.02
  -3  -7  14  243.50   48.84
  -3  -7  14  235.85   47.49
   2   7 -14  405.26  104.53
   2   7 -14  386.01   71.16
  -2  -7  14  300.86   66.50
  -2  -7  14  277.35   64.81
  -2  -7  14  330.73   77.17
   1   7 -14  -14.95   14.44
   1   7 -14    2.55   37.83
  -1  -7  14   25.57   15.94
  -1  -7  14   18.51   16.77
  -1  -7  14   -3.60   15.67
   0   7 -14  -18.00   14.25
   0  -7  14    2.70   13.32
   0  -7  14    5.87   13.88
   0  -7  14    2.18   15.39
  -1   7 -14  178.90   38.23
   1  -7  14  128.82   35.04
   1  -7  14  135.26   40.29
   1  -7  14  177.06   38.47
  -2   7 -14  141.53   42.89
   2  -7  14  166.86   40.99
   2  -7  14  218.24   45.06
   2  -7  14  255.69   50.13
  -3   7 -14  -17.41   15.79
   3  -7  14  -30.54   14.87
   3  -7  14  -16.69   11.87
   3  -7  14   -6.38   15.25
  -4   7 -14   29.50   19.61
   4  -7  14   56.86   21.29
   4  -7  14   38.92   20.83
  -5   7 -14   22.08   18.88
   5  -7  14  -14.34   15.64
   5  -7  14   52.14   22.50
  -6   7 -14   -3.12   20.21
   6  -7  14  -10.60   18.24
   6  -7  14    9.69   16.42
  -7   7 -14   -1.23   20.25
  -7   7 -14  212.51  568.79
   7  -7  14   16.68   17.85
   7  -7  14   -0.36   19.83
  -8   7 -14 1023.50  998.32
   9   6 -14  -88.68   64.58
   9   6 -14   32.53   22.33
  -9  -6  14   55.97   38.10
  -9  -6  14    7.24   23.00
   8   6 -14  102.21   74.98
   8   6 -14    7.21   18.45
  -8  -6  14  -10.83   18.74
  -8  -6  14   11.83   27.82
   7   6 -14   72.71   64.37
   7   6 -14   55.24   21.75
  -7  -6  14  -21.50   23.93
  -7  -6  14   28.93   21.27
  -7  -6  14   28.20   20.81
   6   6 -14   85.11   25.86
   6   6 -14   55.92   62.87
  -6  -6  14  113.49   28.32
  -6  -6  14   54.37   32.59
  -6  -6  14   71.03   26.49
   5   6 -14   -3.99   50.74
   5   6 -14   23.07   16.68
  -5  -6  14   21.22   19.21
  -5  -6  14   -5.08   15.88
  -5  -6  14   13.92   23.05
   4   6 -14   86.48   61.99
   4   6 -14  115.24   29.84
  -4  -6  14   80.35   33.80
  -4  -6  14  153.58   32.41
  -4  -6  14   89.28   29.05
   3   6 -14  -46.82   37.97
   3   6 -14   21.48   15.80
  -3  -6  14  -12.65   15.00
  -3  -6  14   -4.65   13.17
  -3  -6  14   23.33   18.70
   2   6 -14   72.53   46.84
   2   6 -14   45.30   20.15
  -2  -6  14   84.49   24.28
  -2  -6  14   20.30   19.51
  -2  -6  14   56.45   19.28
   1   6 -14   97.29   50.49
   1   6 -14   64.12   24.50
  -1  -6  14  119.27   28.19
  -1  -6  14   96.29   28.10
  -1  -6  14   88.93   25.61
   0   6 -14  248.19   53.19
   0   6 -14  234.87   77.11
   0  -6  14  280.61   58.88
   0  -6  14  232.53   53.76
   0  -6  14  224.54   50.74
  -1   6 -14  885.70  158.39
   1  -6  14  720.63  148.11
   1  -6  14  858.71  173.82
   1  -6  14  769.53  152.20
  -2   6 -14  122.36   32.61
   2  -6  14  104.31   31.20
   2  -6  14  149.43   34.66
   2  -6  14  154.52   36.26
  -3   6 -14   54.11   22.53
  -3   6 -14  107.48  133.26
   3  -6  14   75.92   24.48
   3  -6  14   86.00   26.08
   3  -6  14   50.97   21.74
  -4   6 -14   -8.32   15.66
  -4   6 -14   85.02  106.56
   4  -6  14   33.73   17.80
   4  -6  14  -11.16   16.44
  -5   6 -14  122.03   36.16
   5  -6  14  144.16   36.63
   5  -6  14  173.17   36.80
  -6   6 -14   90.96   28.16
  -6   6 -14 -827.21  504.15
   6  -6  14   75.66   28.15
   6  -6  14  117.93   29.64
  -7   6 -14   83.61   25.18
  -7   6 -14 -674.48  507.14
   7  -6  14   27.03   20.26
   7  -6  14   57.01   25.13
  -8   6 -14 -587.00  569.03
   8  -6  14  103.80   31.78
   9   5 -14   35.40   21.79
   9   5 -14  -38.65   69.44
  -9  -5  14   19.02   22.91
   8   5 -14   37.44   23.00
   8   5 -14   89.35   72.05
  -8  -5  14   85.61   25.68
   7   5 -14   91.20   30.35
   7   5 -14   85.94   76.57
  -7  -5  14  173.60   35.27
  -7  -5  14   94.00   29.10
   6   5 -14  198.67   97.55
   6   5 -14  275.79   54.39
  -6  -5  14  218.89   51.17
  -6  -5  14  235.38   52.51
   5   5 -14   61.67   60.48
   5   5 -14   -4.90   13.89
  -5  -5  14  -17.54   15.27
  -5  -5  14   22.03   16.16
   4   5 -14    2.65   56.27
   4   5 -14  104.34   24.56
  -4  -5  14   60.04   28.54
  -4  -5  14   68.07   24.07
  -4  -5  14   91.28   25.76
   3   5 -14  106.22   61.59
   3   5 -14   92.14   27.29
  -3  -5  14  157.42   30.07
  -3  -5  14  132.23   30.72
  -3  -5  14   65.40   31.31
   2   5 -14   85.22   50.56
   2   5 -14    3.72   13.88
  -2  -5  14   63.35   20.81
  -2  -5  14   -3.44   15.68
  -2  -5  14    2.89   15.92
   1   5 -14   15.63   14.06
   1   5 -14   13.64   41.83
  -1  -5  14   18.31   17.27
  -1  -5  14   -4.64   13.33
  -1  -5  14   31.91   16.09
   0   5 -14  146.67   58.82
   0   5 -14   99.68   33.64
   0  -5  14  195.42   36.30
   0  -5  14  205.98   38.45
   0  -5  14  151.69   38.77
  -1   5 -14  383.95   83.40
   1  -5  14  426.86   80.43
   1  -5  14  364.09   81.92
   1  -5  14  457.43   90.88
  -2   5 -14   46.42   19.60
  -2   5 -14   72.84  123.86
   2  -5  14   57.84   20.92
   2  -5  14   78.18   24.22
   2  -5  14   61.69   20.56
  -3   5 -14   50.97  109.22
  -3   5 -14  -27.50   12.98
   3  -5  14    6.42   15.01
   3  -5  14    2.69   15.58
  -4   5 -14   72.20  109.33
  -4   5 -14   19.10   17.96
   4  -5  14   12.44   18.52
   4  -5  14   31.94   17.48
  -5   5 -14  -20.80  278.28
  -5   5 -14   83.17   24.80
   5  -5  14   82.69   25.65
   5  -5  14   73.34   25.80
  -6   5 -14   96.09   27.25
   6  -5  14   67.08   25.07
   6  -5  14   82.09   29.23
  -7   5 -14 -656.37  428.64
  -7   5 -14    4.97   19.53
   7  -5  14   29.60   22.54
   7  -5  14    2.23   18.18
  -8   5 -14 -405.24  550.86
   9   4 -14   16.12   19.39
   9   4 -14   35.94   74.64
  -9  -4  14  -22.55   17.88
   8   4 -14   10.89   73.17
   8   4 -14   58.16   22.62
  -8  -4  14   64.35   25.62
   7   4 -14  151.46   37.02
   7   4 -14  181.95   88.53
  -7  -4  14  147.27   37.62
   6   4 -14   41.89   64.70
   6   4 -14   63.57   20.31
  -6  -4  14   32.12   22.20
  -6  -4  14   73.48   24.33
   5   4 -14   21.79   15.26
   5   4 -14   31.32   57.82
  -5  -4  14  -20.34   16.54
  -5  -4  14  -19.86   15.30
   4   4 -14  -16.09   11.42
   4   4 -14   -5.36   53.92
  -4  -4  14  -14.17   14.79
  -4  -4  14   24.40   17.65
   3   4 -14  272.08  100.98
   3   4 -14  307.04   59.52
  -3  -4  14  271.80   60.12
  -3  -4  14  270.08   58.01
   2   4 -14  299.73   90.32
   2   4 -14  265.95   49.59
  -2  -4  14  225.11   47.72
  -2  -4  14  204.14   55.49
  -2  -4  14  205.32   48.87
   1   4 -14  201.82  156.87
   1   4 -14   16.25   13.37
   1   4 -14   -2.54   44.90
  -1  -4  14   20.44   15.56
  -1  -4  14   15.85   15.99
  -1  -4  14   11.86   15.70
   0   4 -14  458.63  101.54
   0   4 -14  229.90   59.86
   0   4 -14  729.89  253.59
   0  -4  14  321.24   60.23
   0  -4  14  305.45   67.57
   0  -4  14  272.98   61.58
  -1   4 -14   -3.29   37.28
  -1   4 -14   31.74   14.30
  -1   4 -14   81.41  122.11
   1  -4  14   40.99   13.58
   1  -4  14   22.34   15.31
   1  -4  14  -14.43   15.74
  -2   4 -14  634.28  204.16
  -2   4 -14  174.48   41.15
   2  -4  14  167.44   42.67
   2  -4  14  180.67   41.89
  -3   4 -14   28.00  100.34
  -3   4 -14   -4.90   13.40
   3  -4  14   15.44   15.67
   3  -4  14   21.61   18.56
  -4   4 -14  209.36   44.31
  -4   4 -14   79.25  248.03
   4  -4  14  176.68   43.33
   4  -4  14  240.48   46.10
  -5   4 -14  -37.64  267.20
  -5   4 -14  160.97   38.10
   5  -4  14  156.90   37.61
   5  -4  14  189.18   39.49
  -6   4 -14  -50.50   14.81
   6  -4  14   -5.21   17.59
   6  -4  14   -7.90   16.61
  -7   4 -14   47.08   22.28
  -7   4 -14 -461.21  382.13
   7  -4  14    8.44   21.30
   7  -4  14   62.06   22.85
  10   3 -14  438.63  144.74
  10   3 -14  668.46  296.02
 -10  -3  14  255.01   66.69
   9   3 -14   73.41   88.05
   9   3 -14   36.20   19.65
   9   3 -14  198.14  190.52
  -9  -3  14   63.90   26.52
   8   3 -14   33.99   75.61
   8   3 -14  219.70  183.01
   8   3 -14   44.81   19.64
  -8  -3  14   77.85   26.88
   7   3 -14  830.17  293.25
   7   3 -14  342.39  129.51
   7   3 -14  337.57   72.74
  -7  -3  14  336.52   71.67
   6   3 -14  176.62  187.76
   6   3 -14   42.76   17.83
   6   3 -14  108.68   78.25
  -6  -3  14   47.36   21.89
  -6  -3  14   62.17   23.00
   5   3 -14 -119.36  130.13
   5   3 -14  -75.51   53.16
   5   3 -14    9.87   11.72
  -5  -3  14   -2.14   15.47
  -5  -3  14  -15.56   15.89
   4   3 -14   14.76   11.34
   4   3 -14    3.95   53.25
   4   3 -14  -15.49  122.41
  -4  -3  14   28.45   20.45
  -4  -3  14   52.31   19.01
   3   3 -14  969.22  282.44
   3   3 -14  272.64  104.34
   3   3 -14  273.10   57.02
   3   3 -14  233.04   56.92
  -3  -3  14  304.63   59.85
  -3  -3  14  344.42   59.25
   2   3 -14  141.21   27.48
   2   3 -14  468.19  199.02
   2   3 -14   97.49   26.04
   2   3 -14   98.35   61.37
  -2  -3  14   89.29   30.19
  -2  -3  14  116.87   29.38
   1   3 -14    6.71    9.36
   1   3 -14  -39.50  121.14
   1   3 -14   11.13   10.38
   1   3 -14  -33.92   40.11
  -1  -3  14  -24.22   14.61
  -1  -3  14  -16.42   12.84
  -1  -3  14  -14.31   15.30
   0   3 -14  108.65   22.62
   0   3 -14   77.12   52.36
   0   3 -14   83.85   22.62
   0   3 -14  215.43  161.86
   0  -3  14   44.85   22.74
   0  -3  14   79.16   26.23
   0  -3  14  103.67   26.05
  -1   3 -14    4.58   13.88
  -1   3 -14   20.06   11.68
  -1   3 -14  -51.79  102.14
  -1   3 -14  -32.33   37.95
   1  -3  14   10.47   15.34
   1  -3  14    7.77   15.08
   1  -3  14   28.65   12.63
  -2   3 -14   13.88   13.34
  -2   3 -14   47.60  117.31
   2  -3  14   32.99   18.91
   2  -3  14   52.70   18.98
  -3   3 -14   55.31  123.45
  -3   3 -14   84.09  174.02
  -3   3 -14   48.56   14.69
   3  -3  14  -33.74   13.48
   3  -3  14   13.74   16.95
  -4   3 -14   80.98  228.80
  -4   3 -14  126.47   31.13
   4  -3  14  121.15   32.80
   4  -3  14  145.43   35.63
  -5   3 -14   16.84   15.99
  -5   3 -14  204.36  250.31
   5  -3  14    0.94   17.77
   5  -3  14   50.92   21.91
  -6   3 -14    2.14   14.40
   6  -3  14  -17.33   16.63
   6  -3  14    1.99   17.73
  -7   3 -14  -16.70   14.93
   7  -3  14  -13.16   19.49
   7  -3  14  -11.81   17.52
  10   2 -14   83.66   94.61
  10   2 -14   17.26  187.34
 -10  -2  14   73.73   30.13
   9   2 -14    7.68   13.19
   9   2 -14  -48.77   70.47
   9   2 -14   78.55  160.65
  -9  -2  14    0.28   20.32
   8   2 -14   34.57   74.97
   8   2 -14   27.41   13.79
   8   2 -14    6.18  164.97
  -8  -2  14   22.33   21.23
   7   2 -14   19.90   11.56
   7   2 -14   88.09  155.43
   7   2 -14    5.16   65.71
   7   2 -14    5.29   10.54
  -7  -2  14   -3.57   17.42
   6   2 -14   -4.14    8.54
   6   2 -14 -128.53  122.05
   6   2 -14   -4.14    8.96
   6   2 -14   38.36   64.44
  -6  -2  14   21.95   17.24
  -6  -2  14   38.60   20.45
   5   2 -14    3.09    8.31
   5   2 -14   82.21  155.15
   5   2 -14  -36.57   54.37
   5   2 -14    1.69    8.68
  -5  -2  14   -3.18   17.54
  -5  -2  14  -14.51   14.86
   4   2 -14  225.99  115.58
   4   2 -14  334.09   66.67
   4   2 -14 1205.61  311.45
   4   2 -14  329.96   66.43
  -4  -2  14  326.58   69.42
  -4  -2  14  409.69   69.62
   3   2 -14  375.90  129.22
   3   2 -14  372.17   73.87
   3   2 -14 1185.67  311.60
   3   2 -14  377.03   73.72
  -3  -2  14  380.87   74.90
  -3  -2  14  369.28   76.92
   2   2 -14   13.86    7.35
   2   2 -14  -41.82   48.60
   2   2 -14  -31.17  122.79
   2   2 -14   -4.21    6.71
  -2  -2  14  -19.03   14.05
  -2  -2  14  -13.75   13.35
   1   2 -14   44.33  128.52
   1   2 -14   70.30   12.82
   1   2 -14    4.77   50.18
   1   2 -14   46.54   12.50
  -1  -2  14   45.82   18.80
  -1  -2  14   -6.54   17.66
   0   2 -14  132.95  147.47
   0   2 -14   81.99   54.58
   0   2 -14   46.52   11.68
   0   2 -14   40.02   11.09
   0  -2  14   24.04   17.67
   0  -2  14   59.82   18.94
   0  -2  14    8.65   16.45
  -1   2 -14  535.34  270.77
  -1   2 -14  439.71   82.88
  -1   2 -14  393.89  130.45
  -1   2 -14  406.01   83.03
   1  -2  14  462.66   83.43
   1  -2  14  460.21   86.54
  -2   2 -14  120.19   27.64
  -2   2 -14  187.24  168.31
  -2   2 -14  150.25   28.08
   2  -2  14   87.01   30.89
   2  -2  14  141.02   34.43
  -3   2 -14    1.33  196.04
  -3   2 -14    6.06  129.33
  -3   2 -14   58.42   17.40
  -3   2 -14   78.31   19.36
   3  -2  14   92.84   24.93
   3  -2  14   86.49   25.01
  -4   2 -14  165.27   44.09
  -4   2 -14  235.23  268.37
  -4   2 -14  268.02   48.08
   4  -2  14  259.83   51.25
   4  -2  14  295.57   49.69
  -5   2 -14   -3.80   20.22
  -5   2 -14   -4.31   10.68
  -5   2 -14  -72.43  244.76
   5  -2  14   31.63   17.65
   5  -2  14   12.78   18.72
  -6   2 -14 -373.31  262.63
  -6   2 -14   25.99   13.94
   6  -2  14   22.49   19.39
   6  -2  14   64.21   23.19
  -7   2 -14  -91.12  320.79
   7  -2  14   30.70   23.03
   7  -2  14  -21.64   20.92
  10   1 -14  215.24  212.22
 -10  -1  14   79.78   31.85
   9   1 -14   67.87   90.98
   9   1 -14   -0.42  159.34
  -9  -1  14   25.29   20.93
   8   1 -14   31.54  143.04
   8   1 -14    2.80   74.48
  -8  -1  14   26.02   20.26
   7   1 -14   17.36   76.00
   7   1 -14  -36.61  149.33
  -7  -1  14   -3.56   17.22
   6   1 -14  199.94   95.06
   6   1 -14  125.12  156.15
  -6  -1  14   94.16   28.45
  -6  -1  14  105.64   30.52
   5   1 -14   99.49   71.70
   5   1 -14  159.75  173.10
  -5  -1  14   -5.85   15.05
  -5  -1  14    3.34   17.00
   4   1 -14  102.81   78.94
   4   1 -14  232.35  183.93
  -4  -1  14  138.22   29.60
  -4  -1  14   71.03   29.11
   3   1 -14   67.90   87.13
   3   1 -14  416.26  216.81
  -3  -1  14  242.82   46.99
  -3  -1  14  185.08   42.75
   2   1 -14  -53.90  121.27
   2   1 -14   40.72   61.62
  -2  -1  14    7.28   16.42
  -2  -1  14  -21.09   12.96
   1   1 -14  -49.16  129.79
   1   1 -14   19.96   55.72
  -1  -1  14   29.15   17.02
  -1  -1  14   -5.75   14.11
   0   1 -14  188.02  176.52
   0   1 -14   46.88   57.71
   0  -1  14  112.29   26.94
   0  -1  14   83.44   27.16
  -1   1 -14  186.08  180.87
  -1   1 -14  112.70   70.12
   1  -1  14  197.80   40.59
   1  -1  14  157.37   37.88
  -2   1 -14   65.92  153.73
   2  -1  14   91.48   28.37
   2  -1  14  137.88   32.63
  -3   1 -14   47.49  135.73
   3  -1  14   -0.66   15.15
   3  -1  14  -17.86   16.12
  -4   1 -14   48.30  229.97
   4  -1  14   11.14   16.79
   4  -1  14   31.77   20.13
  -5   1 -14  -30.63  251.61
   5  -1  14   14.65   18.23
   5  -1  14   11.57   17.03
  -6   1 -14 -225.90  287.07
   6  -1  14   -0.47   18.41
   6  -1  14   -5.02   17.73
   9   0 -14  -41.41   78.43
   9   0 -14  288.50  218.38
  -9   0  14   49.98   26.16
   8   0 -14   39.59  154.55
   8   0 -14   30.03   81.22
  -8   0  14  -13.72   17.83
   7   0 -14   60.91  179.33
   7   0 -14  166.90   91.70
  -7   0  14  144.56   35.09
   6   0 -14   10.27  160.81
   6   0 -14    9.93   74.07
  -6   0  14   32.77   19.34
  -6   0  14   45.99   21.10
   5   0 -14   33.53   73.76
   5   0 -14   -4.86  134.12
  -5   0  14   34.59   19.18
  -5   0  14  -18.83   14.98
   4   0 -14  117.07  184.15
   4   0 -14  191.12   80.77
  -4   0  14   84.83   26.90
  -4   0  14   96.00   28.74
   3   0 -14 -133.77  110.75
   3   0 -14   72.93   68.68
  -3   0  14    3.31   14.34
  -3   0  14   -5.13   15.62
   2   0 -14   26.22  170.52
   2   0 -14  113.61   69.93
  -2   0  14   72.45   23.03
  -2   0  14   59.01   23.66
   1   0 -14  -22.50   54.70
   1   0 -14   16.11  139.44
  -1   0  14   14.74   15.76
  -1   0  14   16.14   16.39
   0   0 -14  239.07  236.28
   0   0 -14  280.04  113.82
   0   0  14  364.21   68.42
   0   0  14  370.36   71.21
  -1   0 -14  242.04   98.16
  -1   0 -14  -38.09  190.16
   1   0  14  292.47   54.52
   1   0  14  317.81   57.89
  -2   0 -14  125.07  157.74
   2   0  14   29.69   19.35
   2   0  14   24.73   17.57
  -3   0 -14  -55.58  130.46
   3   0  14   47.68   21.14
   3   0  14   22.63   18.22
   4   0  14   37.83   20.03
   4   0  14   58.71   23.34
  -5   0 -14   49.48  300.06
   5   0  14  142.45   37.73
   5   0  14  192.03   40.80
  -6   0 -14  -76.51  265.25
   6   0  14  -27.12   16.64
   9  -1 -14   32.34   97.12
   9  -1 -14   25.30  204.60
  -9   1  14  -17.99   18.47
   8  -1 -14  185.95   94.14
   8  -1 -14  -53.31  176.98
  -8   1  14   63.43   24.89
   7  -1 -14  334.24  253.02
   7  -1 -14  110.10  115.94
  -7   1  14  303.11   58.13
   6  -1 -14   85.82   73.28
   6  -1 -14  275.22  217.29
  -6   1  14   52.17   21.82
  -6   1  14   41.85   21.62
   5  -1 -14   29.33   73.17
   5  -1 -14    2.73  190.42
  -5   1  14  -18.46   12.22
  -5   1  14    5.91   17.07
   4  -1 -14  -84.99   57.14
   4  -1 -14   84.47  202.91
  -4   1  14   -0.68   16.81
  -4   1  14  -12.60   14.85
   3  -1 -14   17.29  162.40
   3  -1 -14   93.17   79.01
  -3   1  14  149.14   31.10
  -3   1  14   96.20   30.11
   2  -1 -14  148.51   80.04
   2  -1 -14   11.85  172.42
  -2   1  14   69.58   22.12
  -2   1  14   58.95   22.88
   1  -1 -14   22.95   62.67
   1  -1 -14   90.11  176.45
  -1   1  14   35.07   20.48
  -1   1  14   79.06   22.01
   0  -1 -14   -8.64   54.33
   0  -1 -14  -63.53  144.01
   0   1  14   38.16   17.13
   0   1  14   23.10   19.35
  -1  -1 -14 -133.53  114.93
   1   1  14  -18.33   15.08
   1   1  14   33.22   18.70
  -2  -1 -14  -35.92  135.74
   2   1  14    0.85   15.74
   2   1  14   34.12   18.75
  -3  -1 -14   71.83  133.55
   3   1  14    2.76   16.21
   3   1  14   18.10   18.41
   4   1  14   89.42   29.10
   4   1  14  102.82   27.30
   5   1  14   69.88   24.25
   5   1  14   43.98   21.07
   9  -2 -14  228.11  290.19
   8  -2 -14  158.20  104.48
   8  -2 -14  228.99  242.44
  -8   2  14   44.37   23.98
   7  -2 -14  -45.35   72.96
   7  -2 -14   36.64  205.14
  -7   2  14   19.51   20.78
  -7   2  14  -16.74   16.79
   6  -2 -14  -30.52  177.45
   6  -2 -14 -122.61   66.96
  -6   2  14   -5.34   14.75
  -6   2  14   10.17   19.30
   5  -2 -14    3.64  181.56
   5  -2 -14    1.52   76.26
  -5   2  14   14.05   20.48
  -5   2  14   90.50   22.78
   4  -2 -14   48.95   79.09
   4  -2 -14  101.20  186.32
  -4   2  14  157.66   30.47
  -4   2  14   35.62   22.80
   3  -2 -14  189.51   93.95
   3  -2 -14   73.84  194.10
  -3   2  14  216.19   38.74
  -3   2  14  118.17   37.61
   2  -2 -14  -32.24  171.90
   2  -2 -14   -7.38   64.65
  -2   2  14   41.40   19.26
  -2   2  14   25.36   18.22
   1  -2 -14  182.91   77.55
   1  -2 -14  -94.50  164.82
  -1   2  14  199.60   33.91
  -1   2  14   91.97   31.49
   0  -2 -14  -30.06  148.79
   0  -2 -14  106.08   72.86
   0   2  14  117.46   30.58
   0   2  14  173.54   34.94
  -1  -2 -14   67.35  163.70
   1   2  14   23.63   19.46
   1   2  14   50.41   21.07
  -2  -2 -14  143.27  164.42
   2   2  14   55.64   22.57
   2   2  14   52.99   22.66
  -3  -2 -14  127.54  160.18
   3   2  14   63.56   24.69
   4   2  14  229.53   51.03
   8  -3 -14  118.08  102.23
   8  -3 -14  -36.05  212.14
  -8   3  14   85.88   28.47
   7  -3 -14  -52.52  205.66
   7  -3 -14  -81.27   66.95
  -7   3  14   23.09   19.81
  -7   3  14   -0.97   18.58
   6  -3 -14   60.99   92.56
   6  -3 -14 -169.12  140.73
  -6   3  14   31.46   20.14
  -6   3  14   42.62   18.71
   5  -3 -14   -6.60   75.33
   5  -3 -14  -15.93  181.99
  -5   3  14  -25.13   14.92
  -5   3  14   -4.19   16.64
   4  -3 -14   55.42   81.04
   4  -3 -14   60.65  218.28
  -4   3  14  135.34   29.13
  -4   3  14   66.28   24.49
   3  -3 -14  109.36  206.29
   3  -3 -14  120.66   91.36
  -3   3  14  217.04   47.59
  -3   3  14  230.27   45.16
   2  -3 -14   18.92  158.75
   2  -3 -14   -4.78   57.31
  -2   3  14   24.35   17.10
  -2   3  14  -23.48   16.22
   1  -3 -14  -43.00   49.08
   1  -3 -14   50.92  180.60
  -1   3  14  -37.77   14.69
   0  -3 -14   39.57   65.38
   0  -3 -14   75.33  175.88
   0   3  14   65.92   24.06
  -1  -3 -14  -12.92  171.65
   1   3  14  111.11   29.71
  -2  -3 -14  133.83  161.59
   2   3  14   38.82   21.39
  -3  -3 -14  -48.35  145.21
   3   3  14    4.69   18.16
   7  -4 -14   97.20  102.71
   7  -4 -14  -36.61  167.90
  -7   4  14   20.76   18.67
  -7   4  14   28.59   21.47
   6  -4 -14   -0.59   82.40
   6  -4 -14   71.84  231.95
  -6   4  14   63.40   24.82
  -6   4  14   57.72   23.78
   5  -4 -14   40.95   72.38
   5  -4 -14  -75.97  162.83
  -5   4  14   40.22   24.03
  -5   4  14   71.75   22.87
   4  -4 -14   13.59  174.66
   4  -4 -14   93.10   90.54
  -4   4  14   99.07   28.48
   3  -4 -14   -9.49   70.44
   3  -4 -14 -166.04  128.31
  -3   4  14    5.72   16.56
   2  -4 -14  -51.17   66.45
   2  -4 -14   -7.22  165.50
  -2   4  14   11.77   18.04
   1  -4 -14  154.82  198.36
   1  -4 -14    7.62   56.55
  -1   4  14   -6.25   15.44
   0  -4 -14    1.89  184.24
   0  -4 -14  257.39   99.67
   0   4  14  236.70   47.91
  -1  -4 -14   26.70  187.32
   1   4  14  190.71   41.21
   5  -5 -14   20.54  214.38
  -5   5  14  -25.20   16.94
   4  -5 -14    0.15   73.69
   4  -5 -14  -12.65  198.49
  -4   5  14   82.43   26.01
   3  -5 -14  -51.60   74.19
   3  -5 -14   93.55  210.95
  -3   5  14  -30.83   16.05
   2  -5 -14   50.77   76.66
   2  -5 -14 -109.92  184.48
  -2   5  14   75.33   25.14
   1  -5 -14  -31.42   70.96
   1  -5 -14 -100.44  171.15
   0 -13  15  103.90   30.56
   1 -13  15  -26.73   15.86
   1 -13  15   12.15   27.51
   1 -13  15   12.61   20.46
   2 -13  15  174.30   46.27
   2 -13  15  226.85   47.02
  -3 -12  15  161.65   52.35
  -3 -12  15  201.56   43.92
  -2 -12  15    0.88   18.02
  -2 -12  15   15.03   27.87
  -2 -12  15   27.40   19.14
  -1 -12  15  -25.83   20.35
  -1 -12  15  -17.52   15.91
  -1 -12  15  -26.67   16.05
   0 -12  15  -26.68   13.46
   0 -12  15   23.30   19.19
   0 -12  15   -8.90   21.46
   1 -12  15   69.07   39.72
   1 -12  15  157.85   35.28
   1 -12  15  137.40   34.70
   2 -12  15   46.77   23.00
   2 -12  15   40.69   27.57
   2 -12  15   49.94   22.88
   3 -12  15    4.27   18.52
   3 -12  15  -18.15   17.00
   3 -12  15   37.07   27.89
   4 -12  15   54.87   33.86
   4 -12  15   62.23   27.36
   4 -12  15   63.83   26.46
  -5 -11  15   46.44   22.69
  -5 -11  15   63.18   23.28
  -4 -11  15   33.49   26.75
  -4 -11  15   49.23   20.95
  -4 -11  15   33.94   21.50
  -3 -11  15  151.73   48.66
  -3 -11  15  176.19   40.99
  -3 -11  15  184.29   41.25
  -2 -11  15  -16.34   16.43
  -2 -11  15   58.60   20.57
  -2 -11  15   20.23   23.42
  -1 -11  15   93.47   25.28
  -1 -11  15   69.44   30.54
  -1 -11  15   48.04   23.91
   0 -11  15    9.36   17.08
   0 -11  15   18.06   22.70
   0 -11  15  -17.08   14.50
   1 -11  15  226.50   48.41
   1 -11  15  192.54   47.05
   1 -11  15  214.73   57.51
   2 -11  15   51.14   23.05
   2 -11  15   68.79   31.14
   2 -11  15   55.85   23.79
   3 -11  15   39.23   27.25
   3 -11  15  -14.13   16.37
   3 -11  15   15.25   18.20
   4 -11  15   -9.61   22.39
   4 -11  15    4.06   20.15
   4 -11  15   -1.98   18.13
   5 -11  15   20.65   22.22
   5 -11  15  -16.70   21.65
   5 -11  15    5.61   20.44
  -6 -10  15  168.33   40.69
  -6 -10  15  194.10   42.35
  -6 -10  15  135.95   48.89
   5  10 -15  -30.57   18.32
  -5 -10  15   12.25   23.29
  -5 -10  15   -8.74   17.70
  -5 -10  15    8.51   18.20
   4  10 -15  139.74   35.48
  -4 -10  15  109.47   36.67
  -4 -10  15   58.42   28.06
  -4 -10  15   92.09   28.12
   3  10 -15  -18.87   18.07
  -3 -10  15    2.14   16.86
  -3 -10  15  -16.89   18.94
  -3 -10  15    2.12   16.98
   2  10 -15  -31.64   17.47
  -2 -10  15   57.56   24.44
  -2 -10  15    4.27   17.71
  -2 -10  15   41.06   19.91
   1  10 -15   16.02   20.23
  -1 -10  15   16.44   17.49
  -1 -10  15    6.76   17.26
  -1 -10  15   33.04   23.07
   0  10 -15  150.95   40.13
   0 -10  15  131.95   36.77
   0 -10  15  180.89   39.91
   0 -10  15  167.89   45.53
  -1  10 -15   94.91   34.51
   1 -10  15  108.80   32.01
   1 -10  15  158.95   34.94
   1 -10  15  144.34   40.29
  -2  10 -15   56.04   23.97
   2 -10  15   77.29   22.94
   2 -10  15   12.71   19.36
   2 -10  15   37.57   24.52
  -3  10 -15   78.94   29.46
   3 -10  15   52.51   29.77
   3 -10  15   75.98   26.97
   3 -10  15  122.81   29.12
  -4  10 -15   43.67   24.23
   4 -10  15  -17.45   21.89
   4 -10  15    9.30   17.93
   4 -10  15    5.70   18.33
  -5  10 -15  171.40   41.69
   5 -10  15  140.40   38.30
   5 -10  15  124.54   37.94
  -6  10 -15   53.54   27.41
   6 -10  15   -8.35   21.57
   6 -10  15   62.37   26.99
  -7  -9  15  110.81   35.92
  -7  -9  15  163.47   38.15
   6   9 -15  147.94   35.09
  -6  -9  15  100.82   30.33
  -6  -9  15   51.59   27.30
  -6  -9  15  124.86   62.88
  -6  -9  15   78.79   36.32
   5   9 -15   24.59   20.74
  -5  -9  15   11.40   18.77
  -5  -9  15   49.67   19.84
  -5  -9  15   25.14   26.99
   4   9 -15  -13.89   16.47
  -4  -9  15  -31.13   14.61
  -4  -9  15  -49.03   17.95
  -4  -9  15   15.52   16.29
   3   9 -15   15.41   21.78
  -3  -9  15   56.81   20.36
  -3  -9  15   49.76   20.72
  -3  -9  15   54.54   23.47
   2   9 -15  190.88   48.67
  -2  -9  15  246.86   47.90
  -2  -9  15  272.81   56.38
  -2  -9  15  143.95   44.20
   1   9 -15    7.42   17.87
  -1  -9  15  -25.48   13.78
  -1  -9  15   27.33   19.68
  -1  -9  15   -2.63   15.26
   0   9 -15  130.27   34.85
   0  -9  15  150.95   33.46
   0  -9  15  118.11   38.02
   0  -9  15  117.30   33.52
  -1   9 -15  152.83   36.26
   1  -9  15  120.51   31.94
   1  -9  15  117.66   34.17
   1  -9  15   99.18   36.10
  -2   9 -15   23.27   19.56
   2  -9  15   26.64   21.46
   2  -9  15    9.81   17.16
   2  -9  15    0.88   16.58
  -3   9 -15  -44.47   16.78
   3  -9  15   -9.67   19.48
   3  -9  15   23.67   18.87
   3  -9  15   13.37   18.97
  -4   9 -15   48.12   24.66
   4  -9  15   29.76   21.14
   4  -9  15   36.55   21.33
   4  -9  15   15.35   22.52
  -5   9 -15  197.07   48.69
   5  -9  15  162.78   45.26
   5  -9  15  227.99   48.95
  -6   9 -15   34.66   24.55
   6  -9  15   41.39   21.00
   6  -9  15  -24.33   20.58
   7   8 -15  124.18   34.15
  -7  -8  15   63.16   30.23
  -7  -8  15  123.01   34.83
  -7  -8  15  175.45   46.37
   6   8 -15   24.41   21.43
  -6  -8  15  -15.80   15.63
  -6  -8  15  -27.93   23.52
  -6  -8  15  -15.17   17.93
   5   8 -15   23.62   19.16
  -5  -8  15   12.43   17.58
  -5  -8  15  109.83   47.98
  -5  -8  15  -12.72   16.01
  -5  -8  15   22.60   25.05
   4   8 -15   18.19   19.71
  -4  -8  15   43.12   24.31
  -4  -8  15   38.20   20.51
  -4  -8  15   31.05   18.44
   3   8 -15  435.67   96.36
  -3  -8  15  453.74  107.57
  -3  -8  15  493.92   91.52
  -3  -8  15  511.35   94.38
   2   8 -15  102.63   29.07
  -2  -8  15   69.31   26.54
  -2  -8  15   93.77   26.56
  -2  -8  15   73.80   28.19
   1   8 -15   17.37   17.51
  -1  -8  15   21.94   19.75
  -1  -8  15   -2.71   15.37
  -1  -8  15  -12.39   15.51
   0   8 -15   -2.37   17.68
   0  -8  15    6.86   16.02
   0  -8  15   34.09   19.25
   0  -8  15   55.67   21.01
  -1   8 -15  139.55   28.41
   1  -8  15   94.88   24.60
   1  -8  15   51.98   26.10
   1  -8  15   16.33   22.50
  -2   8 -15   83.09   29.23
   2  -8  15   46.30   25.44
   2  -8  15  118.32   29.53
   2  -8  15  141.88   33.01
  -3   8 -15  -10.78   19.03
   3  -8  15   34.71   17.73
   3  -8  15    3.49   17.85
   3  -8  15    2.54   17.86
  -4   8 -15  197.00   45.43
   4  -8  15  188.61   46.00
   4  -8  15  175.50   43.03
  -5   8 -15   46.64   23.78
   5  -8  15   59.59   23.51
   5  -8  15   49.15   23.09
  -6   8 -15   13.97   21.15
   6  -8  15    1.70   20.96
   6  -8  15  -12.30   16.83
   8   7 -15  152.68   82.21
   8   7 -15   81.99   28.13
  -8  -7  15   54.09   25.61
  -8  -7  15   31.97   25.73
  -8  -7  15  116.22   42.41
   7   7 -15   77.32   72.95
   7   7 -15   -4.49   19.47
  -7  -7  15    1.00   19.21
  -7  -7  15   31.61   20.89
  -7  -7  15  -15.39   27.69
   6   7 -15  114.78   31.93
   6   7 -15  146.97   77.84
  -6  -7  15  119.11   32.30
  -6  -7  15   59.64   38.26
  -6  -7  15  102.86   32.76
   5   7 -15   34.24   19.22
   5   7 -15   28.81   57.83
  -5  -7  15  -16.75   15.60
  -5  -7  15   -9.89   22.66
  -5  -7  15   12.77   17.11
   4   7 -15  161.99   31.76
   4   7 -15    9.20   54.55
  -4  -7  15   81.02   31.50
  -4  -7  15  132.77   29.60
  -4  -7  15   60.60   25.91
   3   7 -15  212.65   54.03
  -3  -7  15  244.90   53.37
  -3  -7  15  260.89   51.92
  -3  -7  15  262.58   61.98
   2   7 -15  144.16   33.95
  -2  -7  15  104.33   30.92
  -2  -7  15  125.39   36.55
  -2  -7  15  118.17   32.47
   1   7 -15    8.43   17.51
  -1  -7  15   -7.16   15.19
  -1  -7  15   39.48   16.86
  -1  -7  15   48.84   18.86
   0   7 -15  -11.19   15.21
   0  -7  15    7.02   15.17
   0  -7  15   -7.43   16.39
   0  -7  15   23.20   15.53
  -1   7 -15   93.52   28.66
   1  -7  15   83.57   26.67
   1  -7  15  100.13   29.19
   1  -7  15  124.82   32.83
  -2   7 -15  174.90   41.10
   2  -7  15  166.21   41.26
   2  -7  15  141.47   39.48
   2  -7  15  188.93   45.17
  -3   7 -15  -10.81   15.73
   3  -7  15   18.30   18.18
   3  -7  15    1.44   14.28
  -4   7 -15   95.66   28.26
   4  -7  15   64.56   26.23
   4  -7  15  122.31   30.53
  -5   7 -15   29.15   21.52
   5  -7  15   31.86   20.51
   5  -7  15   -6.07   16.90
  -6   7 -15  -17.62   18.44
   6  -7  15   -6.79   17.00
   6  -7  15   22.70   21.05
  -7   7 -15   14.55   21.29
   7  -7  15  -17.74   19.23
   7  -7  15   14.98   20.21
   8   6 -15   52.03   79.07
   8   6 -15   84.96   25.06
  -8  -6  15   31.04   23.90
  -8  -6  15  -25.85   20.43
  -8  -6  15   98.68   35.70
   7   6 -15   39.52   67.54
   7   6 -15   14.60   18.01
  -7  -6  15   52.07   23.51
  -7  -6  15  -20.47   16.65
  -7  -6  15   46.07   29.61
   6   6 -15   88.53   27.38
   6   6 -15  203.94   78.47
  -6  -6  15   69.18   26.98
  -6  -6  15   67.81   33.39
  -6  -6  15   62.10   27.02
   5   6 -15    8.41   54.98
   5   6 -15   14.36   18.05
  -5  -6  15   35.61   24.28
  -5  -6  15   22.46   20.76
  -5  -6  15   38.58   19.48
   4   6 -15  320.01   63.37
   4   6 -15  368.69  109.21
  -4  -6  15  224.70   70.14
  -4  -6  15  292.16   62.19
  -4  -6  15  311.51   61.01
   3   6 -15   73.54   21.98
   3   6 -15   86.45   58.43
  -3  -6  15   41.69   22.70
  -3  -6  15   73.71   21.99
  -3  -6  15   35.65   24.59
   2   6 -15   -5.43   13.75
   2   6 -15    8.73   43.00
  -2  -6  15   38.76   16.96
  -2  -6  15  -15.86   14.32
  -2  -6  15   24.90   18.23
   1   6 -15   66.56   43.11
   1   6 -15    8.51   14.42
  -1  -6  15   10.85   16.00
  -1  -6  15  -17.77   15.33
  -1  -6  15    2.23   15.42
   0   6 -15  125.65   54.69
   0   6 -15  118.19   32.95
   0  -6  15  101.93   32.57
   0  -6  15  156.12   33.45
   0  -6  15  140.97   34.99
  -1   6 -15  196.62   42.05
   1  -6  15  210.25   41.68
   1  -6  15  199.60   45.55
   1  -6  15  105.88   40.76
  -2   6 -15   -4.50   14.84
  -2   6 -15   48.76  147.23
   2  -6  15   22.44   17.01
   2  -6  15   12.63   17.58
   2  -6  15    2.95   17.12
  -3   6 -15   68.66   24.20
  -3   6 -15  239.58  146.05
   3  -6  15   53.58   24.01
   3  -6  15   90.16   24.75
  -4   6 -15  -13.97   15.17
   4  -6  15    7.33   15.43
   4  -6  15   15.27   20.65
  -5   6 -15  223.26   48.37
   5  -6  15  170.99   45.13
   5  -6  15  213.20   49.23
  -6   6 -15   18.54   21.47
   6  -6  15  104.21   25.98
   6  -6  15   33.17   24.67
  -7   6 -15   56.69   25.14
   7  -6  15   20.85   21.06
   7  -6  15    3.55   23.68
   9   5 -15  114.02   93.83
  -9  -5  15   14.85   22.43
   8   5 -15  -63.86   66.82
   8   5 -15   -6.85   16.46
  -8  -5  15  -10.33   18.63
  -8  -5  15   -5.67   22.33
   7   5 -15  151.17   37.62
   7   5 -15   90.36   83.61
  -7  -5  15  120.97   36.99
  -7  -5  15  182.79   40.19
   6   5 -15  136.73   30.82
   6   5 -15   42.59   68.62
  -6  -5  15   88.66   30.12
  -6  -5  15   93.39   30.86
   5   5 -15   33.67   59.11
   5   5 -15   69.94   20.10
  -5  -5  15   42.38   19.80
  -5  -5  15   -3.61   22.58
  -5  -5  15   11.01   19.98
   4   5 -15   49.02   19.27
   4   5 -15  -58.67   49.31
  -4  -5  15   37.51   20.31
  -4  -5  15   94.12   29.23
  -4  -5  15   81.18   22.16
   3   5 -15   -8.32   48.01
   3   5 -15   -2.07   14.31
  -3  -5  15  -12.58   15.13
  -3  -5  15   14.86   18.53
  -3  -5  15    1.05   13.93
   2   5 -15  151.42   28.28
   2   5 -15  184.19   67.00
  -2  -5  15   69.32   25.95
  -2  -5  15   66.96   29.57
  -2  -5  15  114.38   30.00
   1   5 -15  -32.87   42.13
   1   5 -15   18.50   13.58
  -1  -5  15    3.68   15.92
  -1  -5  15   -7.06   14.48
  -1  -5  15  -10.04   16.11
   0   5 -15  169.01   38.43
   0   5 -15  198.12   66.43
   0   5 -15  451.50  217.68
   0  -5  15  144.07   41.64
   0  -5  15  173.68   40.35
   0  -5  15  158.84   38.56
  -1   5 -15  988.99  301.10
  -1   5 -15  390.97   85.98
   1  -5  15  428.58   94.82
   1  -5  15  404.42   82.97
   1  -5  15  418.20   84.98
  -2   5 -15   40.86  130.17
  -2   5 -15    5.20   14.44
   2  -5  15   -8.08   15.55
   2  -5  15    0.45   17.00
  -3   5 -15   96.29   24.54
  -3   5 -15  122.36  124.52
   3  -5  15   40.41   22.25
   3  -5  15   77.19   24.81
  -4   5 -15   -2.07   15.42
   4  -5  15  -17.18   15.61
   4  -5  15   -8.56   17.68
  -5   5 -15   99.64   36.30
   5  -5  15  196.17   40.29
   5  -5  15  203.64   40.72
  -6   5 -15   -5.32   18.73
   6  -5  15   32.20   21.41
   6  -5  15   23.03   18.35
   7  -5  15   19.32   22.17
   9   4 -15  -16.25   84.12
   9   4 -15   21.90   18.81
   9   4 -15  -34.47  193.56
  -9  -4  15   17.66   23.74
   8   4 -15  -23.31   74.93
   8   4 -15   85.44   24.28
  -8  -4  15   43.68   25.05
   7   4 -15  246.86   95.94
   7   4 -15  182.95   39.77
  -7  -4  15  158.81   41.02
  -7  -4  15  140.15   40.89
   6   4 -15  145.28   30.33
   6   4 -15   88.11   77.26
  -6  -4  15  102.87   31.63
  -6  -4  15   81.39   32.16
   5   4 -15  -19.52   11.78
   5   4 -15  -16.20   57.36
  -5  -4  15    6.42   18.47
  -5  -4  15    2.41   16.55
   4   4 -15    5.66   13.30
   4   4 -15   18.13   57.99
  -4  -4  15  -22.84   16.16
  -4  -4  15  -20.46   14.17
   3   4 -15   91.84   24.93
   3   4 -15  177.05   72.08
  -3  -4  15  151.24   30.09
  -3  -4  15   92.89   29.74
  -3  -4  15   63.15   30.45
   2   4 -15  206.28  174.58
   2   4 -15  -41.07   44.67
   2   4 -15   17.52   13.55
  -2  -4  15   30.76   19.46
  -2  -4  15   19.44   18.65
  -2  -4  15   29.86   17.44
   1   4 -15    3.08   45.45
   1   4 -15   60.57   15.64
   1   4 -15   88.23  135.84
  -1  -4  15   18.04   18.62
  -1  -4  15   23.31   18.73
  -1  -4  15   21.41   17.45
   0   4 -15   74.40   56.83
   0   4 -15  101.37   27.47
   0   4 -15  299.89  175.81
   0  -4  15   93.12   31.46
   0  -4  15  148.35   32.50
   0  -4  15  110.08   29.04
  -1   4 -15  -47.59  118.31
  -1   4 -15  -20.39   11.09
   1  -4  15   -8.05   16.68
   1  -4  15   11.56   16.83
  -2   4 -15   36.58   16.42
  -2   4 -15  120.21  136.73
   2  -4  15   -1.51   16.90
   2  -4  15   45.23   21.94
  -3   4 -15   -9.65  121.17
  -3   4 -15  -10.41   11.89
   3  -4  15  -19.01   17.10
   3  -4  15  -25.79   14.72
  -4   4 -15  255.29   60.54
   4  -4  15  317.16   63.90
   4  -4  15  329.97   61.27
  -5   4 -15   17.87   17.71
   5  -4  15   53.68   22.54
   5  -4  15   23.84   22.04
  -6   4 -15  -67.03  293.67
  -6   4 -15   20.98   17.80
   6  -4  15   -9.17   19.49
   6  -4  15   -6.23   18.80
   9   3 -15  118.94  190.00
   9   3 -15   22.42   84.07
   9   3 -15   -2.28   14.56
  -9  -3  15   -7.36   21.98
   8   3 -15   94.92   94.51
   8   3 -15  209.14  192.04
   8   3 -15  187.67   39.98
  -8  -3  15  170.43   42.75
   7   3 -15  161.28   34.84
   7   3 -15  323.31  200.46
   7   3 -15   17.41   79.75
  -7  -3  15  140.08   39.01
  -7  -3  15  167.21   39.49
   6   3 -15   37.50   13.22
   6   3 -15   90.77  154.94
   6   3 -15   48.91   71.52
  -6  -3  15   13.63   18.33
  -6  -3  15  -18.20   18.59
   5   3 -15   55.31   66.15
   5   3 -15  133.18  168.32
   5   3 -15   29.43   13.14
  -5  -3  15   35.62   23.17
  -5  -3  15   35.76   20.60
   4   3 -15   99.32   20.20
   4   3 -15  192.53  179.36
   4   3 -15  165.02   80.96
   4   3 -15   48.86   18.61
  -4  -3  15   38.25   22.49
  -4  -3  15  136.04   29.25
   3   3 -15 1243.12  323.32
   3   3 -15  320.20   69.34
   3   3 -15  392.98   69.48
   3   3 -15  263.49  120.71
  -3  -3  15  366.51   71.82
  -3  -3  15  274.86   68.32
   2   3 -15  124.25   26.03
   2   3 -15  359.89  181.50
   2   3 -15  118.18   70.46
   2   3 -15  132.62   26.69
  -2  -3  15  114.41   30.32
  -2  -3  15   69.39   29.11
  -2  -3  15   78.01   32.40
   1   3 -15   66.28   58.24
   1   3 -15   39.56   12.97
   1   3 -15   24.58   12.09
   1   3 -15  328.46  187.07
  -1  -3  15   19.68   18.01
  -1  -3  15   13.09   18.80
  -1  -3  15   21.04   18.32
   0   3 -15  444.74  203.25
   0   3 -15  258.46   77.68
   0   3 -15  191.16   35.01
   0   3 -15  121.84   33.83
   0  -3  15  149.94   39.50
   0  -3  15  136.51   36.81
   0  -3  15  201.68   41.18
  -1   3 -15   20.56  138.09
  -1   3 -15   -6.78    9.75
  -1   3 -15   -4.30   10.02
   1  -3  15   40.01   16.87
   1  -3  15  -26.26   16.25
  -2   3 -15   44.19   21.05
  -2   3 -15  184.73  167.27
  -2   3 -15   91.11   21.59
   2  -3  15  101.00   27.02
   2  -3  15  130.02   30.13
  -3   3 -15  -11.21   11.47
  -3   3 -15  -45.34  135.00
   3  -3  15   33.38   17.80
   3  -3  15   50.05   20.28
  -4   3 -15  191.65   45.76
   4  -3  15  232.60   48.64
   4  -3  15  264.61   52.46
  -5   3 -15   66.38   22.22
  -5   3 -15  146.28  265.45
   5  -3  15  110.30   29.07
   5  -3  15   73.38   29.15
  -6   3 -15 -169.98  290.58
  -6   3 -15  -12.52   14.60
   6  -3  15  -11.21   18.48
   6  -3  15   63.87   25.26
   9   2 -15  -73.04   75.07
   9   2 -15 -118.89  162.17
   9   2 -15  -17.79    9.44
  -9  -2  15  -10.23   20.19
   8   2 -15  117.67   25.56
   8   2 -15  134.85   26.02
   8   2 -15   23.96  158.37
   8   2 -15  -15.85   81.88
  -8  -2  15   90.38   34.15
   7   2 -15   38.80   11.87
   7   2 -15  -49.88  164.02
   7   2 -15   49.83   12.33
   7   2 -15   -0.56   74.16
  -7  -2  15   71.93   27.02
  -7  -2  15   30.31   21.46
   6   2 -15   -0.28    6.16
   6   2 -15  -86.83   63.06
   6   2 -15  139.90  170.59
   6   2 -15   -0.58    6.11
  -6  -2  15   13.80   17.07
  -6  -2  15  -14.77   16.48
   5   2 -15  -14.68   63.92
   5   2 -15  -69.52  141.76
  -5  -2  15   20.76   20.08
  -5  -2  15   11.22   16.24
   4   2 -15   29.42  160.55
   4   2 -15   21.26   69.76
  -4  -2  15    9.97   17.12
  -4  -2  15    5.29   15.59
   3   2 -15   -3.47   67.49
   3   2 -15  337.18  205.69
  -3  -2  15  139.37   34.97
  -3  -2  15  133.48   31.20
   2   2 -15  -24.25  140.62
   2   2 -15   14.83   57.20
  -2  -2  15   -9.85   16.49
  -2  -2  15  -13.12   15.04
   1   2 -15  -17.16   55.27
   1   2 -15  -68.10  134.71
  -1  -2  15   -2.34   16.50
  -1  -2  15  -32.15   14.85
  -1  -2  15  -48.07   13.36
   0   2 -15  190.42  182.18
   0   2 -15  128.61   67.93
   0  -2  15  136.49   36.33
   0  -2  15  168.70   36.46
  -1   2 -15  -74.24  140.34
   1  -2  15   83.06   26.69
   1  -2  15   83.85   24.58
  -2   2 -15  -73.74  130.22
   2  -2  15    7.18   15.83
   2  -2  15   -9.06   15.67
  -3   2 -15   16.51  147.86
   3  -2  15  140.60   34.40
   3  -2  15  148.40   36.56
  -4   2 -15    3.64  244.79
   4  -2  15  100.95   25.69
   4  -2  15   19.50   23.76
  -5   2 -15   99.41  255.65
   5  -2  15   20.44   18.07
   5  -2  15   12.81   20.18
  -6   2 -15  -49.44  280.24
   6  -2  15   30.22   22.62
   9   1 -15   79.70  191.96
   9   1 -15  -59.61   79.59
  -9  -1  15   47.02   26.19
   8   1 -15   42.80   81.83
   8   1 -15  -33.58  161.16
  -8  -1  15   30.08   21.86
   7   1 -15  103.20  165.35
   7   1 -15  105.89   90.75
  -7  -1  15   95.47   30.67
  -7  -1  15  122.52   32.66
   6   1 -15  215.39  193.81
   6   1 -15    0.62   68.96
  -6  -1  15   59.63   26.10
  -6  -1  15   73.42   24.69
   5   1 -15   71.31  146.79
   5   1 -15   13.86   74.51
  -5  -1  15   65.75   24.68
  -5  -1  15  108.67   28.55
   4   1 -15  397.89  235.50
   4   1 -15  219.09  102.32
  -4  -1  15  185.58   52.85
  -4  -1  15  313.01   54.58
   3   1 -15  112.06   76.74
   3   1 -15  199.32  184.77
  -3  -1  15   40.78   24.34
  -3  -1  15   78.51   22.62
   2   1 -15   85.91   67.09
   2   1 -15   73.99  174.37
  -2  -1  15   25.58   21.93
  -2  -1  15   62.74   21.49
   1   1 -15  -84.54   51.18
   1   1 -15   53.39  163.85
  -1  -1  15   -9.49   15.53
  -1  -1  15    8.55   17.96
   0   1 -15   78.69   64.59
   0   1 -15  101.57  183.57
   0  -1  15  121.02   30.08
   0  -1  15  118.50   32.65
  -1   1 -15   95.30  207.67
   1  -1  15  332.14   59.25
   1  -1  15  273.39   60.12
  -2   1 -15  -78.50  145.70
   2  -1  15  -17.87   14.62
   2  -1  15   17.50   18.30
  -3   1 -15   61.19  151.87
   3  -1  15  100.73   26.57
   3  -1  15   52.20   25.78
   4  -1  15   68.56   22.06
   4  -1  15   -8.82   17.21
  -5   1 -15 -120.26  273.03
   5  -1  15   90.01   28.75
   5  -1  15  116.24   30.48
   8   0 -15  -51.12  163.57
   8   0 -15   21.12   77.61
  -8   0  15    6.62   20.75
   7   0 -15   37.22  178.35
   7   0 -15  183.91  105.63
  -7   0  15   93.86   30.23
  -7   0  15   75.47   27.07
   6   0 -15  -54.51   67.44
   6   0 -15  -43.94  167.53
  -6   0  15   36.99   20.53
  -6   0  15   59.06   23.87
   5   0 -15  -13.48   64.86
   5   0 -15  144.96  189.93
  -5   0  15    5.74   18.09
  -5   0  15  -27.65   15.46
   4   0 -15   59.80   78.05
   4   0 -15  191.15  201.67
  -4   0  15  104.78   29.15
  -4   0  15   58.48   26.57
   3   0 -15  -27.48   59.35
   3   0 -15  -41.51  175.65
  -3   0  15    2.66   17.29
  -3   0  15  -10.10   14.76
   2   0 -15  -65.87  167.15
   2   0 -15  -36.40   55.50
  -2   0  15   -9.03   16.72
  -2   0  15   24.69   17.29
   1   0 -15   48.88  180.43
   1   0 -15   22.75   59.09
  -1   0  15   21.06   18.94
  -1   0  15   14.65   17.89
   0   0 -15  218.82  209.73
   0   0 -15  281.59   85.01
   0   0  15  160.66   39.98
   0   0  15  157.98   41.08
  -1   0 -15   20.58  156.09
   1   0  15  -12.71   16.84
   1   0  15   17.01   17.31
  -2   0 -15   13.26  147.96
   2   0  15   22.43   18.05
   2   0  15   -1.78   17.63
  -3   0 -15    5.50  131.03
   3   0  15    4.41   19.34
   3   0  15    9.81   19.26
   4   0  15   57.50   25.19
   4   0  15   69.48   24.58
   8  -1 -15   89.55  219.15
   8  -1 -15  152.75  106.00
  -8   1  15  119.75   33.61
  -8   1  15   85.20   29.52
   7  -1 -15   21.67   90.03
   7  -1 -15 -114.48  211.57
  -7   1  15  218.05   39.18
  -7   1  15  130.72   38.16
   6  -1 -15 -178.76  171.12
   6  -1 -15  134.87   89.99
  -6   1  15   16.17   18.79
  -6   1  15   33.14   19.89
   5  -1 -15  158.27  240.38
   5  -1 -15   26.86   78.01
  -5   1  15  138.95   32.34
  -5   1  15   85.76   29.11
   4  -1 -15  -64.73   66.53
   4  -1 -15  -63.22  156.68
  -4   1  15    7.19   16.64
  -4   1  15  -12.18   16.89
   3  -1 -15   36.21   73.17
   3  -1 -15  -22.48  196.46
  -3   1  15   77.15   32.07
  -3   1  15  259.63   36.83
   2  -1 -15   73.73  197.73
   2  -1 -15    5.07   65.58
  -2   1  15    3.80   19.00
  -2   1  15   36.68   19.33
   1  -1 -15   84.06   71.37
   1  -1 -15   89.09  189.49
  -1   1  15  159.41   32.26
  -1   1  15   83.78   30.34
   0  -1 -15  117.26  205.17
   0  -1 -15  191.84   96.33
   0   1  15  252.30   49.29
   0   1  15  225.01   50.75
  -1  -1 -15   77.86  170.24
   1   1  15   49.86   21.82
   1   1  15   24.78   18.74
  -2  -1 -15  -99.50  137.86
   2   1  15   23.67   20.62
   2   1  15   45.59   20.00
  -3  -1 -15  -41.49  149.21
   3   1  15   10.35   16.39
   3   1  15   -9.76   16.69
   7  -2 -15 -229.83  182.36
   7  -2 -15   -5.43   84.70
  -7   2  15   30.89   17.85
  -7   2  15   24.06   23.59
   6  -2 -15  -21.57   72.42
   6  -2 -15  107.54  217.46
  -6   2  15  -27.51   16.88
  -6   2  15   44.98   19.32
   5  -2 -15   -8.18  210.85
   5  -2 -15   94.98   87.05
  -5   2  15  -18.14   16.66
  -5   2  15   -6.27   17.77
   4  -2 -15  -27.62  204.47
   4  -2 -15   57.91   79.99
  -4   2  15  105.34   25.31
  -4   2  15   48.49   23.07
   3  -2 -15 -101.86  146.14
   3  -2 -15  168.16   88.13
  -3   2  15  114.48   30.59
  -3   2  15   88.55   28.11
   2  -2 -15  -66.11  169.13
   2  -2 -15   58.87   72.61
  -2   2  15   90.14   27.03
  -2   2  15   86.94   26.07
   1  -2 -15  -78.08   45.01
   1  -2 -15  122.56  207.18
  -1   2  15   69.94   22.36
  -1   2  15   11.14   18.53
   0  -2 -15   73.54  167.89
   0  -2 -15  -25.83   58.58
   0   2  15   12.05   17.81
   0   2  15    5.42   17.60
  -1  -2 -15   53.31  163.52
   1   2  15    6.98   19.02
  -2  -2 -15 -147.93  134.50
   2   2  15    9.91   18.37
   6  -3 -15  -49.14  202.57
   6  -3 -15   99.47  100.87
  -6   3  15   15.00   21.65
  -6   3  15   55.94   24.00
   5  -3 -15   13.10  195.01
   5  -3 -15  -38.72   67.99
  -5   3  15   29.27   21.08
  -5   3  15    7.11   20.07
   4  -3 -15  199.56  115.19
   4  -3 -15  -73.92  196.47
  -4   3  15  285.08   52.62
  -4   3  15  276.01   55.02
   3  -3 -15  -32.90  180.85
   3  -3 -15   95.34   84.82
  -3   3  15  193.82   41.27
  -3   3  15  185.18   40.65
   2  -3 -15   22.44  186.43
   2  -3 -15    4.83   73.69
  -2   3  15    5.82   18.25
   1  -3 -15  -18.84   64.45
   1  -3 -15   57.83  188.67
  -1   3  15   79.87   24.32
   0  -3 -15   -5.23   68.40
   0  -3 -15   43.05  181.99
   0   3  15    5.24   18.77
  -1  -3 -15   31.62  179.58
   1   3  15   76.07   25.69
   4  -4 -15  -96.35  210.80
  -4   4  15   98.24   28.20
   3  -4 -15   71.40   82.15
   3  -4 -15 -204.81  168.24
  -3   4  15   14.24   19.97
   2  -4 -15   27.88  201.18
  -2   4  15   55.81   22.21
  -2 -12  16   45.77   22.97
  -1 -12  16   -1.26   18.67
  -1 -12  16    5.00   18.77
  -1 -12  16  -13.68   24.94
   0 -12  16   41.67   20.02
   0 -12  16  -39.59   24.35
   0 -12  16   -3.00   17.17
   1 -12  16   69.25   30.24
   1 -12  16  -14.80   17.34
   1 -12  16   15.02   20.40
   2 -12  16   71.41   28.38
   2 -12  16   89.55   29.34
  -4 -11  16  129.88   35.74
   3  11 -16  107.89   35.82
  -3 -11  16   79.17   36.83
  -3 -11  16  111.87   32.42
  -3 -11  16  100.25   30.81
   2  11 -16   41.59   27.66
  -2 -11  16   64.70   23.49
  -2 -11  16   18.14   19.71
  -2 -11  16   27.46   26.02
   1  11 -16   79.17   30.02
  -1 -11  16   88.42   27.92
  -1 -11  16  113.44   35.66
  -1 -11  16   73.50   27.44
   0  11 -16   37.51   25.28
   0 -11  16   31.46   20.89
   0 -11  16   24.91   25.70
   0 -11  16   45.29   20.18
  -1  11 -16  172.77   43.45
   1 -11  16  111.57   36.62
   1 -11  16  190.02   41.18
   1 -11  16  173.20   47.78
  -2  11 -16   81.99   27.02
   2 -11  16   48.75   29.05
   2 -11  16   33.10   21.27
   2 -11  16  -13.34   17.52
  -3  11 -16   76.52   28.47
   3 -11  16   37.94   23.75
   3 -11  16   39.01   24.06
   3 -11  16   63.97   30.61
  -4  11 -16    7.14   23.72
   4 -11  16  -38.94   16.83
   4 -11  16   17.18   20.02
   5  10 -16    9.08   21.98
  -5 -10  16    8.28   23.08
  -5 -10  16   -7.88   17.40
  -5 -10  16  -29.70   16.26
   4  10 -16    0.46   20.90
  -4 -10  16   69.94   23.61
  -4 -10  16   61.66   27.70
  -4 -10  16   12.28   17.71
   3  10 -16   -3.70   20.94
  -3 -10  16   16.83   22.69
  -3 -10  16  -20.55   16.67
  -3 -10  16   -0.76   16.43
   2  10 -16   72.73   25.98
  -2 -10  16   52.07   23.56
  -2 -10  16   -8.57   16.30
  -2 -10  16    9.33   17.67
   1  10 -16   -8.55   17.87
  -1 -10  16   -3.54   16.48
  -1 -10  16   31.54   19.45
  -1 -10  16   -8.17   20.22
   0  10 -16    9.06   20.63
   0 -10  16   13.95   18.63
   0 -10  16   46.28   20.63
   0 -10  16   28.64   23.03
  -1  10 -16  241.52   50.36
   1 -10  16  198.76   47.18
   1 -10  16  174.20   52.48
   1 -10  16  173.68   44.38
  -2  10 -16    8.04   20.90
   2 -10  16   12.21   19.57
   2 -10  16   40.73   23.67
   2 -10  16    3.98   17.67
  -3  10 -16   -9.53   20.64
   3 -10  16   13.60   22.66
   3 -10  16  -14.43   18.42
   3 -10  16   26.30   20.66
  -4  10 -16  -15.81   21.96
   4 -10  16   36.23   20.70
   4 -10  16   68.91   23.89
   5 -10  16   53.52   26.84
  -6  -9  16   52.15   26.38
  -6  -9  16  134.40   31.60
  -6  -9  16   22.05   30.57
   5   9 -16   27.61   22.63
  -5  -9  16   24.36   25.28
  -5  -9  16   19.40   21.67
  -5  -9  16   31.64   20.37
   4   9 -16   -7.08   20.64
  -4  -9  16   30.62   19.81
  -4  -9  16   -2.81   20.40
  -4  -9  16  -13.62   17.00
   3   9 -16   43.49   31.30
  -3  -9  16  138.19   32.72
  -3  -9  16  166.41   33.91
  -3  -9  16  104.28   34.37
   2   9 -16   65.55   26.57
  -2  -9  16   80.48   30.50
  -2  -9  16   86.62   27.03
  -2  -9  16   90.81   27.43
   1   9 -16   42.31   23.68
  -1  -9  16   61.16   22.78
  -1  -9  16   12.83   20.25
  -1  -9  16   34.49   20.97
   0   9 -16  267.67   58.96
   0  -9  16  234.46   64.34
   0  -9  16  256.65   55.60
   0  -9  16  270.68   55.23
  -1   9 -16   27.09   19.38
   1  -9  16  -10.58   16.31
   1  -9  16   -4.26   16.70
   1  -9  16   25.59   20.81
  -2   9 -16   41.42   23.80
   2  -9  16   15.34   20.56
   2  -9  16   12.91   18.64
   2  -9  16   67.56   25.60
  -3   9 -16  -30.02   18.60
   3  -9  16   -7.68   20.40
   3  -9  16  -16.17   15.58
   3  -9  16    6.94   19.04
  -4   9 -16  206.56   45.05
   4  -9  16  168.85   41.34
   4  -9  16  127.11   42.23
  -5   9 -16  182.25   50.75
   5  -9  16  257.41   52.46
   5  -9  16  196.95   48.79
   6   8 -16   16.68   21.82
  -6  -8  16   17.16   20.55
  -6  -8  16   15.90   28.03
  -6  -8  16   22.86   20.53
   5   8 -16   35.23   21.07
  -5  -8  16   15.11   20.54
  -5  -8  16  -62.11   14.96
  -5  -8  16   10.15   25.24
   4   8 -16   18.25   19.91
  -4  -8  16    8.90   21.71
  -4  -8  16   39.21   17.87
  -4  -8  16   -7.14   18.00
   3   8 -16  303.78   62.86
  -3  -8  16  271.52   59.26
  -3  -8  16  272.71   60.17
  -3  -8  16  277.91   69.74
   2   8 -16  119.99   29.59
  -2  -8  16   68.14   25.95
  -2  -8  16   85.41   30.23
  -2  -8  16   73.96   27.46
   1   8 -16    7.67   16.97
  -1  -8  16   25.36   19.25
  -1  -8  16   -3.76   13.40
  -1  -8  16   64.98   21.61
   0   8 -16    8.80   18.47
   0  -8  16   15.07   19.21
   0  -8  16   47.10   19.62
   0  -8  16   56.85   21.66
  -1   8 -16   16.82   19.52
   1  -8  16   16.46   16.51
   1  -8  16   -8.61   16.79
   1  -8  16   48.15   21.68
  -2   8 -16   12.43   20.22
   2  -8  16   33.31   21.16
   2  -8  16   48.07   21.07
   2  -8  16   10.55   18.57
  -3   8 -16   54.70   20.65
   3  -8  16   -6.43   17.60
   3  -8  16  -18.09   17.14
  -4   8 -16   71.39   28.48
   4  -8  16   81.35   27.08
   4  -8  16   85.27   27.83
  -5   8 -16   -9.54   20.83
   5  -8  16  -11.38   19.46
   5  -8  16   -7.45   16.99
   7   7 -16   24.22   21.05
  -7  -7  16    6.33   22.20
  -7  -7  16   46.62   34.75
  -7  -7  16   23.01   22.62
   6   7 -16   16.04   18.82
  -6  -7  16   -4.43   17.51
  -6  -7  16   15.71   28.46
  -6  -7  16   -6.27   18.33
   5   7 -16  -12.29   16.94
  -5  -7  16   18.22   19.52
  -5  -7  16    3.02   19.58
  -5  -7  16   22.42   25.69
   4   7 -16  111.13   33.91
  -4  -7  16  168.96   36.52
  -4  -7  16  101.31   38.09
  -4  -7  16  136.21   32.75
   3   7 -16   70.49   24.29
  -3  -7  16   51.79   25.15
  -3  -7  16   34.04   21.22
  -3  -7  16   73.51   24.45
   2   7 -16  -30.12   14.97
  -2  -7  16   -4.35   15.37
  -2  -7  16   14.57   18.25
  -2  -7  16   -4.95   16.32
   1   7 -16  127.49   38.36
  -1  -7  16  194.00   40.58
  -1  -7  16  147.55   38.26
  -1  -7  16  166.99   42.15
   0   7 -16   19.32   18.24
   0  -7  16   23.28   19.80
   0  -7  16   21.49   17.24
   0  -7  16   36.71   19.35
  -1   7 -16  137.22   45.54
   1  -7  16  260.80   49.56
   1  -7  16  263.12   48.87
   1  -7  16  215.11   51.99
  -2   7 -16   60.30   23.32
   2  -7  16   68.45   25.97
   2  -7  16   50.19   22.29
  -3   7 -16  143.73   33.58
  -3   7 -16  150.48  161.85
   3  -7  16   67.20   30.89
   3  -7  16  124.70   32.55
  -4   7 -16  116.57   30.81
   4  -7  16   68.16   29.16
   4  -7  16   90.13   29.22
  -5   7 -16   -5.31   20.01
   5  -7  16    9.69   20.26
   5  -7  16   11.58   18.82
   6  -7  16   -7.99   20.44
   7   6 -16   15.97   19.88
   7   6 -16  -65.53   70.52
  -7  -6  16   -1.46   22.60
  -7  -6  16   16.81   21.24
  -7  -6  16   -4.15   24.55
   6   6 -16   82.42   25.14
   6   6 -16  -43.49   59.77
  -6  -6  16   54.63   26.33
  -6  -6  16   54.80   25.27
  -6  -6  16   59.67   31.47
   5   6 -16   49.92   19.05
   5   6 -16   79.36   65.12
  -5  -6  16   16.07   18.55
  -5  -6  16    0.29   16.90
  -5  -6  16  -25.22   21.45
   4   6 -16  248.76   56.27
   4   6 -16  223.75   96.81
  -4  -6  16  279.72   55.34
  -4  -6  16  297.50   57.72
  -4  -6  16  219.93   64.25
   3   6 -16  128.18   32.48
   3   6 -16   83.81   61.64
  -3  -6  16  142.55   33.88
  -3  -6  16  139.38   33.40
  -3  -6  16  102.39   36.19
   2   6 -16   28.84   16.42
   2   6 -16   48.58   48.07
  -2  -6  16    1.33   17.91
  -2  -6  16   30.17   17.84
  -2  -6  16  -12.48   14.67
   1   6 -16   51.86   44.25
   1   6 -16   26.46   16.30
  -1  -6  16   -3.82   17.22
  -1  -6  16  -32.65   14.46
  -1  -6  16   17.00   16.74
   0   6 -16  -39.97   35.80
   0   6 -16   51.19   20.51
   0  -6  16   44.52   21.78
   0  -6  16   76.06   21.82
   0  -6  16   48.05   21.07
  -1   6 -16  244.05  194.02
  -1   6 -16  156.73   36.77
   1  -6  16  183.55   40.23
   1  -6  16   81.39   33.92
   1  -6  16  181.87   40.25
  -2   6 -16   12.39   17.15
  -2   6 -16   82.77  138.07
   2  -6  16    9.14   18.21
   2  -6  16   45.06   22.08
  -3   6 -16  -41.68  111.02
  -3   6 -16   15.10   17.53
   3  -6  16   30.59   19.88
   3  -6  16   -5.44   16.92
  -4   6 -16    4.55   18.89
   4  -6  16    9.06   18.83
   4  -6  16    0.74   16.85
  -5   6 -16   77.40   30.21
   5  -6  16  149.45   33.28
   5  -6  16  100.19   33.41
   6  -6  16   20.35   24.16
   8   5 -16   92.10   84.29
   8   5 -16   43.97   22.59
  -8  -5  16   40.18   24.46
  -8  -5  16   13.41   22.28
   7   5 -16  110.58   29.16
   7   5 -16   57.25   79.45
  -7  -5  16   97.17   32.61
  -7  -5  16   85.82   30.09
   6   5 -16   70.41   25.75
   6   5 -16  -18.94   67.15
  -6  -5  16   91.69   30.30
  -6  -5  16  172.05   35.87
  -6  -5  16   93.45   37.57
   5   5 -16   13.11   68.73
   5   5 -16   21.61   17.61
  -5  -5  16   39.29   27.34
  -5  -5  16   37.69   21.81
  -5  -5  16   -5.90   18.48
   4   5 -16   57.56   20.88
   4   5 -16  -10.01   62.52
  -4  -5  16   62.66   27.00
  -4  -5  16   77.07   24.90
  -4  -5  16   46.10   21.57
   3   5 -16  -31.16   51.32
   3   5 -16    7.96   14.28
  -3  -5  16    0.87   18.84
  -3  -5  16   19.36   20.86
  -3  -5  16  -17.98   15.08
   2   5 -16   75.44   60.61
   2   5 -16  113.30   26.12
  -2  -5  16   76.59   30.15
  -2  -5  16   84.10   26.51
  -2  -5  16  102.62   30.15
   1   5 -16   -6.23   44.62
   1   5 -16   26.24   14.96
   1   5 -16   82.70  167.08
  -1  -5  16   -7.28   15.31
  -1  -5  16   46.67   19.27
  -1  -5  16   41.76   19.36
   0   5 -16  196.58   45.43
   0   5 -16  576.99  239.25
   0   5 -16  241.51   78.57
   0  -5  16  188.55   49.77
   0  -5  16  161.43   46.02
   0  -5  16  273.55   48.61
  -1   5 -16   68.46   24.04
  -1   5 -16  140.73  151.68
   1  -5  16  111.89   29.41
   1  -5  16   82.22   26.16
  -2   5 -16   33.26   17.18
  -2   5 -16   80.30  129.12
   2  -5  16   28.09   21.41
   2  -5  16   17.28   19.42
  -3   5 -16   97.25  126.20
  -3   5 -16   28.28   17.07
   3  -5  16    3.45   18.53
   3  -5  16    8.34   19.55
  -4   5 -16   38.00   19.83
   4  -5  16   40.08   23.32
   4  -5  16   62.01   24.23
  -5   5 -16   54.85   23.42
   5  -5  16   70.56   25.95
   5  -5  16   39.62   26.14
   8   4 -16  -33.63  186.96
   8   4 -16   21.75   16.72
   8   4 -16   78.46   88.38
  -8  -4  16   30.16   25.03
  -8  -4  16   15.20   23.65
   7   4 -16  431.48  258.76
   7   4 -16  208.17   48.88
   7   4 -16  252.77  113.41
  -7  -4  16  217.71   53.38
  -7  -4  16  233.36   51.09
   6   4 -16   48.35  163.03
   6   4 -16   82.61   79.05
   6   4 -16  -22.89   12.04
  -6  -4  16   18.77   20.65
  -6  -4  16   39.19   22.33
   5   4 -16  102.90   75.65
   5   4 -16   19.13   13.51
   5   4 -16   58.32  178.96
  -5  -4  16   22.15   19.97
  -5  -4  16   17.47   19.96
   4   4 -16  -64.35   55.74
   4   4 -16   15.50   12.35
   4   4 -16  -11.23  139.00
  -4  -4  16   26.79   21.89
  -4  -4  16   28.92   19.48
   3   4 -16   43.41   16.35
   3   4 -16  185.62  172.88
   3   4 -16  -29.98   57.15
  -3  -4  16   65.41   23.19
  -3  -4  16   83.29   24.70
  -3  -4  16   31.67   23.22
   2   4 -16   54.95   56.03
   2   4 -16  232.61  188.03
   2   4 -16   33.72   14.28
  -2  -4  16   43.42   20.13
  -2  -4  16   73.09   23.94
  -2  -4  16   -8.40   18.67
   1   4 -16   37.92   15.69
   1   4 -16   50.89   53.59
   1   4 -16   -5.39  154.71
  -1  -4  16   60.81   21.16
  -1  -4  16   34.47   22.31
  -1  -4  16   47.48   21.07
   0   4 -16  453.70  215.89
   0   4 -16  132.67   35.74
   0   4 -16  232.74   73.49
   0  -4  16  130.13   39.41
   0  -4  16  226.80   43.67
   0  -4  16  128.60   38.32
  -1   4 -16  -10.02   11.70
  -1   4 -16   81.43  135.50
   1  -4  16   -9.18   17.06
   1  -4  16   -7.99   16.17
  -2   4 -16   23.78  117.41
  -2   4 -16   11.39   13.44
   2  -4  16   45.90   21.06
   2  -4  16   -5.11   16.82
  -3   4 -16   88.61  160.10
  -3   4 -16    5.51   13.16
   3  -4  16  -13.24   16.83
   3  -4  16  -13.96   16.49
  -4   4 -16  102.40   28.14
   4  -4  16  118.98   33.93
   4  -4  16  113.91   33.84
  -5   4 -16  133.15   33.02
   5  -4  16  146.96   36.96
   5  -4  16  104.10   35.88
   8   3 -16  150.91  101.07
   8   3 -16  182.54  186.70
   8   3 -16   77.59   20.87
  -8  -3  16   77.37   30.99
  -8  -3  16   45.76   27.51
   7   3 -16  -82.16  148.90
   7   3 -16   14.28   12.32
   7   3 -16  109.74   82.45
  -7  -3  16   36.32   22.49
  -7  -3  16   33.04   22.97
   6   3 -16   -7.12   72.22
   6   3 -16   15.22   10.74
   6   3 -16  -28.77  156.10
  -6  -3  16  -12.69   17.14
  -6  -3  16   -2.38   19.29
   5   3 -16   16.32   10.94
   5   3 -16   67.34  159.32
   5   3 -16  116.12   73.22
   5   3 -16    4.10   10.01
  -5  -3  16   10.49   18.61
  -5  -3  16   11.36   18.38
   4   3 -16  276.56   93.71
   4   3 -16  140.61   32.69
   4   3 -16  154.23   32.33
   4   3 -16  453.03  228.74
  -4  -3  16  200.39   41.42
  -4  -3  16  111.50   35.79
   3   3 -16  348.02  226.73
   3   3 -16  168.57   36.13
   3   3 -16  188.91   36.75
   3   3 -16  185.61   87.81
  -3  -3  16  188.21   42.86
  -3  -3  16  133.88   39.45
   2   3 -16   -3.44    8.60
   2   3 -16   -7.44  127.39
   2   3 -16  -11.04    8.04
   2   3 -16   18.38   56.22
  -2  -3  16    8.78   16.49
  -2  -3  16   51.56   22.02
  -2  -3  16  -50.90   14.57
   1   3 -16  124.37   26.72
   1   3 -16  314.27  198.00
   1   3 -16  122.70   27.00
   1   3 -16   56.39   63.25
  -1  -3  16  121.66   31.49
  -1  -3  16  114.25   35.27
  -1  -3  16  144.44   35.47
   0   3 -16   21.41   12.91
   0   3 -16  108.87   56.06
   0   3 -16   72.14  160.61
   0   3 -16   71.71   14.17
   0  -3  16   38.03   22.92
   0  -3  16   55.64   22.16
  -1   3 -16   19.48   10.28
  -1   3 -16   24.34   11.29
  -1   3 -16   54.46  154.50
   1  -3  16   56.88   23.04
   1  -3  16    8.08   18.58
  -2   3 -16   35.22   13.37
  -2   3 -16   16.62  162.64
  -2   3 -16   39.74   13.86
   2  -3  16   52.16   22.21
   2  -3  16   37.28   23.14
  -3   3 -16   61.12   20.72
  -3   3 -16  -31.91  147.34
  -3   3 -16  101.71   21.29
   3  -3  16   95.17   29.97
   3  -3  16  119.59   30.91
  -4   3 -16  157.40   35.26
   4  -3  16  167.58   43.52
   4  -3  16  196.43   43.50
  -5   3 -16   26.95   14.01
   5  -3  16   37.16   21.74
   5  -3  16   41.44   22.95
   8   2 -16   75.63  203.21
   8   2 -16   15.33   88.35
  -8  -2  16  134.47   33.57
  -8  -2  16   71.13   32.33
   7   2 -16  -98.64   70.22
   7   2 -16  121.30  196.75
  -7  -2  16    6.76   19.78
  -7  -2  16   -1.78   19.17
   6   2 -16   34.39   77.12
   6   2 -16  164.84  192.14
  -6  -2  16   56.87   25.01
  -6  -2  16   31.64   22.78
   5   2 -16   64.79  167.01
   5   2 -16  -16.57   66.49
  -5  -2  16   22.27   20.10
  -5  -2  16  -33.88   16.64
   4   2 -16    5.44   66.29
   4   2 -16  352.94  196.17
  -4  -2  16   25.01   19.43
  -4  -2  16   37.51   22.47
   3   2 -16  157.77   89.43
   3   2 -16  388.51  223.32
  -3  -2  16  169.51   42.67
  -3  -2  16  160.96   40.10
   2   2 -16  -73.34   54.81
   2   2 -16  -36.17  135.19
  -2  -2  16  -15.43   17.13
  -2  -2  16    7.50   17.31
   1   2 -16  -65.84   53.56
   1   2 -16  112.13  164.03
  -1  -2  16   11.44   18.63
  -1  -2  16   81.13   21.20
   0   2 -16   -6.17   53.14
   0   2 -16  119.47  169.02
   0  -2  16   58.66   23.67
   0  -2  16   62.73   23.42
  -1   2 -16  -55.30  146.25
   1  -2  16   47.24   22.00
   1  -2  16   70.13   24.18
  -2   2 -16  -48.64  154.31
   2  -2  16   -0.61   19.14
   2  -2  16  -24.26   16.84
  -3   2 -16   49.72  153.11
   3  -2  16   20.97   20.70
   3  -2  16   50.50   21.88
   4  -2  16   23.51   20.91
   4  -2  16    6.51   18.80
   8   1 -16  -36.97  180.06
  -8  -1  16   23.09   22.40
  -8  -1  16   -0.28   20.68
   7   1 -16   -8.66   75.02
   7   1 -16   77.89  190.85
  -7  -1  16   -5.63   18.47
  -7  -1  16  -52.20   19.22
   6   1 -16    5.85  145.70
   6   1 -16 -117.76   66.36
  -6  -1  16   -2.38   18.41
  -6  -1  16   61.99   23.40
   5   1 -16  211.93  100.66
   5   1 -16  114.70  188.43
  -5  -1  16  109.01   31.55
  -5  -1  16  106.14   32.31
   4   1 -16    3.70   79.65
   4   1 -16   77.33  173.56
  -4  -1  16  112.29   33.92
  -4  -1  16  245.63   41.66
   3   1 -16   22.50   66.66
   3   1 -16  -39.31  152.73
  -3  -1  16  -29.93   15.57
  -3  -1  16   24.53   17.48
   2   1 -16  -96.90  171.25
   2   1 -16   16.05   61.08
  -2  -1  16   16.82   19.56
  -2  -1  16   17.73   17.88
   1   1 -16  -88.18  168.84
   1   1 -16   -0.69   60.68
  -1  -1  16  -26.65   16.21
  -1  -1  16   15.15   18.99
   0   1 -16  100.80  219.92
   0   1 -16   54.15   80.70
   0  -1  16  221.35   50.66
   0  -1  16  326.53   50.43
  -1   1 -16   -2.07  184.10
   1  -1  16  208.02   47.97
   1  -1  16  238.94   46.81
  -2   1 -16   98.15  168.68
   2  -1  16   -8.41   17.10
   2  -1  16   18.19   19.47
  -3   1 -16   14.69  147.39
   3  -1  16   28.79   22.41
   3  -1  16   64.72   25.72
   4  -1  16   12.69   21.39
   7   0 -16   42.96   96.19
   7   0 -16  190.05  235.75
  -7   0  16  144.33   38.07
  -7   0  16  157.11   41.43
   6   0 -16 -101.23  172.64
   6   0 -16   56.23   90.19
  -6   0  16   48.07   23.25
  -6   0  16   26.99   24.08
   5   0 -16  220.58  235.66
   5   0 -16  168.73   86.31
  -5   0  16   64.30   25.25
  -5   0  16   26.41   23.38
   4   0 -16  145.94  211.46
   4   0 -16  167.02   89.89
  -4   0  16   95.96   33.25
  -4   0  16  148.92   33.42
   3   0 -16  -36.28   62.50
   3   0 -16   27.97  202.24
  -3   0  16  -35.65   16.75
  -3   0  16    4.38   19.57
   2   0 -16  112.24   73.14
   2   0 -16  114.61  195.28
  -2   0  16  -17.47   17.55
  -2   0  16    1.99   19.26
   1   0 -16 -119.19   48.13
   1   0 -16   17.37  204.86
  -1   0  16   -1.19   17.84
  -1   0  16  -27.81   17.03
   0   0 -16  159.60   73.46
   0   0 -16   25.57  181.98
   0   0  16   85.90   25.06
   0   0  16   36.50   24.78
  -1   0 -16  -87.63  157.83
   1   0  16   63.40   24.41
   1   0  16   41.74   22.93
  -2   0 -16  -10.23  153.96
   2   0  16  -28.80   17.90
   2   0  16    5.71   19.31
   3   0  16  -16.09   17.44
   3   0  16   15.68   20.27
   6  -1 -16  -21.01   91.27
   6  -1 -16  149.73  217.29
  -6   1  16   25.96   20.53
  -6   1  16    9.16   20.72
   5  -1 -16  -31.53   63.79
   5  -1 -16   10.13  199.00
  -5   1  16  -20.00   17.87
  -5   1  16  -14.37   18.89
   4  -1 -16  -56.52   71.94
   4  -1 -16  -58.23  182.32
  -4   1  16    7.84   18.31
  -4   1  16   31.64   21.33
   3  -1 -16  -54.38  203.47
   3  -1 -16   79.88   84.23
  -3   1  16  104.37   25.81
  -3   1  16   15.38   20.76
   2  -1 -16   49.80  176.37
   2  -1 -16  -32.58   65.58
  -2   1  16   32.92   22.10
  -2   1  16   42.01   20.94
   1  -1 -16  238.77  116.54
   1  -1 -16   48.51  253.29
  -1   1  16  362.54   73.14
  -1   1  16  443.71   71.55
   0  -1 -16   56.29   68.39
   0  -1 -16 -104.60  171.86
   0   1  16  130.23   34.92
   0   1  16  182.61   35.51
  -1  -1 -16   36.39  170.66
   1   1  16    6.55   19.25
   1   1  16   -1.12   18.74
  -2  -1 -16  -40.48  154.69
   2   1  16   53.60   22.91
   5  -2 -16   33.37   89.64
   5  -2 -16   85.14  229.92
  -5   2  16   81.39   25.05
  -5   2  16   24.20   22.64
   4  -2 -16   40.23  240.60
   4  -2 -16  -17.65   77.23
  -4   2  16   61.45   23.50
  -4   2  16   37.33   24.26
   3  -2 -16  253.18  250.23
   3  -2 -16   88.09   87.22
  -3   2  16   67.28   29.02
  -3   2  16  128.71   32.05
   2  -2 -16  117.53   78.62
   2  -2 -16   52.25  183.03
  -2   2  16   -5.59   18.84
  -2   2  16   33.94   22.79
   1  -2 -16  133.70   77.78
   1  -2 -16   96.95  204.56
  -1   2  16   62.05   26.33
   0  -2 -16   97.44   76.76
   0  -2 -16    8.50  169.35
   0   2  16   21.37   22.08
  -2 -11  17    7.34   18.60
  -2 -11  17    8.15   19.45
   1  11 -17   -2.22   23.07
  -1 -11  17    9.42   24.86
  -1 -11  17   25.55   19.92
  -1 -11  17    3.42   19.44
   0  11 -17  139.82   34.90
   0 -11  17   68.48   31.70
   0 -11  17   80.88   28.38
   0 -11  17   50.97   27.63
  -1  11 -17  185.00   47.93
   1 -11  17  152.70   49.48
   1 -11  17  182.12   43.32
   1 -11  17  194.70   45.37
   2 -11  17  -21.46   18.37
   3  10 -17   23.94   22.46
  -3 -10  17   -4.58   19.45
  -3 -10  17   36.35   25.32
  -3 -10  17  -22.32   16.28
   2  10 -17   47.76   25.68
  -2 -10  17   57.62   27.79
  -2 -10  17  102.20   26.48
  -2 -10  17   48.48   24.02
   1  10 -17   11.31   20.10
  -1 -10  17  -17.22   18.24
  -1 -10  17   18.99   18.85
  -1 -10  17    9.81   22.38
   0  10 -17  147.44   44.72
   0 -10  17  180.97   42.65
   0 -10  17  167.11   50.92
   0 -10  17  231.51   45.92
  -1  10 -17  102.85   38.02
   1 -10  17  168.78   38.77
   1 -10  17  175.80   40.46
   1 -10  17  161.23   44.74
  -2  10 -17  -37.03   17.22
   2 -10  17  -35.23   15.30
   2 -10  17   39.37   21.33
   2 -10  17  -13.69   21.40
  -3  10 -17   15.16   22.93
   3 -10  17    1.85   21.22
   3 -10  17   -0.46   21.10
  -5  -9  17   44.75   24.98
   4   9 -17  -17.02   19.12
  -4  -9  17   10.05   19.67
  -4  -9  17   16.74   23.97
  -4  -9  17   -7.46   17.83
   3   9 -17   16.38   23.03
  -3  -9  17   54.36   23.85
  -3  -9  17   95.71   29.12
  -3  -9  17   29.69   21.89
   2   9 -17    4.92   19.83
  -2  -9  17   -6.30   17.86
  -2  -9  17   34.89   22.50
  -2  -9  17   16.43   19.63
   1   9 -17  -24.38   17.40
  -1  -9  17  -22.00   15.10
  -1  -9  17   61.51   22.38
  -1  -9  17   18.63   20.07
   0   9 -17   93.86   29.52
   0  -9  17  101.69   33.35
   0  -9  17   92.46   29.30
   0  -9  17   47.11   24.39
  -1   9 -17    4.01   19.69
   1  -9  17   -7.49   17.08
   1  -9  17  -30.96   18.75
   1  -9  17   -1.09   14.80
  -2   9 -17   11.55   22.89
   2  -9  17   49.93   23.20
   2  -9  17   12.10   20.20
   2  -9  17   34.43   24.44
  -3   9 -17   16.64   20.77
   3  -9  17  -21.98   16.60
   3  -9  17  -19.25   20.07
   4  -9  17  212.68   52.28
   4  -9  17  259.00   56.95
   5   8 -17   21.13   25.39
  -5  -8  17   74.81   26.24
  -5  -8  17   62.98   31.25
  -5  -8  17   49.26   24.32
   4   8 -17   46.45   20.87
  -4  -8  17   38.66   22.34
  -4  -8  17    4.68   21.10
  -4  -8  17   -9.62   19.26
   3   8 -17  211.71   55.47
  -3  -8  17  247.38   55.56
  -3  -8  17  230.70   61.48
  -3  -8  17  307.87   55.46
   2   8 -17   66.49   29.96
  -2  -8  17  111.57   32.81
  -2  -8  17  103.13   30.00
  -2  -8  17   97.21   31.74
   1   8 -17   31.83   21.42
  -1  -8  17   79.05   24.88
  -1  -8  17   27.50   19.81
  -1  -8  17   34.02   19.51
   0   8 -17   48.89   21.78
   0  -8  17  -24.37   18.72
   0  -8  17   29.29   20.67
   0  -8  17   76.25   24.67
  -1   8 -17   -7.47   17.69
   1  -8  17    5.67   16.93
   1  -8  17   11.87   20.82
   1  -8  17  -46.10   15.65
  -2   8 -17   23.86   20.84
   2  -8  17   31.15   21.41
   2  -8  17   48.57   24.25
  -3   8 -17   20.65   20.62
   3  -8  17    6.94   17.47
   3  -8  17    2.66   19.20
  -4   8 -17  174.76   45.23
   4  -8  17  181.33   47.06
   4  -8  17  190.24   44.91
   6   7 -17   13.65   20.88
  -6  -7  17   42.47   30.27
  -6  -7  17    7.05   21.37
  -6  -7  17   44.06   23.94
   5   7 -17   -4.98   18.04
  -5  -7  17   24.00   19.98
  -5  -7  17   33.20   26.04
  -5  -7  17  -26.06   18.92
   4   7 -17   52.94   21.41
  -4  -7  17   28.83   24.94
  -4  -7  17   -1.14   17.59
  -4  -7  17  -27.82   17.39
   3   7 -17  -15.05   17.17
  -3  -7  17    8.62   19.59
  -3  -7  17   20.28   20.01
  -3  -7  17   13.95   20.05
   2   7 -17   -2.77   15.63
  -2  -7  17  -23.65   16.98
  -2  -7  17   34.87   21.23
  -2  -7  17   11.29   19.33
   1   7 -17   44.90   19.20
  -1  -7  17    2.49   17.24
  -1  -7  17  -25.21   17.36
  -1  -7  17   22.01   18.92
   0   7 -17   16.25   17.73
   0  -7  17   -6.01   16.64
   0  -7  17   17.42   19.71
   0  -7  17   40.13   21.06
  -1   7 -17   53.80   23.95
   1  -7  17   59.15   25.30
   1  -7  17   96.34   27.29
  -2   7 -17   39.42  158.39
  -2   7 -17   -1.90   17.80
   2  -7  17   19.47   20.53
   2  -7  17   -0.23   17.99
  -3   7 -17  120.13   37.41
   3  -7  17  207.43   43.10
   3  -7  17  141.37   37.87
  -4   7 -17   29.22   19.96
   4  -7  17    5.36   18.29
   4  -7  17   -8.50   19.62
   6   6 -17  109.91   28.44
   6   6 -17  171.49   86.63
  -6  -6  17   12.16   33.38
  -6  -6  17   73.36   29.34
  -6  -6  17  112.93   32.83
   5   6 -17   84.23   67.34
   5   6 -17   26.96   18.87
  -5  -6  17    2.73   20.52
  -5  -6  17   42.93   22.23
  -5  -6  17    5.12   24.90
   4   6 -17  243.07  102.57
   4   6 -17  295.47   59.05
  -4  -6  17  266.21   67.36
  -4  -6  17  237.19   59.07
   3   6 -17  128.04   30.56
   3   6 -17  113.32   69.84
  -3  -6  17  150.72   33.41
  -3  -6  17   97.15   29.69
  -3  -6  17   73.60   33.28
   2   6 -17   23.76   50.44
   2   6 -17    7.74   16.24
  -2  -6  17   55.89   21.54
  -2  -6  17   17.31   21.26
  -2  -6  17   13.66   19.10
   1   6 -17   11.09   16.38
   1   6 -17  -19.22   41.79
  -1  -6  17   27.62   17.84
  -1  -6  17   29.58   22.56
  -1  -6  17   27.65   18.69
   0   6 -17  227.22  205.04
   0   6 -17  189.15   36.17
   0  -6  17  165.62   39.06
   0  -6  17   88.45   34.99
   0  -6  17  100.90   33.65
  -1   6 -17  659.36  257.27
  -1   6 -17  229.11   56.68
   1  -6  17  265.42   60.17
   1  -6  17  273.62   56.59
  -2   6 -17    5.96   16.62
  -2   6 -17  -99.54  124.50
   2  -6  17    4.36   16.45
   2  -6  17   -9.74   17.36
  -3   6 -17   72.12   25.12
   3  -6  17   92.67   27.97
   3  -6  17   46.96   25.30
  -4   6 -17   40.29   19.80
   4  -6  17   35.46   22.76
   4  -6  17    8.09   21.62
   7   5 -17   98.12   89.22
  -7  -5  17   91.71   30.58
  -7  -5  17   76.56   33.46
   6   5 -17    8.96   16.54
   6   5 -17  -98.71   63.55
  -6  -5  17    9.75   22.47
  -6  -5  17   29.00   21.29
  -6  -5  17  -31.59   21.20
   5   5 -17  -12.34   66.94
   5   5 -17   12.55   15.20
  -5  -5  17   39.75   23.49
  -5  -5  17   -1.01   25.29
  -5  -5  17   11.69   20.93
   4   5 -17  -43.38   60.81
   4   5 -17   39.77  188.22
   4   5 -17   16.26   15.49
  -4  -5  17   46.47   25.13
  -4  -5  17   21.76   19.49
  -4  -5  17   34.77   23.75
   3   5 -17  -74.31  168.67
   3   5 -17   12.73   14.30
   3   5 -17  -44.41   54.87
  -3  -5  17    9.54   19.81
  -3  -5  17   27.81   22.82
  -3  -5  17   41.65   20.85
   2   5 -17   18.96   14.26
   2   5 -17   46.98   59.55
   2   5 -17   -0.12  169.38
  -2  -5  17   -2.63   19.23
  -2  -5  17  -16.59   16.40
  -2  -5  17   11.47   19.23
   1   5 -17   73.94   59.56
   1   5 -17   39.23   16.95
   1   5 -17  122.48  172.16
  -1  -5  17   94.58   24.28
  -1  -5  17    1.11   19.51
  -1  -5  17   43.52   21.24
   0   5 -17  153.53   30.74
   0   5 -17  422.27  214.07
   0   5 -17   68.50   59.86
   0  -5  17  117.13   34.25
   0  -5  17   76.93   31.69
  -1   5 -17   61.29  150.54
  -1   5 -17   10.98   14.55
   1  -5  17   -9.22   18.93
   1  -5  17   21.80   19.09
  -2   5 -17   26.56   17.36
  -2   5 -17   88.32  147.97
   2  -5  17   62.56   24.77
   2  -5  17   21.03   21.37
  -3   5 -17   14.30   15.92
   3  -5  17   47.34   23.50
   3  -5  17    4.94   18.81
  -4   5 -17   46.42   21.68
   4  -5  17   74.24   27.09
   4  -5  17   48.85   26.30
   7   4 -17  325.85  237.06
   7   4 -17   86.33  100.91
  -7  -4  17  208.42   47.90
  -7  -4  17  202.79   51.93
   6   4 -17    5.88   12.87
   6   4 -17   34.00  181.56
   6   4 -17 -169.27   54.01
  -6  -4  17   18.75   20.76
  -6  -4  17  -18.99   21.07
   5   4 -17  123.19   86.01
   5   4 -17   61.54   21.78
   5   4 -17  178.97  211.40
  -5  -4  17   98.20   29.52
  -5  -4  17  123.94   32.29
   4   4 -17  -21.99   67.67
   4   4 -17  159.53  174.62
   4   4 -17   -2.48   11.27
  -4  -4  17  -20.52   21.91
  -4  -4  17  -29.85   16.74
  -4  -4  17  -22.34   14.34
   3   4 -17  157.49   72.95
   3   4 -17   66.53   20.26
   3   4 -17  212.69  196.87
  -3  -4  17  101.59   27.90
  -3  -4  17   66.12   26.27
  -3  -4  17   57.39   28.59
   2   4 -17   57.56   17.90
   2   4 -17   54.44  181.04
   2   4 -17  151.71   71.71
  -2  -4  17   41.64   24.50
  -2  -4  17   52.69   23.34
  -2  -4  17   74.31   26.93
   1   4 -17   78.74   63.95
   1   4 -17  239.21  176.62
   1   4 -17   90.07   24.40
  -1  -4  17  109.75   31.39
  -1  -4  17   91.50   29.84
  -1  -4  17  120.35   30.19
   0   4 -17  284.84   95.42
   0   4 -17  255.42   52.64
   0   4 -17  550.57  253.37
   0  -4  17  205.88   54.07
   0  -4  17  267.92   58.69
  -1   4 -17   38.76  142.75
  -1   4 -17  -20.28   10.09
   1  -4  17    8.53   22.56
   1  -4  17   29.32   19.68
  -2   4 -17    5.61   12.96
  -2   4 -17 -121.87  153.18
   2  -4  17    8.31   18.23
   2  -4  17   -6.70   20.50
  -3   4 -17  -11.70   12.63
   3  -4  17   -9.96   18.44
   3  -4  17  -49.42   16.66
  -4   4 -17  115.99   28.78
   4  -4  17   90.10   34.24
   4  -4  17  131.89   35.38
   7   3 -17  -51.12  183.62
   7   3 -17  -81.80   75.98
  -7  -3  17   59.20   25.61
  -7  -3  17   -5.83   20.50
   6   3 -17  -43.88  165.11
   6   3 -17  -56.19   72.66
  -6  -3  17   32.27   23.06
  -6  -3  17   14.54   20.27
   5   3 -17   34.40  178.32
   5   3 -17  -63.06   64.88
  -5  -3  17   10.25   21.28
  -5  -3  17    2.47   20.41
   4   3 -17  153.19  195.80
   4   3 -17  -76.29   64.03
  -4  -3  17   20.00   22.48
  -4  -3  17   40.94   20.37
   3   3 -17  134.09  171.12
   3   3 -17  141.03   77.96
  -3  -3  17   55.51   25.43
  -3  -3  17   -1.25   23.48
  -3  -3  17   97.31   25.07
   2   3 -17 -119.79  137.25
   2   3 -17    6.79   58.93
  -2  -3  17   18.65   18.16
  -2  -3  17   -0.07   19.23
  -2  -3  17  -18.39   18.35
   1   3 -17   56.23   59.83
   1   3 -17  -30.50  142.85
  -1  -3  17   -1.21   18.35
  -1  -3  17  -28.94   16.48
   0   3 -17    5.87  167.42
   0   3 -17   64.29   57.35
   0  -3  17   31.60   20.73
   0  -3  17   -7.67   18.36
  -1   3 -17  -54.38  168.12
   1  -3  17   98.57   27.99
   1  -3  17   65.03   27.92
  -2   3 -17  -63.12  164.33
   2  -3  17   29.70   20.80
   2  -3  17   14.62   21.12
   3  -3  17  238.31   48.37
   3  -3  17  160.90   47.68
   7   2 -17  -18.86  160.07
   6   2 -17   30.88   85.79
   6   2 -17   82.71  188.60
  -6  -2  17   84.57   29.16
  -6  -2  17   68.15   28.17
   5   2 -17  -47.39   67.51
   5   2 -17  -59.10  141.67
  -5  -2  17   20.36   21.08
  -5  -2  17   -9.45   18.68
   4   2 -17   93.88   85.72
   4   2 -17  191.59  194.73
  -4  -2  17  121.52   33.56
  -4  -2  17  139.43   36.47
   3   2 -17   12.98   67.76
   3   2 -17   89.44  164.37
  -3  -2  17   97.04   27.78
  -3  -2  17   25.28   22.73
   2   2 -17   11.97  148.42
   2   2 -17   86.60   69.22
  -2  -2  17    9.91   20.29
  -2  -2  17  -38.31   17.28
   1   2 -17  -63.90  146.56
   1   2 -17   36.42   59.07
  -1  -2  17   11.06   18.60
  -1  -2  17   -2.21   17.06
   0   2 -17  -19.18   51.51
   0   2 -17   -8.56  178.10
   0  -2  17    3.59   21.00
   0  -2  17   39.96   20.17
  -1   2 -17   40.90  198.20
   1  -2  17  246.77   47.58
   1  -2  17  149.87   42.85
  -2   2 -17 -156.95  155.25
   2  -2  17   19.34   21.41
   2  -2  17   34.32   23.07
   3  -2  17   39.71   22.30
   3  -2  17  -21.81   20.93
   6   1 -17    2.75  182.33
   6   1 -17  -67.96   74.56
  -6  -1  17   34.31   24.05
  -6  -1  17   10.30   22.40
   5   1 -17   -5.97  190.53
   5   1 -17  -62.90   68.41
  -5  -1  17   -5.52   19.30
  -5  -1  17   51.83   24.56
   4   1 -17  -50.68   69.95
   4   1 -17   19.06  199.02
  -4  -1  17   40.92   24.68
  -4  -1  17  109.79   28.37
   3   1 -17  130.77   85.76
   3   1 -17  -17.03  175.80
  -3  -1  17   17.96   20.66
  -3  -1  17  -14.90   18.77
   2   1 -17  -84.43  183.81
   2   1 -17  -22.47   62.86
  -2  -1  17  -18.33   17.92
  -2  -1  17   18.05   22.24
   1   1 -17    4.44   66.80
   1   1 -17 -273.72  167.52
  -1  -1  17    6.98   20.78
  -1  -1  17   38.78   21.30
   0   1 -17  -41.53  194.30
   0   1 -17  127.39   74.71
   0  -1  17  151.54   34.98
   0  -1  17  115.29   34.25
  -1   1 -17  -40.50  189.43
   1  -1  17   50.72   26.73
   1  -1  17   73.28   27.48
  -2   1 -17   31.25  178.41
   2  -1  17   18.55   21.62
   2  -1  17   23.14   21.33
   5   0 -17  215.35  108.44
   5   0 -17  215.91  276.64
  -5   0  17  186.84   43.84
  -5   0  17  159.79   45.27
   4   0 -17  -75.80  207.85
   4   0 -17   65.40   89.24
  -4   0  17    7.94   21.58
  -4   0  17  119.61   27.65
   3   0 -17  -27.02  214.46
   3   0 -17 -142.34   62.80
  -3   0  17   30.23   20.88
  -3   0  17   -3.42   19.35
   2   0 -17  -25.26  193.74
   2   0 -17  -73.56   63.23
  -2   0  17   -6.14   19.34
  -2   0  17   26.83   21.91
   1   0 -17  -31.87   65.94
   1   0 -17 -130.63  180.70
  -1   0  17  -29.23   18.46
  -1   0  17   21.11   20.54
   0   0 -17   49.32   75.82
   0   0 -17  147.43  216.65
   0   0  17   78.11   32.01
   0   0  17  134.71   32.68
  -1   0 -17   22.02  185.56
   3  -1 -17   -8.21   78.86
   3  -1 -17  -56.92  226.20
  -3   1  17  -22.73   17.96
   2  -1 -17 -222.20  172.92
   2  -1 -17   18.61   74.16
  -2   1  17   21.43   20.86
  -3  -9  18   63.38   28.16
   2   9 -18  -16.50   19.94
  -2  -9  18   33.30   22.79
  -2  -9  18   35.14   23.02
  -2  -9  18   55.89   24.69
   1   9 -18   42.83   23.76
  -1  -9  18   36.51   24.63
  -1  -9  18   38.77   23.15
  -1  -9  18   27.65   24.12
   0   9 -18   84.37   25.41
   0  -9  18   71.04   24.06
   0  -9  18  -23.29   17.74
   0  -9  18  -15.36   20.83
  -1   9 -18  -23.68   19.31
   1  -9  18   24.09   21.88
   1  -9  18   -1.66   18.39
   1  -9  18  -44.81   16.48
  -4  -8  18   -3.48   19.50
  -4  -8  18   16.41   21.38
   3   8 -18   86.76   30.62
  -3  -8  18   56.91   30.68
  -3  -8  18  139.73   36.14
  -3  -8  18  101.83   30.61
   2   8 -18  -45.43   15.13
  -2  -8  18  -36.10   17.73
  -2  -8  18   -6.07   19.31
  -2  -8  18    6.77   21.75
   1   8 -18   54.77   25.02
  -1  -8  18   78.13   26.94
  -1  -8  18   24.47   25.16
  -1  -8  18  110.35   29.30
   0   8 -18   48.30   24.22
   0  -8  18   32.91   24.16
   0  -8  18   97.33   29.29
   0  -8  18   81.14   28.10
  -1   8 -18   88.86   26.81
   1  -8  18   78.35   24.55
   1  -8  18    2.75   23.66
  -2   8 -18  243.63  210.21
  -2   8 -18   46.71   27.83
   2  -8  18  116.02   30.95
   2  -8  18   67.55   28.29
   4   7 -18  107.75   34.25
  -4  -7  18  141.20   42.20
  -4  -7  18  148.72   35.93
  -4  -7  18  108.36   36.38
   3   7 -18   83.26   26.34
  -3  -7  18   75.20   27.77
  -3  -7  18   69.89   29.01
  -3  -7  18   59.74   28.00
   2   7 -18   24.38   18.85
  -2  -7  18   16.82   17.66
  -2  -7  18  -20.85   17.58
  -2  -7  18  -19.19   17.23
   1   7 -18   31.97   20.63
  -1  -7  18   73.62   23.41
  -1  -7  18    5.52   19.64
  -1  -7  18   25.70   23.84
   0   7 -18   19.43   18.44
   0   7 -18 -142.48  164.37
   0  -7  18    4.96   21.63
   0  -7  18    0.60   19.16
   0  -7  18   35.38   21.87
  -1   7 -18  -39.19  167.99
  -1   7 -18   98.40   26.12
   1  -7  18   45.51   27.01
   1  -7  18   70.15   27.79
  -2   7 -18   13.40  155.72
  -2   7 -18   10.77   18.77
   2  -7  18   11.52   21.40
   2  -7  18   26.64   24.60
   5   6 -18  100.71   25.81
  -5  -6  18   23.31   30.62
  -5  -6  18   77.74   28.16
  -5  -6  18   73.94   30.90
   4   6 -18   95.89   30.08
  -4  -6  18  136.28   40.01
  -4  -6  18  140.46   37.64
  -4  -6  18   96.45   32.24
   3   6 -18  -21.28  199.90
   3   6 -18   15.29   16.28
  -3  -6  18  -22.82   17.95
  -3  -6  18  -22.95   19.15
  -3  -6  18   -7.20   20.19
   2   6 -18   34.92  188.83
   2   6 -18   20.53   15.69
  -2  -6  18  -26.74   18.76
  -2  -6  18   23.98   19.76
  -2  -6  18   -9.33   17.96
   1   6 -18   31.10   16.39
   1   6 -18  -35.35  168.54
  -1  -6  18   12.20   19.29
  -1  -6  18   32.71   22.55
  -1  -6  18    2.09   16.67
   0   6 -18  163.43  193.14
   0   6 -18  128.55   29.65
   0  -6  18  100.04   32.81
   0  -6  18   68.95   29.44
  -1   6 -18  132.76   36.34
  -1   6 -18  316.94  217.15
   1  -6  18  164.79   40.64
   1  -6  18  136.54   38.28
  -2   6 -18  122.29  170.36
  -2   6 -18   -0.18   16.98
   2  -6  18  -12.08   20.10
   2  -6  18    4.83   20.51
   5   5 -18 -138.47  169.73
   5   5 -18   75.02   71.89
   5   5 -18    8.74   14.32
  -5  -5  18   45.85   26.51
  -5  -5  18  -14.64   18.75
  -5  -5  18  -11.06   25.76
   4   5 -18  208.06  203.01
   4   5 -18  137.93   74.98
   4   5 -18   19.05   15.62
  -4  -5  18   -1.72   22.94
  -4  -5  18   71.13   27.83
  -4  -5  18   37.58   23.87
   3   5 -18   -1.13   12.48
   3   5 -18   13.02   63.51
   3   5 -18  -88.37  175.44
  -3  -5  18   -4.38   18.82
  -3  -5  18  -16.86   17.14
  -3  -5  18   22.32   21.23
   2   5 -18   55.38   61.84
   2   5 -18  248.27  209.23
   2   5 -18   35.48   15.54
  -2  -5  18   19.29   22.18
  -2  -5  18   34.70   21.41
  -2  -5  18   12.53   21.33
   1   5 -18   32.30   15.89
   1   5 -18  -18.19   49.16
   1   5 -18  229.95  211.04
  -1  -5  18   22.21   23.19
  -1  -5  18   25.51   22.87
   0   5 -18   94.71   25.47
   0   5 -18  139.37  190.58
   0  -5  18   76.75   29.87
   0  -5  18  113.89   31.15
  -1   5 -18   36.49   17.91
  -1   5 -18  102.97  172.27
   1  -5  18   29.27   22.36
   1  -5  18   69.10   26.44
  -2   5 -18  127.13  175.64
  -2   5 -18   -9.03   13.25
   2  -5  18   31.31   22.64
   2  -5  18   11.14   21.65
   5   4 -18   56.36   76.05
   5   4 -18  -12.01  188.17
   5   4 -18   15.53   10.92
  -5  -4  18   24.84   24.28
  -5  -4  18  -20.01   24.93
  -5  -4  18   37.71   22.16
   4   4 -18    4.10  175.40
   4   4 -18   39.71   15.76
   4   4 -18   24.68   72.69
   4   4 -18   74.29   17.50
  -4  -4  18   58.47   30.94
  -4  -4  18  104.50   28.95
  -4  -4  18   94.32   30.12
   3   4 -18  102.45   23.44
   3   4 -18  215.73  225.89
   3   4 -18  105.91   23.46
   3   4 -18  146.17   82.03
  -3  -4  18   91.41   32.73
  -3  -4  18   67.68   33.41
  -3  -4  18  109.57   32.09
   2   4 -18  -18.61   60.45
   2   4 -18  102.21  177.31
   2   4 -18    5.98    9.69
   2   4 -18   21.68    9.99
  -2  -4  18    8.01   19.63
  -2  -4  18   -9.21   17.89
  -2  -4  18   68.51   25.17
   1   4 -18  190.25  198.52
   1   4 -18   56.92   64.47
   1   4 -18   53.73   16.47
   1   4 -18   82.69   17.24
  -1  -4  18   65.74   28.05
  -1  -4  18   18.81   24.90
   0   4 -18  157.54   32.54
   0   4 -18  184.12   76.07
   0   4 -18  128.50   32.14
   0   4 -18  328.50  219.57
   0  -4  18  200.69   40.29
   0  -4  18  184.05   42.21
  -1   4 -18   12.29   11.45
  -1   4 -18   34.64   11.21
  -1   4 -18  107.56  173.50
   1  -4  18   13.97   21.67
   1  -4  18  -10.58   20.26
  -2   4 -18   67.91  190.21
  -2   4 -18   32.46   14.00
   2  -4  18   46.69   24.48
   2  -4  18   50.31   24.86
   5   3 -18   51.86   82.73
   5   3 -18  -76.25  140.59
  -5  -3  18   74.62   28.66
  -5  -3  18   63.10   26.14
   4   3 -18   48.20   69.50
   4   3 -18   35.77  176.17
  -4  -3  18   21.32   23.69
  -4  -3  18   11.65   20.76
   3   3 -18  289.22  235.22
   3   3 -18  267.52  101.70
  -3  -3  18  185.89   44.81
  -3  -3  18  159.42   47.30
  -3  -3  18  194.44   52.73
   2   3 -18 -113.71  159.51
   2   3 -18  -75.19   58.21
  -2  -3  18   20.85   22.52
  -2  -3  18   -6.67   21.31
   1   3 -18   -5.31   60.43
   1   3 -18    3.22  188.95
  -1  -3  18   -1.02   18.76
  -1  -3  18   26.56   23.96
   0   3 -18   21.83   60.00
   0   3 -18 -152.00  169.28
   0  -3  18   61.86   23.68
   0  -3  18   45.13   25.68
  -1   3 -18  -90.35  172.12
   1  -3  18   42.63   24.02
   1  -3  18  -10.32   20.34
   4   2 -18   96.77  208.60
   4   2 -18  -89.97   72.74
  -4  -2  18  195.46   42.84
  -4  -2  18  210.41   39.63
   3   2 -18   69.71  200.81
   3   2 -18   10.45   74.17
  -3  -2  18    5.83   23.04
  -3  -2  18  -14.24   20.20
   2   2 -18   -0.85   70.51
   2   2 -18 -205.93  159.12
  -2  -2  18   18.69   22.14
  -2  -2  18  -12.37   18.62
   1   2 -18  -98.57  201.18
   1   2 -18   37.66   66.22
  -1  -2  18   -3.29   19.56
  -1  -2  18  -26.15   19.60
   0   2 -18   77.15   70.34
   0   2 -18   54.64  212.54
   0  -2  18   46.00   24.57
   0  -2  18   10.35   23.38
   3   1 -18   78.87  250.75
   2   1 -18  -20.05  220.70
   1   7 -19  -21.64  212.10
   2   6 -19   -4.30  196.02
   1   6 -19 -148.87  168.85
   2   5 -19   61.16  207.94
   1   5 -19  181.98  217.23
   0   0   0    0.00    0.00
;
_shelx_hkl_checksum              17884
#END Tags that were not found in dictionaries
loop_
_space_group_symop_operation_xyz
'x, y, z'
'-x, -y, -z'
loop_
_atom_site_label
_atom_site_type_symbol
_atom_site_fract_x
_atom_site_fract_y
_atom_site_fract_z
_atom_site_U_iso_or_equiv
_atom_site_adp_type
_atom_site_occupancy
_atom_site_site_symmetry_order
_atom_site_calc_flag
_atom_site_refinement_flags_posn
_atom_site_refinement_flags_adp
I1 I 0.28372(6) -0.61021(6) 0.46899(5) 0.0165(2) Uani 1 1 d . .
Cu1 Cu 0.45575(11) -0.40888(11) 0.47052(8) 0.0154(3) Uani 1 1 d . .
Si1 Si 0.6778(2) 0.1178(2) 0.75754(18) 0.0129(6) Uani 1 1 d . .
C1 C 0.8090(9) 0.0825(9) 0.6745(7) 0.017(2) Uani 1 1 d . .
H1A H 0.8243 -0.0044 0.6622 0.025 Uiso 1 1 calc R U
H1B H 0.8944 0.1468 0.7093 0.025 Uiso 1 1 calc R U
H1C H 0.7780 0.0863 0.6081 0.025 Uiso 1 1 calc R U
C11 C 0.5164(9) -0.0032(9) 0.6882(6) 0.015(2) Uani 1 1 d . .
C12 C 0.5177(10) -0.1370(9) 0.6302(7) 0.018(2) Uani 1 1 d . .
H12 H 0.6029 -0.1610 0.6369 0.022 Uiso 1 1 calc R U
N13 N 0.4135(8) -0.2310(8) 0.5681(6) 0.0175(18) Uani 1 1 d . .
C14 C 0.2889(9) -0.1983(8) 0.5582(6) 0.0102(19) Uani 1 1 d . .
C15 C 0.1773(9) -0.2923(9) 0.4920(7) 0.0146(19) Uani 1 1 d . U
H15 H 0.1877 -0.3783 0.4550 0.018 Uiso 1 1 calc R U
C16 C 0.0524(9) -0.2622(9) 0.4794(7) 0.017(2) Uani 1 1 d . .
H16 H -0.0233 -0.3273 0.4343 0.021 Uiso 1 1 calc R U
C17 C 0.0364(9) -0.1344(9) 0.5334(7) 0.018(2) Uani 1 1 d . .
H17 H -0.0504 -0.1145 0.5236 0.022 Uiso 1 1 calc R U
C18 C 0.1420(9) -0.0392(10) 0.5990(7) 0.018(2) Uani 1 1 d . .
H18 H 0.1285 0.0459 0.6347 0.022 Uiso 1 1 calc R U
C19 C 0.2748(9) -0.0674(9) 0.6145(7) 0.017(2) Uani 1 1 d . .
C20 C 0.3896(9) 0.0272(9) 0.6774(7) 0.016(2) Uani 1 1 d . .
H20 H 0.3805 0.1139 0.7134 0.019 Uiso 1 1 calc R U
C21 C 0.7395(9) 0.1117(8) 0.8840(6) 0.0116(19) Uani 1 1 d . .
C22 C 0.6515(9) 0.0645(8) 0.9417(6) 0.0129(19) Uani 1 1 d . U
H22 H 0.5566 0.0377 0.9141 0.015 Uiso 1 1 calc R U
N23 N 0.6910(7) 0.0554(8) 1.0291(6) 0.0173(18) Uani 1 1 d . .
C24 C 0.8271(9) 0.0963(9) 1.0704(7) 0.0132(19) Uani 1 1 d . U
C25 C 0.8713(10) 0.0909(10) 1.1670(7) 0.025(2) Uani 1 1 d . .
H25 H 0.8078 0.0556 1.1996 0.030 Uiso 1 1 calc R U
C26 C 1.0066(10) 0.1369(10) 1.2131(7) 0.025(2) Uani 1 1 d . .
H26 H 1.0356 0.1344 1.2782 0.030 Uiso 1 1 calc R U
C27 C 1.1032(9) 0.1880(10) 1.1645(7) 0.023(2) Uani 1 1 d . .
H27 H 1.1959 0.2204 1.1980 0.027 Uiso 1 1 calc R U
C28 C 1.0648(9) 0.1912(10) 1.0710(7) 0.021(2) Uani 1 1 d . .
H28 H 1.1310 0.2225 1.0381 0.025 Uiso 1 1 calc R U
C29 C 0.9250(9) 0.1474(9) 1.0222(7) 0.015(2) Uani 1 1 d . .
C30 C 0.8766(9) 0.1530(9) 0.9275(7) 0.016(2) Uani 1 1 d . .
H30 H 0.9392 0.1858 0.8929 0.019 Uiso 1 1 calc R U
C31 C 0.6391(9) 0.2801(9) 0.7744(6) 0.014(2) Uani 1 1 d . .
C32 C 0.6028(9) 0.2986(9) 0.6833(7) 0.019(2) Uani 1 1 d . .
H32 H 0.6002 0.2283 0.6192 0.023 Uiso 1 1 calc R U
N33 N 0.5717(8) 0.4055(8) 0.6783(6) 0.0181(18) Uani 1 1 d . .
C34 C 0.5694(9) 0.5043(9) 0.7689(7) 0.014(2) Uani 1 1 d . .
C35 C 0.5278(9) 0.6185(9) 0.7689(8) 0.018(2) Uani 1 1 d . .
H35 H 0.5016 0.6249 0.7049 0.021 Uiso 1 1 calc R U
C36 C 0.5257(10) 0.7181(10) 0.8602(8) 0.025(2) Uani 1 1 d . .
H36 H 0.4930 0.7912 0.8591 0.030 Uiso 1 1 calc R U
C37 C 0.5715(9) 0.7140(10) 0.9561(8) 0.023(2) Uani 1 1 d . .
H37 H 0.5755 0.7865 1.0191 0.027 Uiso 1 1 calc R U
C38 C 0.6099(9) 0.6059(9) 0.9585(7) 0.018(2) Uani 1 1 d . .
H38 H 0.6375 0.6032 1.0238 0.022 Uiso 1 1 calc R U
C39 C 0.6096(9) 0.4983(9) 0.8670(7) 0.018(2) Uani 1 1 d . .
C40 C 0.6441(9) 0.3818(9) 0.8663(7) 0.015(2) Uani 1 1 d . .
H40 H 0.6707 0.3749 0.9300 0.018 Uiso 1 1 calc R U
O1S O 0.2090(10) 0.2808(8) 0.7859(6) 0.052(2) Uani 1 1 d . .
C2S C 0.2091(11) 0.3690(11) 0.7564(8) 0.033(3) Uani 1 1 d . .
H2S H 0.2623 0.3702 0.7048 0.040 Uiso 1 1 calc R U
N3S N 0.1409(9) 0.4633(9) 0.7907(7) 0.032(2) Uani 1 1 d . .
C4S C 0.1482(13) 0.5646(12) 0.7507(10) 0.046(3) Uani 1 1 d . .
H4S1 H 0.2065 0.5486 0.6976 0.068 Uiso 1 1 calc R U
H4S2 H 0.1868 0.6493 0.8077 0.068 Uiso 1 1 calc R U
H4S3 H 0.0564 0.5638 0.7201 0.068 Uiso 1 1 calc R U
C5S C 0.0552(14) 0.4672(13) 0.8666(10) 0.056(4) Uani 1 1 d . .
H5S1 H 0.0584 0.3938 0.8860 0.084 Uiso 1 1 calc R U
H5S2 H -0.0389 0.4620 0.8374 0.084 Uiso 1 1 calc R U
H5S3 H 0.0877 0.5486 0.9283 0.084 Uiso 1 1 calc R U
loop_
_atom_site_aniso_label
_atom_site_aniso_U_11
_atom_site_aniso_U_22
_atom_site_aniso_U_33
_atom_site_aniso_U_23
_atom_site_aniso_U_13
_atom_site_aniso_U_12
I1 0.0151(3) 0.0117(4) 0.0245(4) 0.0097(3) 0.0019(3) 0.0030(3)
Cu1 0.0183(6) 0.0123(7) 0.0182(6) 0.0090(5) 0.0010(5) 0.0049(5)
Si1 0.0174(13) 0.0103(14) 0.0124(12) 0.0060(11) 0.0010(11) 0.0044(11)
C1 0.024(5) 0.013(5) 0.013(4) 0.006(4) 0.000(4) 0.003(4)
C11 0.029(5) 0.012(5) 0.008(4) 0.005(4) 0.005(4) 0.015(4)
C12 0.025(5) 0.016(6) 0.017(5) 0.009(5) 0.002(4) 0.011(5)
N13 0.019(4) 0.018(5) 0.019(4) 0.008(4) 0.006(4) 0.011(4)
C14 0.020(5) 0.007(5) 0.006(4) 0.003(4) 0.002(4) 0.005(4)
C15 0.015(4) 0.008(4) 0.018(4) 0.004(3) 0.000(3) 0.001(3)
C16 0.013(5) 0.019(6) 0.018(5) 0.008(5) 0.001(4) -0.002(4)
C17 0.019(5) 0.025(6) 0.025(5) 0.019(5) 0.009(5) 0.015(5)
C18 0.019(5) 0.017(6) 0.023(5) 0.011(5) 0.007(5) 0.008(5)
C19 0.021(5) 0.011(5) 0.027(5) 0.014(5) 0.013(4) 0.008(4)
C20 0.023(5) 0.013(5) 0.015(4) 0.010(4) 0.004(4) 0.006(4)
C21 0.017(5) 0.005(5) 0.009(4) -0.001(4) 0.002(4) 0.001(4)
C22 0.011(4) 0.008(4) 0.016(3) 0.003(3) -0.001(3) 0.000(3)
N23 0.018(4) 0.018(5) 0.023(4) 0.015(4) 0.006(4) 0.006(4)
C24 0.020(4) 0.008(4) 0.015(3) 0.008(3) 0.008(3) 0.004(3)
C25 0.027(6) 0.033(7) 0.019(5) 0.018(5) -0.002(5) 0.004(5)
C26 0.035(6) 0.033(7) 0.013(5) 0.014(5) 0.003(5) 0.011(5)
C27 0.018(5) 0.028(6) 0.021(5) 0.012(5) -0.008(4) 0.002(5)
C28 0.013(5) 0.026(6) 0.024(5) 0.014(5) -0.002(4) 0.000(5)
C29 0.015(5) 0.015(5) 0.014(4) 0.007(4) -0.001(4) 0.002(4)
C30 0.021(5) 0.018(6) 0.012(4) 0.008(4) 0.006(4) 0.008(4)
C31 0.016(5) 0.013(5) 0.010(4) 0.006(4) -0.006(4) 0.000(4)
C32 0.027(5) 0.014(6) 0.024(5) 0.013(5) 0.006(5) 0.010(5)
N33 0.027(4) 0.014(5) 0.020(4) 0.010(4) 0.005(4) 0.012(4)
C34 0.012(5) 0.010(5) 0.019(5) 0.006(4) 0.003(4) -0.003(4)
C35 0.014(5) 0.015(6) 0.033(5) 0.016(5) 0.010(4) 0.007(4)
C36 0.028(6) 0.017(6) 0.038(6) 0.014(5) 0.012(5) 0.010(5)
C37 0.025(5) 0.008(6) 0.030(5) 0.002(5) 0.012(5) 0.004(5)
C38 0.028(5) 0.009(5) 0.016(5) 0.001(4) 0.006(4) 0.008(5)
C39 0.018(5) 0.021(6) 0.023(5) 0.014(5) 0.014(4) 0.009(5)
C40 0.016(5) 0.019(6) 0.014(5) 0.013(5) -0.002(4) 0.000(4)
O1S 0.092(7) 0.033(5) 0.030(4) 0.007(4) 0.002(5) 0.028(5)
C2S 0.039(7) 0.024(7) 0.027(6) 0.001(5) -0.001(5) 0.008(6)
N3S 0.034(5) 0.020(6) 0.035(5) 0.005(5) 0.009(5) 0.004(5)
C4S 0.054(8) 0.032(8) 0.061(8) 0.022(7) 0.027(7) 0.020(7)
C5S 0.071(10) 0.044(9) 0.057(8) 0.019(8) 0.031(8) 0.017(8)
loop_
_atom_type_symbol
_atom_type_description
_atom_type_scat_dispersion_real
_atom_type_scat_dispersion_imag
_atom_type_scat_source
C C 0.0033 0.0016 'International Tables Vol C Tables 4.2.6.8 and 6.1.1.4'
H H 0.0000 0.0000 'International Tables Vol C Tables 4.2.6.8 and 6.1.1.4'
N N 0.0061 0.0033 'International Tables Vol C Tables 4.2.6.8 and 6.1.1.4'
O O 0.0106 0.0060 'International Tables Vol C Tables 4.2.6.8 and 6.1.1.4'
Si Si 0.0817 0.0704 'International Tables Vol C Tables 4.2.6.8 and 6.1.1.4'
Cu Cu 0.3201 1.2651 'International Tables Vol C Tables 4.2.6.8 and 6.1.1.4'
I I -0.4742 1.8119 'International Tables Vol C Tables 4.2.6.8 and 6.1.1.4'
loop_
_geom_angle_atom_site_label_1
_geom_angle_atom_site_label_2
_geom_angle_atom_site_label_3
_geom_angle
_geom_angle_site_symmetry_1
_geom_angle_site_symmetry_3
Cu1 I1 Cu1 63.05(4) 2_646 .
N33 Cu1 N13 103.8(3) 2_656 .
N33 Cu1 I1 108.8(2) 2_656 2_646
N13 Cu1 I1 105.0(2) . 2_646
N33 Cu1 I1 109.4(2) 2_656 .
N13 Cu1 I1 112.0(2) . .
I1 Cu1 I1 116.95(4) 2_646 .
N33 Cu1 Cu1 128.8(2) 2_656 2_646
N13 Cu1 Cu1 127.25(17) . 2_646
I1 Cu1 Cu1 58.63(4) 2_646 2_646
I1 Cu1 Cu1 58.32(4) . 2_646
C1 Si1 C11 108.4(4) . .
C1 Si1 C21 108.8(4) . .
C11 Si1 C21 111.9(3) . .
C1 Si1 C31 109.8(4) . .
C11 Si1 C31 105.6(4) . .
C21 Si1 C31 112.3(4) . .
Si1 C1 H1A 109.5 . .
Si1 C1 H1B 109.5 . .
H1A C1 H1B 109.5 . .
Si1 C1 H1C 109.5 . .
H1A C1 H1C 109.5 . .
H1B C1 H1C 109.5 . .
C20 C11 C12 114.4(9) . .
C20 C11 Si1 124.5(7) . .
C12 C11 Si1 120.8(6) . .
N13 C12 C11 127.5(8) . .
N13 C12 H12 116.3 . .
C11 C12 H12 116.3 . .
C12 N13 C14 117.1(8) . .
C12 N13 Cu1 118.2(6) . .
C14 N13 Cu1 123.7(7) . .
N13 C14 C15 119.4(8) . .
N13 C14 C19 120.3(8) . .
C15 C14 C19 120.3(8) . .
C16 C15 C14 120.7(9) . .
C16 C15 H15 119.6 . .
C14 C15 H15 119.6 . .
C15 C16 C17 120.0(9) . .
C15 C16 H16 120.0 . .
C17 C16 H16 120.0 . .
C18 C17 C16 121.6(8) . .
C18 C17 H17 119.2 . .
C16 C17 H17 119.2 . .
C17 C18 C19 120.0(9) . .
C17 C18 H18 120.0 . .
C19 C18 H18 120.0 . .
C20 C19 C14 119.5(8) . .
C20 C19 C18 123.0(9) . .
C14 C19 C18 117.4(9) . .
C11 C20 C19 121.2(9) . .
C11 C20 H20 119.4 . .
C19 C20 H20 119.4 . .
C30 C21 C22 115.9(7) . .
C30 C21 Si1 120.5(6) . .
C22 C21 Si1 123.6(6) . .
N23 C22 C21 125.5(8) . .
N23 C22 H22 117.3 . .
C21 C22 H22 117.3 . .
C22 N23 C24 117.5(7) . .
N23 C24 C25 118.2(7) . .
N23 C24 C29 122.7(7) . .
C25 C24 C29 119.0(8) . .
C26 C25 C24 119.8(8) . .
C26 C25 H25 120.1 . .
C24 C25 H25 120.1 . .
C25 C26 C27 120.8(7) . .
C25 C26 H26 119.6 . .
C27 C26 H26 119.6 . .
C28 C27 C26 120.7(8) . .
C28 C27 H27 119.6 . .
C26 C27 H27 119.6 . .
C27 C28 C29 120.0(8) . .
C27 C28 H28 120.0 . .
C29 C28 H28 120.0 . .
C30 C29 C24 117.2(8) . .
C30 C29 C28 123.2(7) . .
C24 C29 C28 119.6(7) . .
C21 C30 C29 121.2(7) . .
C21 C30 H30 119.4 . .
C29 C30 H30 119.4 . .
C40 C31 C32 116.8(7) . .
C40 C31 Si1 126.4(5) . .
C32 C31 Si1 116.8(7) . .
N33 C32 C31 126.1(9) . .
N33 C32 H32 116.9 . .
C31 C32 H32 116.9 . .
C32 N33 C34 117.5(7) . .
C32 N33 Cu1 116.3(6) . 2_656
C34 N33 Cu1 126.1(5) . 2_656
N33 C34 C35 120.4(7) . .
N33 C34 C39 121.2(7) . .
C35 C34 C39 118.4(9) . .
C36 C35 C34 120.3(8) . .
C36 C35 H35 119.8 . .
C34 C35 H35 119.8 . .
C35 C36 C37 120.9(8) . .
C35 C36 H36 119.6 . .
C37 C36 H36 119.6 . .
C38 C37 C36 120.0(9) . .
C38 C37 H37 120.0 . .
C36 C37 H37 120.0 . .
C37 C38 C39 121.7(8) . .
C37 C38 H38 119.2 . .
C39 C38 H38 119.2 . .
C38 C39 C40 123.4(7) . .
C38 C39 C34 118.6(7) . .
C40 C39 C34 118.0(9) . .
C31 C40 C39 120.2(7) . .
C31 C40 H40 119.9 . .
C39 C40 H40 119.9 . .
O1S C2S N3S 125.4(11) . .
O1S C2S H2S 117.3 . .
N3S C2S H2S 117.3 . .
C2S N3S C5S 121.1(9) . .
C2S N3S C4S 121.2(9) . .
C5S N3S C4S 117.7(9) . .
N3S C4S H4S1 109.5 . .
N3S C4S H4S2 109.5 . .
H4S1 C4S H4S2 109.5 . .
N3S C4S H4S3 109.5 . .
H4S1 C4S H4S3 109.5 . .
H4S2 C4S H4S3 109.5 . .
N3S C5S H5S1 109.5 . .
N3S C5S H5S2 109.5 . .
H5S1 C5S H5S2 109.5 . .
N3S C5S H5S3 109.5 . .
H5S1 C5S H5S3 109.5 . .
H5S2 C5S H5S3 109.5 . .
loop_
_geom_bond_atom_site_label_1
_geom_bond_atom_site_label_2
_geom_bond_distance
_geom_bond_site_symmetry_2
I1 Cu1 2.6292(15) 2_646
I1 Cu1 2.6378(14) .
Cu1 N33 2.111(6) 2_656
Cu1 N13 2.116(8) .
Cu1 I1 2.6292(15) 2_646
Cu1 Cu1 2.7541(18) 2_646
Si1 C1 1.847(9) .
Si1 C11 1.857(10) .
Si1 C21 1.864(7) .
Si1 C31 1.886(9) .
C1 H1A 0.9800 .
C1 H1B 0.9800 .
C1 H1C 0.9800 .
C11 C20 1.388(12) .
C11 C12 1.436(13) .
C12 N13 1.328(12) .
C12 H12 0.9500 .
N13 C14 1.378(11) .
C14 C15 1.391(12) .
C14 C19 1.440(13) .
C15 C16 1.370(12) .
C15 H15 0.9500 .
C16 C17 1.411(14) .
C16 H16 0.9500 .
C17 C18 1.356(13) .
C17 H17 0.9500 .
C18 C19 1.443(12) .
C18 H18 0.9500 .
C19 C20 1.400(13) .
C20 H20 0.9500 .
C21 C30 1.384(12) .
C21 C22 1.438(10) .
C22 N23 1.307(9) .
C22 H22 0.9500 .
N23 C24 1.368(11) .
C24 C25 1.421(10) .
C24 C29 1.424(11) .
C25 C26 1.376(13) .
C25 H25 0.9500 .
C26 C27 1.419(13) .
C26 H26 0.9500 .
C27 C28 1.356(11) .
C27 H27 0.9500 .
C28 C29 1.426(12) .
C28 H28 0.9500 .
C29 C30 1.407(10) .
C30 H30 0.9500 .
C31 C40 1.364(13) .
C31 C32 1.405(10) .
C32 N33 1.332(10) .
C32 H32 0.9500 .
N33 C34 1.353(12) .
N33 Cu1 2.111(6) 2_656
C34 C35 1.432(12) .
C34 C39 1.437(11) .
C35 C36 1.363(14) .
C35 H35 0.9500 .
C36 C37 1.409(12) .
C36 H36 0.9500 .
C37 C38 1.363(12) .
C37 H37 0.9500 .
C38 C39 1.405(13) .
C38 H38 0.9500 .
C39 C40 1.424(12) .
C40 H40 0.9500 .
O1S C2S 1.228(12) .
C2S N3S 1.332(13) .
C2S H2S 0.9500 .
N3S C5S 1.436(14) .
N3S C4S 1.463(12) .
C4S H4S1 0.9800 .
C4S H4S2 0.9800 .
C4S H4S3 0.9800 .
C5S H5S1 0.9800 .
C5S H5S2 0.9800 .
C5S H5S3 0.9800 .
loop_
_geom_torsion_atom_site_label_1
_geom_torsion_atom_site_label_2
_geom_torsion_atom_site_label_3
_geom_torsion_atom_site_label_4
_geom_torsion
_geom_torsion_site_symmetry_1
_geom_torsion_site_symmetry_4
C1 Si1 C11 C20 -132.4(7) . .
C21 Si1 C11 C20 107.6(7) . .
C31 Si1 C11 C20 -14.8(7) . .
C1 Si1 C11 C12 40.0(6) . .
C21 Si1 C11 C12 -79.9(7) . .
C31 Si1 C11 C12 157.7(6) . .
C20 C11 C12 N13 1.0(11) . .
Si1 C11 C12 N13 -172.2(6) . .
C11 C12 N13 C14 -0.6(12) . .
C11 C12 N13 Cu1 168.0(6) . .
C12 N13 C14 C15 178.2(6) . .
Cu1 N13 C14 C15 10.4(9) . .
C12 N13 C14 C19 -0.8(10) . .
Cu1 N13 C14 C19 -168.7(5) . .
N13 C14 C15 C16 -179.1(7) . .
C19 C14 C15 C16 -0.1(11) . .
C14 C15 C16 C17 0.5(11) . .
C15 C16 C17 C18 -0.6(11) . .
C16 C17 C18 C19 0.3(11) . .
N13 C14 C19 C20 1.7(10) . .
C15 C14 C19 C20 -177.3(7) . .
N13 C14 C19 C18 178.9(7) . .
C15 C14 C19 C18 -0.2(10) . .
C17 C18 C19 C20 177.1(7) . .
C17 C18 C19 C14 0.1(11) . .
C12 C11 C20 C19 0.1(10) . .
Si1 C11 C20 C19 172.9(5) . .
C14 C19 C20 C11 -1.3(11) . .
C18 C19 C20 C11 -178.3(7) . .
C1 Si1 C21 C30 34.9(8) . .
C11 Si1 C21 C30 154.6(7) . .
C31 Si1 C21 C30 -86.9(8) . .
C1 Si1 C21 C22 -144.7(7) . .
C11 Si1 C21 C22 -25.0(9) . .
C31 Si1 C21 C22 93.6(8) . .
C30 C21 C22 N23 -1.5(13) . .
Si1 C21 C22 N23 178.1(7) . .
C21 C22 N23 C24 1.3(13) . .
C22 N23 C24 C25 178.1(8) . .
C22 N23 C24 C29 0.0(13) . .
N23 C24 C25 C26 -177.0(9) . .
C29 C24 C25 C26 1.1(14) . .
C24 C25 C26 C27 -1.0(15) . .
C25 C26 C27 C28 -0.8(16) . .
C26 C27 C28 C29 2.4(15) . .
N23 C24 C29 C30 -1.0(13) . .
C25 C24 C29 C30 -179.0(8) . .
N23 C24 C29 C28 178.5(9) . .
C25 C24 C29 C28 0.4(13) . .
C27 C28 C29 C30 177.2(9) . .
C27 C28 C29 C24 -2.2(14) . .
C22 C21 C30 C29 0.5(13) . .
Si1 C21 C30 C29 -179.2(7) . .
C24 C29 C30 C21 0.7(13) . .
C28 C29 C30 C21 -178.8(9) . .
C1 Si1 C31 C40 -125.7(8) . .
C11 Si1 C31 C40 117.6(8) . .
C21 Si1 C31 C40 -4.5(9) . .
C1 Si1 C31 C32 53.7(8) . .
C11 Si1 C31 C32 -63.0(7) . .
C21 Si1 C31 C32 174.8(6) . .
C40 C31 C32 N33 -0.6(14) . .
Si1 C31 C32 N33 179.9(7) . .
C31 C32 N33 C34 -2.8(14) . .
C31 C32 N33 Cu1 173.1(7) . 2_656
C32 N33 C34 C35 -175.8(8) . .
Cu1 N33 C34 C35 8.9(12) 2_656 .
C32 N33 C34 C39 4.9(13) . .
Cu1 N33 C34 C39 -170.4(6) 2_656 .
N33 C34 C35 C36 -179.9(8) . .
C39 C34 C35 C36 -0.6(13) . .
C34 C35 C36 C37 3.6(14) . .
C35 C36 C37 C38 -4.4(14) . .
C36 C37 C38 C39 2.2(14) . .
C37 C38 C39 C40 -177.6(8) . .
C37 C38 C39 C34 0.8(14) . .
N33 C34 C39 C38 177.7(8) . .
C35 C34 C39 C38 -1.6(12) . .
N33 C34 C39 C40 -3.8(12) . .
C35 C34 C39 C40 176.9(8) . .
C32 C31 C40 C39 1.8(13) . .
Si1 C31 C40 C39 -178.9(6) . .
C38 C39 C40 C31 178.7(8) . .
C34 C39 C40 C31 0.3(13) . .
O1S C2S N3S C5S -1.6(18) . .
O1S C2S N3S C4S 179.7(12) . .
