#------------------------------------------------------------------------------
#$Date: 2016-03-24 00:09:19 +0200 (Thu, 24 Mar 2016) $
#$Revision: 179525 $
#$URL: svn://www.crystallography.net/cod/cif/4/34/22/4342249.cif $
#------------------------------------------------------------------------------
#
# This file is available in the Crystallography Open Database (COD),
# http://www.crystallography.net/
#
# All data on this site have been placed in the public domain by the
# contributors.
#
data_4342249
loop_
_publ_author_name
'Deshmukh, Mahesh S.'
'Yadav, Ashok'
'Pant, Rakesh'
'Boomishankar, Ramamoorthy'
_publ_section_title
;
 Thermochromic and Mechanochromic Luminescence Umpolung in Isostructural
 Metal-Organic Frameworks Based on Cu6I6 Clusters.
;
_journal_issue                   4
_journal_name_full               'Inorganic chemistry'
_journal_page_first              1337
_journal_page_last               1345
_journal_paper_doi               10.1021/ic502207f
_journal_volume                  54
_journal_year                    2015
_chemical_formula_sum            'C56 H42 Cu6 I6 N6 Si2'
_chemical_formula_weight         1997.77
_chemical_name_systematic
;
 ?
;
_space_group_crystal_system      trigonal
_space_group_IT_number           148
_space_group_name_Hall           '-R 3'
_space_group_name_H-M_alt        'R -3 :H'
_symmetry_space_group_name_Hall  '-R 3'
_symmetry_space_group_name_H-M   'R -3 :H'
_atom_sites_solution_hydrogens   geom
_atom_sites_solution_primary     direct
_atom_sites_solution_secondary   difmap
_audit_creation_method           SHELXL-2013
_cell_angle_alpha                90
_cell_angle_beta                 90
_cell_angle_gamma                120
_cell_formula_units_Z            3
_cell_length_a                   13.032(2)
_cell_length_b                   13.032(2)
_cell_length_c                   30.206(5)
_cell_measurement_reflns_used    3231
_cell_measurement_temperature    100(2)
_cell_measurement_theta_max      28.32
_cell_measurement_theta_min      2.25
_cell_volume                     4442.7(12)
_computing_cell_refinement       'Bruker SAINT'
_computing_data_collection       'Bruker APEX2'
_computing_data_reduction        'Bruker SAINT'
_computing_molecular_graphics    'Bruker SHELXTL'
_computing_publication_material  'Bruker SHELXTL'
_computing_structure_refinement  'SHELXL-2013 (Sheldrick 2013)'
_computing_structure_solution    'SHELXS-97 (Sheldrick 2008)'
_diffrn_ambient_temperature      100(2)
_diffrn_measured_fraction_theta_full 0.999
_diffrn_measured_fraction_theta_max 0.996
_diffrn_measurement_device_type  'Bruker APEX-II CCD'
_diffrn_measurement_method       '\f and \w scans'
_diffrn_radiation_type           MoK\a
_diffrn_radiation_wavelength     0.71073
_diffrn_reflns_av_R_equivalents  0.0426
_diffrn_reflns_av_unetI/netI     0.0330
_diffrn_reflns_Laue_measured_fraction_full 0.999
_diffrn_reflns_Laue_measured_fraction_max 0.996
_diffrn_reflns_limit_h_max       17
_diffrn_reflns_limit_h_min       -17
_diffrn_reflns_limit_k_max       13
_diffrn_reflns_limit_k_min       -17
_diffrn_reflns_limit_l_max       40
_diffrn_reflns_limit_l_min       -39
_diffrn_reflns_number            12564
_diffrn_reflns_point_group_measured_fraction_full 0.999
_diffrn_reflns_point_group_measured_fraction_max 0.996
_diffrn_reflns_theta_full        25.242
_diffrn_reflns_theta_max         28.349
_diffrn_reflns_theta_min         1.926
_diffrn_source                   'fine-focus sealed tube'
_exptl_absorpt_coefficient_mu    5.326
_exptl_absorpt_correction_T_max  0.7457
_exptl_absorpt_correction_T_min  0.6299
_exptl_absorpt_correction_type   multi-scan
_exptl_absorpt_process_details   SADABS
_exptl_crystal_colour            Green
_exptl_crystal_density_diffrn    2.240
_exptl_crystal_description       Hexagonal
_exptl_crystal_F_000             2820
_exptl_crystal_size_max          0.2
_exptl_crystal_size_mid          0.15
_exptl_crystal_size_min          0.10
_refine_diff_density_max         0.918
_refine_diff_density_min         -0.550
_refine_diff_density_rms         0.130
_refine_ls_extinction_method     none
_refine_ls_goodness_of_fit_ref   1.012
_refine_ls_hydrogen_treatment    constr
_refine_ls_matrix_type           full
_refine_ls_number_parameters     116
_refine_ls_number_reflns         2468
_refine_ls_number_restraints     0
_refine_ls_restrained_S_all      1.012
_refine_ls_R_factor_all          0.0384
_refine_ls_R_factor_gt           0.0240
_refine_ls_shift/su_max          0.003
_refine_ls_shift/su_mean         0.000
_refine_ls_structure_factor_coef Fsqd
_refine_ls_weighting_details
'w=1/[\s^2^(Fo^2^)+(0.0230P)^2^+5.1364P] where P=(Fo^2^+2Fc^2^)/3'
_refine_ls_weighting_scheme      calc
_refine_ls_wR_factor_gt          0.0486
_refine_ls_wR_factor_ref         0.0528
_reflns_Friedel_coverage         0.000
_reflns_number_gt                1987
_reflns_number_total             2468
_reflns_threshold_expression     'I > 2\s(I)'
_cod_data_source_file            ic502207f_si_005.cif
_cod_data_source_block           TRI
_cod_depositor_comments
'Adding full bibliography for 4342249--4342255.cif.'
_cod_original_cell_volume        4442.6(15)
_cod_database_code               4342249
#BEGIN Tags that were not found in dictionaries:
_shelx_space_group_comment
;
The symmetry employed for this shelxl refinement is uniquely defined
by the following loop, which should always be used as a source of
symmetry information in preference to the above space-group names.
They are only intended as comments.
;
_shelxl_version_number           2013-4
_shelx_res_file
;
TITL TRI in R-3
CELL 0.71073 13.0318 13.0318 30.2061 90.000 90.000 120.000
ZERR 3.00 0.0020 0.0020 0.0048 0.000 0.000 0.000
LATT 3
SYMM -y, x-y, z
SYMM -x+y, -x, z
SFAC C  H  N  Si Cu I
UNIT 168  126  18  6  18  18
L.S. 24
ACTA
BOND $H
FMAP 2
PLAN 5
TEMP -173
WGHT    0.023000    5.136400
FVAR       0.03135
I1    6    0.660192    1.138749    0.274796    11.00000    0.01175    0.01611 =
         0.01456   -0.00166   -0.00048    0.00607
CU1   5    0.464979    1.146566    0.303346    11.00000    0.01902    0.01301 =
         0.01979    0.00031    0.00029    0.00639
SI1   4    0.333333    0.666667    0.322461    10.33333    0.01122    0.01122 =
         0.01777    0.00000    0.00000    0.00561
C1    1    0.333333    0.666667    0.383960    10.33333    0.02184    0.02184 =
         0.02014    0.00000    0.00000    0.01092
AFIX 137
H1A   2    0.252040    0.617634    0.394775    10.33333   -1.50000
H1B   2    0.365594    0.747960    0.394775    10.33333   -1.50000
H1C   2    0.382366    0.634406    0.394775    10.33333   -1.50000
AFIX   0
C11   1    0.286943    0.769204    0.297365    11.00000    0.01524    0.01497 =
         0.01782   -0.00054    0.00105    0.00911
C12   1    0.346566    0.891540    0.308685    11.00000    0.01147    0.01590 =
         0.01966    0.00028   -0.00013    0.00700
AFIX  43
H12   2    0.395199    0.914916    0.334352    11.00000   -1.20000
AFIX   0
N13   3    0.339868    0.975980    0.286297    11.00000    0.01224    0.01346 =
         0.01793   -0.00202    0.00003    0.00566
C14   1    0.265617    0.941697    0.249569    11.00000    0.01062    0.01639 =
         0.01750    0.00269    0.00385    0.00622
C15   1    0.259140    1.028040    0.223679    11.00000    0.01719    0.01616 =
         0.01733    0.00054    0.00155    0.00919
AFIX  43
H15   2    0.304251    1.109241    0.231735    11.00000   -1.20000
AFIX   0
C16   1    0.188528    0.995830    0.187122    11.00000    0.02180    0.02194 =
         0.01796    0.00529    0.00361    0.01470
AFIX  43
H16   2    0.185976    1.055089    0.169625    11.00000   -1.20000
AFIX   0
C17   1    0.118795    0.875052    0.174838    11.00000    0.01495    0.02551 =
         0.01576   -0.00012   -0.00279    0.00830
AFIX  43
H17   2    0.069370    0.853763    0.149423    11.00000   -1.20000
AFIX   0
C18   1    0.122723    0.789346    0.199563    11.00000    0.01548    0.01875 =
         0.02241    0.00186    0.00137    0.00517
AFIX  43
H18   2    0.075259    0.708411    0.191463    11.00000   -1.20000
AFIX   0
C19   1    0.197204    0.820486    0.237228    11.00000    0.01226    0.01634 =
         0.01688   -0.00058    0.00030    0.00685
C20   1    0.210724    0.736016    0.261600    11.00000    0.01457    0.01208 =
         0.02149    0.00059   -0.00083    0.00450
AFIX  43
H20   2    0.166781    0.654880    0.253353    11.00000   -1.20000
AFIX   0
HKLF 4 1 1 0 0 0 1 0 0 0 1

REM  TRI in R-3
REM R1 =  0.0240 for    1987 Fo > 4sig(Fo)  and  0.0384 for all    2468 data
REM    116 parameters refined using      0 restraints

END

WGHT      0.0230      5.1371

REM Highest difference peak  0.918,  deepest hole -0.550,  1-sigma level  0.130
Q1    1   0.6625  1.1889  0.2571  11.00000  0.05    0.92
Q2    1   0.7205  1.1550  0.2597  11.00000  0.05    0.73
Q3    1   0.6096  1.1337  0.2925  11.00000  0.05    0.72
Q4    1   0.6683  1.0900  0.2939  11.00000  0.05    0.72
Q5    1   0.7040  1.1913  0.2920  11.00000  0.05    0.66
;
_shelx_res_checksum              56134
_shelx_hkl_file
;
   1  -2   0    5.12    0.40
   1  -2   0    3.93    0.45
   1  -2   0    5.09    0.48
   1  -2   0    5.04    0.39
  -2   1   0    5.16    0.52
   2  -1   0    5.03    0.48
  -1  -1   0    5.02    0.43
  -1  -1   0    5.16    0.48
  -1   2   0    4.75    0.39
   3   0   0   61.40    1.76
   0  -3   0   60.47    1.93
   0  -3   0   58.44    1.81
   0  -3   0   57.76    1.86
  -3   3   0   64.22    1.97
  -3   0   0   63.74    1.77
  -3   0   0   58.16    1.80
   3  -3   0   59.42    1.87
   3  -3   0   57.06    1.86
   3  -3   0   63.88    1.96
   2  -4   0  257.26    6.34
   2  -4   0  259.80    5.97
   2  -4   0  265.46    5.92
  -4   2   0  270.84    6.20
  -4   2   0  260.03    5.72
   2  -4   0  247.43    5.73
  -2  -2   0  276.27    5.93
   4  -2   0  255.09    6.10
  -2  -2   0  274.84    6.02
   4  -5   0  536.89   12.16
  -5   1   0  544.95   11.80
   4  -5   0  553.31   12.21
   4  -5   0  533.88   11.84
   4  -5   0  531.45   12.63
  -5   1   0  562.56   12.24
  -1  -4   0  555.54   12.57
  -1  -4   0  562.13   11.99
  -1  -4   0  558.09   11.96
  -4   5   0  552.18   12.35
   5  -1   0  536.02   12.14
  -5   4   0  207.69    5.14
   1  -5   0  196.25    5.17
   1  -5   0  198.32    4.92
   4   1   0  205.52    4.72
   1  -5   0  195.32    4.76
   5  -4   0  195.39    5.01
  -4  -1   0  198.34    4.86
   5  -4   0  197.15    4.95
  -4  -1   0  201.59    4.68
   3  -6   0   83.49    2.70
  -6   3   0   85.36    2.80
   3  -6   0   80.45    2.84
   3  -6   0   85.96    2.46
   3  -6   0   83.77    2.38
  -3  -3   0   88.28    2.51
   6  -3   0   84.85    2.75
  -3  -3   0   88.22    2.58
  -3  -3   0   87.43    2.73
  -6   6   0  607.57   14.12
   0  -6   0  607.37   13.60
   0  -6   0  607.52   13.53
   0  -6   0  629.41   14.39
   6   0   0  629.85   13.72
   6  -6   0  625.62   13.98
   6  -6   0  603.75   14.27
   6  -6   0  618.43   13.94
  -6   0   0  612.90   13.49
   5  -7   0    3.11    0.79
   5  -7   0    3.58    0.69
  -7   2   0    2.58    0.79
   5  -7   0    2.85    0.79
   5  -7   0    1.89    0.81
  -7   2   0    2.82    0.70
  -2  -5   0    3.29    0.88
   7  -2   0    2.37    0.77
  -2  -5   0    2.42    0.78
  -5   7   0    2.64    0.85
  -2  -5   0    2.25    0.74
   2  -7   0   30.07    1.58
  -7   5   0   33.89    1.93
   2  -7   0   32.05    1.80
   2  -7   0   32.07    1.88
   7  -5   0   32.86    1.80
   7  -5   0   33.09    1.58
  -5  -2   0   34.44    1.57
  -5  -2   0   34.23    1.79
  -8   1   0   63.17    2.44
   7  -8   0   60.46    2.63
   7  -8   0   60.33    2.38
  -8   1   0   68.78    2.37
   7  -8   0   66.43    2.81
  -1  -7   0   66.48    2.64
  -1  -7   0   65.65    2.66
  -1  -7   0   62.41    2.65
  -7   8   0   60.78    2.69
   8  -1   0   67.43    2.52
  -8   4   0   16.35    1.57
   4  -8   0   14.91    1.17
   4  -8   0   14.60    1.43
   4  -8   0   16.73    1.45
   4  -8   0   15.40    1.17
  -4  -4   0   19.23    1.33
  -4  -4   0   18.71    1.46
   8  -4   0   14.82    1.40
  -4  -4   0   16.14    1.45
   1  -8   0  105.68    3.38
   1  -8   0  103.61    3.69
  -8   7   0  107.44    3.78
   7   1   0  104.77    3.20
   1  -8   0  107.72    3.56
  -7  -1   0  106.31    3.10
  -7  -1   0  108.65    3.44
   8  -7   0  110.79    3.65
   8  -7   0  106.91    3.45
   6  -9   0   61.54    2.66
   6  -9   0   60.95    2.53
   6  -9   0   58.82    2.84
  -9   3   0   61.07    2.30
  -9   3   0   63.63    2.65
  -3  -6   0   67.11    2.73
  -3  -6   0   66.75    2.62
   9  -3   0   66.67    2.73
  -6   9   0   62.40    2.69
  -3  -6   0   69.33    2.61
   3  -9   0   14.08    1.32
   3  -9   0   13.99    1.54
   3  -9   0   13.35    1.51
  -9   6   0   18.09    1.78
  -6  -3   0   19.64    1.66
   9  -6   0   10.45    1.41
  -6  -3   0   15.38    1.30
   0  -9   0   58.62    2.85
   9   0   0   65.30    2.67
   0  -9   0   62.54    2.76
  -9   9   0   63.69    3.12
   0  -9   0   57.89    2.93
  -9   0   0   57.31    2.27
  -9   0   0   62.36    2.74
   9  -9   0   62.96    2.94
   9  -9   0   67.56    2.98
 -10   2   0    6.11    1.12
   8 -10   0    5.82    1.35
 -10   2   0    9.41    1.26
   8 -10   0    5.12    1.16
  -8  10   0    7.50    1.52
  -2  -8   0    7.79    1.36
  -2  -8   0    9.28    1.34
  10  -2   0    7.00    1.28
  -2  -8   0    4.53    1.12
   5 -10   0  565.15   13.09
 -10   5   0  553.96   13.47
 -10   5   0  536.14   12.29
   5 -10   0  545.85   13.88
  -5  -5   0  598.18   13.25
  -5  -5   0  568.94   12.83
  10  -5   0  564.41   13.48
  -5  -5   0  568.02   13.09
   8   2   0   38.40    1.93
   2 -10   0   37.89    2.23
   2 -10   0   41.00    2.59
   2 -10   0   37.68    2.41
 -10   8   0   35.88    2.58
  10  -8   0   37.90    2.50
  -8  -2   0   37.75    1.94
  -8  -2   0   35.12    2.28
  10  -8   0   38.06    2.18
  10 -11   0  306.14    8.47
  10 -11   0  303.89    8.67
 -11   1   0  305.83    8.01
  11  -1   0  315.84    8.30
  -1 -10   0  326.21    8.77
  -1 -10   0  299.86    8.32
  -1 -10   0  318.57    8.29
   7 -11   0    7.64    1.25
   7 -11   0    5.55    1.46
 -11   4   0    6.78    1.06
   7 -11   0    4.26    1.28
 -11   4   0    5.70    1.30
  11  -4   0    4.21    1.26
  -4  -7   0    6.62    1.16
  -4  -7   0    4.14    1.27
  -4  -7   0    6.35    1.29
 -11   7   0   73.10    3.49
   4 -11   0   74.29    3.53
   4 -11   0   78.51    3.39
   4 -11   0   77.18    2.94
  -7  -4   0   71.74    2.88
  11  -7   0   76.91    3.46
  -7  -4   0   73.58    3.24
   1 -11   0   55.23    3.22
  10   1   0   57.05    2.67
   1 -11   0   50.82    2.99
   1 -11   0   54.18    2.91
 -11  10   0   54.82    3.38
 -10  -1   0   52.61    2.88
  11 -10   0   52.76    2.98
 -10  -1   0   50.44    2.37
  11 -10   0   52.78    3.11
 -12   3   0    9.71    1.48
 -12   3   0   12.90    1.55
   9 -12   0   12.81    1.71
   9 -12   0    9.88    1.86
  -3  -9   0   11.27    1.73
  12  -3   0    9.94    1.73
  -3  -9   0    9.87    1.63
  -3  -9   0    9.73    1.64
   6 -12   0   24.50    2.31
   6 -12   0   22.87    2.33
 -12   6   0   24.44    2.28
   6 -12   0   24.65    1.93
  -6  -6   0   25.83    1.92
  -6  -6   0   24.20    2.14
  12  -6   0   21.70    2.21
  -6  -6   0   22.85    1.93
 -12   9   0   70.53    3.70
   3 -12   0   71.95    3.72
   3 -12   0   72.17    3.17
   3 -12   0   69.87    3.53
  12  -9   0   66.64    3.63
  -9  -3   0   68.38    3.33
  -9  -3   0   70.28    2.83
  12   0   0    0.02    1.21
   0 -12   0    3.52    1.42
   0 -12   0    1.76    1.36
   0 -12   0    3.64    1.55
 -12   0   0    1.97    1.38
  12 -12   0    2.09    1.49
  12 -12   0    0.26    1.41
  11 -13   0    7.35    1.80
 -13   2   0    5.95    1.45
  11 -13   0    7.17    1.82
  -2 -11   0   14.47    2.05
  13  -2   0    8.53    1.70
  -2 -11   0   11.94    1.88
  -2 -11   0    6.92    1.65
 -13   5   0   21.87    2.21
   8 -13   0   20.40    2.00
 -13   5   0   20.32    1.68
   8 -13   0   19.09    2.39
  -5  -8   0   21.03    2.09
  13  -5   0   20.18    2.35
  -5  -8   0   23.30    2.01
  -5  -8   0   15.42    2.03
   5 -13   0   22.70    2.42
   5 -13   0   22.13    2.50
 -13   8   0   23.95    2.58
   5 -13   0   22.82    2.12
  -8  -5   0   25.01    2.35
  -8  -5   0   24.05    1.97
  13  -8   0   22.44    2.48
   2 -13   0    6.32    1.75
   2 -13   0    7.17    1.65
  11   2   0    4.88    1.29
 -13  11   0    5.09    2.22
   2 -13   0    2.94    1.60
  13 -11   0    6.48    1.75
 -11  -2   0    5.70    1.24
 -11  -2   0    8.67    1.70
  13 -11   0    6.19    1.53
 -14   1   0    1.74    1.47
  13 -14   0    1.44    1.72
  13 -14   0    1.70    1.82
  -1 -13   0   -0.76    1.57
  14  -1   0    0.53    1.63
  -1 -13   0    0.70    1.69
  -1 -13   0   -0.35    1.67
 -14   4   0    0.49    1.22
  10 -14   0    2.68    1.77
 -14   4   0    1.49    1.18
  10 -14   0    0.79    1.31
  -4 -10   0    0.80    1.45
  -4 -10   0    1.22    1.36
  -4 -10   0    0.87    1.25
  14  -4   0    0.47    1.42
   7 -14   0   33.56    2.99
 -14   7   0   31.03    2.88
   7 -14   0   30.55    2.98
  14  -7   0   28.07    2.79
  -7  -7   0   33.46    2.79
  -7  -7   0   29.40    2.44
 -14  10   0   34.88    3.27
   4 -14   0   35.69    2.75
   4 -14   0   36.11    3.22
   4 -14   0   29.81    2.83
 -10  -4   0   39.26    2.50
  14 -10   0   38.99    3.38
 -10  -4   0   36.70    2.90
   1 -14   0   33.41    3.22
  13   1   0   38.11    3.02
   1 -14   0   39.21    3.18
   1 -14   0   29.76    3.07
  14 -13   0   37.20    3.49
 -13  -1   0   34.57    2.99
  14 -13   0   33.60    2.97
  12 -15   0   10.21    2.47
 -15   3   0   11.34    1.89
  12 -15   0   11.01    2.25
  -3 -12   0   15.05    2.30
  15  -3   0   17.32    2.44
  -3 -12   0   13.19    2.25
  -3 -12   0   13.25    2.31
 -15   6   0  131.75    5.20
   9 -15   0  122.99    5.77
  -6  -9   0  138.95    5.34
  -6  -9   0  130.52    4.98
  -6  -9   0  139.11    5.04
  15  -6   0  134.42    5.61
 -15   9   0   -0.29    1.72
   6 -15   0    0.69    1.71
   6 -15   0    0.04    1.57
  15  -9   0   -0.03    1.60
  -9  -6   0    0.23    1.51
  -9  -6   0    0.99    1.30
   3 -15   0    9.37    2.40
   3 -15   0   11.40    2.18
   3 -15   0   10.16    2.33
 -12  -3   0   12.31    1.65
 -12  -3   0   10.14    2.13
  15 -12   0    8.36    2.31
   0 -15   0   77.69    4.97
   0 -15   0   86.66    4.76
   0 -15   0   75.18    4.95
 -15   0   0   77.98    4.43
  15 -15   0   82.27    5.18
  15 -15   0   80.30    4.80
  11 -16   0   71.31    4.81
  16  -5   0   67.77    4.44
  -5 -11   0   74.76    4.24
  -5 -11   0   68.53    4.04
  -5 -11   0   65.61    4.24
   8 -16   0    9.10    2.24
 -16   8   0   11.03    2.34
   8 -16   0    9.00    2.42
  -8  -8   0    2.70    1.71
  16  -8   0    8.47    2.37
  -8  -8   0    5.73    1.78
   5 -16   0  163.11    6.43
   5 -16   0  157.18    6.82
 -16  11   0  163.24    6.73
 -11  -5   0  157.29    6.17
 -11  -5   0  156.93    5.43
  10 -17   0   22.70    3.18
 -17   7   0   20.11    2.73
  17  -7   0   21.85    3.23
  -7 -10   0   23.86    2.97
  -7 -10   0   20.31    2.63
   7 -17   0   -0.34    2.21
 -17  10   0    0.71    2.01
   7 -17   0    1.22    2.03
  17 -10   0    5.64    2.39
 -10  -7   0    2.89    1.71
 -10  -7   0    2.06    1.92
   1  -1  -1  296.55    6.45
   1  -1  -1  296.49    6.68
  -1   0  -1  298.46    6.28
   1   0   1  310.92    6.43
   0  -1   1  299.85    6.28
  -2  -1  -1  693.29   14.55
  -2  -1  -1  718.84   14.45
   3  -2  -1  668.95   14.89
   3  -2  -1  703.86   15.28
   1  -3   1  676.28   15.43
   1  -3   1  687.57   14.55
   1  -3   1  675.79   14.40
  -3   2   1  703.40   15.08
   0  -2  -1    3.84    0.48
   2   0  -1    4.38    0.45
   0  -2  -1    4.41    0.50
   0  -2  -1    3.89    0.48
  -2   2  -1    4.90    0.58
   2  -2   1    4.01    0.45
  -2   0   1    4.68    0.47
   2  -2   1    4.96    0.56
   2  -2   1    3.63    0.47
  -2   0   1    4.82    0.52
   2  -2   1    3.96    0.40
  -3  -2  -1  122.08    3.23
  -3  -2  -1  123.17    3.07
   5  -3  -1  117.50    3.29
   2  -5   1  112.74    3.38
   2  -5   1  111.90    2.92
   2  -5   1  113.38    3.18
  -5   3   1  117.10    3.33
   2  -3  -1  178.58    4.22
  -3   1  -1  193.72    4.38
   2  -3  -1  178.09    4.25
   2  -3  -1  192.16    4.23
   2  -3  -1  177.39    4.49
  -3   1  -1  178.16    4.09
  -2   3   1  183.66    4.29
  -1  -2   1  189.52    4.24
   3  -1   1  179.37    4.32
  -1  -2   1  192.39    4.27
  -1  -3  -1   55.51    1.87
   4  -1  -1   53.76    1.82
  -1  -3  -1   56.75    1.82
  -3   4  -1   56.42    1.90
  -1  -3  -1   55.85    1.85
   3  -4   1   53.59    1.75
  -4   1   1   53.39    1.72
  -4   1   1   57.62    1.88
   3  -4   1   53.24    1.75
   3  -4   1   49.46    1.87
   3  -4   1   57.37    1.79
   7  -4  -1  137.23    4.07
  -4  -3  -1  142.39    3.72
  -4  -3  -1  142.26    3.96
   3  -7   1  136.25    3.57
  -7   4   1  137.91    4.09
   3  -7   1  134.76    4.17
   3  -7   1  140.84    3.93
   4  -4  -1  139.79    3.74
  -4   0  -1  143.62    3.60
   4  -4  -1  137.63    3.79
   4  -4  -1  150.81    3.77
   4   0   1  145.49    3.61
   0  -4   1  144.95    3.64
  -4   4   1  150.79    3.85
   0  -4   1  143.48    3.67
   0  -4   1  143.44    3.86
   3   1  -1    8.59    0.64
   1  -4  -1    6.47    0.78
   1  -4  -1    6.74    0.80
   1  -4  -1    7.54    0.76
  -4   3  -1    7.08    0.89
   4  -3   1    6.99    0.79
   4  -3   1    6.82    0.65
  -3  -1   1    6.32    0.67
  -3  -1   1    7.57    0.80
  -2  -4  -1   56.70    2.05
  -4   6  -1   55.67    2.11
   6  -2  -1   53.01    2.07
  -2  -4  -1   55.60    2.16
  -2  -4  -1   56.83    2.03
  -6   2   1   52.98    2.11
   4  -6   1   54.41    2.21
   4  -6   1   56.32    1.88
   4  -6   1   55.44    2.04
  -6   2   1   54.65    1.88
   4  -6   1   56.63    1.99
  -5  -4  -1   83.08    3.10
  -5  -4  -1   90.90    2.93
   9  -5  -1   87.27    3.28
   4  -9   1   86.69    3.17
  -9   5   1   85.09    3.31
   4  -9   1   84.63    3.32
   4  -9   1   80.98    2.70
  -5  -1  -1  200.37    4.70
  -5  -1  -1  198.13    4.97
   6  -5  -1  194.86    5.05
   6  -5  -1  194.70    5.14
   1  -6   1  192.44    4.84
   1  -6   1  195.71    5.28
   1  -6   1  195.22    5.01
   5   1   1  200.59    4.79
  -6   5   1  195.93    5.25
  -5   2  -1   27.78    1.17
   3  -5  -1   25.22    1.55
   3  -5  -1   27.28    1.14
   3  -5  -1   27.99    1.44
  -5   2  -1   28.55    1.53
   3  -5  -1   25.33    1.29
  -2  -3   1   29.03    1.39
   5  -2   1   26.94    1.40
  -2  -3   1   27.48    1.44
  -5   5  -1  972.89   21.49
   0  -5  -1  958.01   20.67
   0  -5  -1  978.88   20.76
   0  -5  -1  977.99   21.95
   5   0  -1  971.09   21.03
  -5   0   1 1000.00   21.12
   5  -5   1  959.40   21.17
  -5   0   1  980.57   20.65
   5  -5   1  983.55   21.39
   5  -5   1  960.18   21.84
  -3  -5  -1   67.60    2.46
   8  -3  -1   65.55    2.61
  -3  -5  -1   65.36    2.59
  -5   8  -1   60.19    2.50
  -3  -5  -1   64.51    2.38
   5  -8   1   63.14    2.70
   5  -8   1   61.74    2.49
   5  -8   1   64.88    2.35
  -8   3   1   61.67    2.55
  -8   3   1   62.99    2.20
  11  -6  -1  300.89    8.18
  -6  -5  -1  300.45    7.52
  -6  -5  -1  292.46    7.83
   5 -11   1  289.57    8.39
   5 -11   1  304.27    7.22
   5 -11   1  302.96    7.89
 -11   6   1  294.91    8.14
  -6  -2  -1  168.84    4.29
   8  -6  -1  158.84    4.77
  -6  -2  -1  164.73    4.61
   8  -6  -1  168.10    4.55
   6   2   1  169.99    4.25
   2  -8   1  163.48    4.66
   2  -8   1  161.01    4.90
  -8   6   1  162.72    4.87
   2  -8   1  158.56    4.35
  -6   1  -1  489.67   11.07
   5  -6  -1  490.09   11.46
   5  -6  -1  505.71   11.44
   5  -6  -1  499.80   11.93
  -6   1  -1  514.58   11.43
  -1  -5   1  520.04   11.85
  -1  -5   1  516.37   11.29
  -5   6   1  505.40   11.66
   6  -1   1  501.80   11.43
  -1  -5   1  515.47   11.30
   2  -6  -1   43.41    1.94
  -6   4  -1   44.56    2.03
   2  -6  -1   46.16    1.76
   2  -6  -1   41.65    2.03
  -4  -2   1   45.63    1.76
   6  -4   1   46.54    1.95
  -4  -2   1   47.23    1.92
  -1  -6  -1    0.10    0.73
  -1  -6  -1    0.46    0.70
   7  -1  -1    0.80    0.69
  -1  -6  -1    0.81    0.76
  -6   7  -1   -0.03    0.75
   6  -7   1    1.63    0.79
  -7   1   1    0.83    0.71
   6  -7   1    0.47    0.75
   6  -7   1   -0.19    0.64
  -7   1   1    0.54    0.65
  -4  -6  -1    3.15    1.10
  -4  -6  -1    5.72    1.27
  10  -4  -1    4.27    1.19
  -4  -6  -1    6.46    1.07
 -10   4   1    4.26    1.17
   6 -10   1    4.35    1.17
   6 -10   1    3.84    0.98
   6 -10   1    6.82    1.32
 -10   4   1    5.13    0.96
  -7  -6  -1   71.60    3.54
  13  -7  -1   68.80    3.62
  -7  -6  -1   69.19    3.22
   6 -13   1   63.99    3.49
   6 -13   1   62.22    3.73
 -13   7   1   68.26    3.64
  -7  -3  -1    5.04    0.93
  -7  -3  -1    4.86    1.18
  10  -7  -1    3.16    1.21
   3 -10   1    4.27    1.14
 -10   7   1    4.40    1.33
   3 -10   1    5.01    1.04
   3 -10   1    3.53    1.18
  -7   0  -1    3.72    0.87
   7  -7  -1    3.35    0.82
   7  -7  -1    3.16    0.88
   7  -7  -1    3.18    0.90
  -7   0  -1    3.26    0.67
  -7   7   1    3.10    1.03
   0  -7   1    2.61    0.86
   0  -7   1    2.56    0.81
   0  -7   1    3.75    0.92
   7   0   1    3.20    0.80
   4  -7  -1  354.90    8.36
   4  -7  -1  359.72    8.31
  -7   3  -1  349.62    7.95
   4  -7  -1  355.14    8.93
  -7   3  -1  357.48    8.65
   4  -7  -1  350.65    7.93
  -3  -4   1  370.46    8.30
  -3  -4   1  362.48    8.42
   7  -3   1  349.79    8.54
  -3  -4   1  374.28    8.57
   6   1  -1    1.19    0.59
   1  -7  -1    0.55    0.68
   1  -7  -1    1.40    0.77
  -7   6  -1    1.01    0.87
   1  -7  -1    1.14    0.75
  -6  -1   1    0.98    0.59
  -6  -1   1    0.06    0.71
   7  -6   1    1.03    0.70
   7  -6   1    1.85    0.80
  -2  -7  -1  204.24    5.59
  -2  -7  -1  201.87    5.45
   9  -2  -1  203.29    5.55
  -7   9  -1  184.71    5.61
  -2  -7  -1  197.97    5.50
   7  -9   1  192.22    5.74
   7  -9   1  184.37    5.14
  -9   2   1  197.04    5.34
   7  -9   1  199.16    5.46
  -9   2   1  196.99    5.18
  -5  -7  -1    1.07    1.11
  -5  -7  -1    2.79    1.28
  12  -5  -1    2.46    1.25
  -5  -7  -1    3.02    1.05
 -12   5   1    2.29    0.84
   7 -12   1    2.08    1.32
 -12   5   1    3.48    1.36
   7 -12   1    3.98    1.11
   7 -12   1    1.06    1.28
  15  -8  -1   47.23    3.73
  -8  -7  -1   31.43    2.96
  -8  -7  -1   38.13    2.88
 -15   8   1   41.31    3.41
   7 -15   1   30.74    3.27
   7 -15   1   39.99    3.34
  -8  -4  -1    4.22    1.32
  12  -8  -1    1.93    1.35
  -8  -4  -1    0.28    0.95
   4 -12   1    1.79    1.03
   4 -12   1    2.84    1.30
   4 -12   1    0.82    1.25
 -12   8   1    0.20    1.30
   9  -8  -1  107.92    3.84
  -8  -1  -1  106.93    3.18
   9  -8  -1  106.66    3.69
  -8  -1  -1  103.65    3.58
   1  -9   1  103.21    3.72
   1  -9   1  103.87    3.53
   8   1   1  110.95    3.41
  -9   8   1  105.03    3.97
   1  -9   1  108.95    3.87
   6  -8  -1   50.87    2.26
   6  -8  -1   53.57    2.54
  -8   2  -1   52.80    2.19
  -8   2  -1   50.76    2.03
  -6   8   1   50.25    2.32
  -2  -6   1   51.90    2.27
   8  -2   1   50.23    2.27
  -2  -6   1   52.44    2.27
  -2  -6   1   53.65    2.34
   3  -8  -1   63.16    2.56
   3  -8  -1   60.32    2.23
   3  -8  -1   57.98    2.66
  -8   5  -1   59.43    2.58
  -5  -3   1   61.29    2.49
  -5  -3   1   62.72    2.28
   8  -5   1   58.89    2.54
   0  -8  -1   50.54    2.53
   0  -8  -1   54.84    2.43
  -8   8  -1   50.73    2.58
   0  -8  -1   55.41    2.50
   8   0  -1   52.63    2.27
  -8   0   1   53.68    2.35
   8  -8   1   49.49    2.35
   8  -8   1   49.61    2.47
   8  -8   1   51.71    2.49
  -8   0   1   49.84    2.02
  11  -3  -1   39.10    2.53
  -3  -8  -1   37.20    2.58
  -3  -8  -1   38.10    2.47
  -3  -8  -1   37.47    2.44
 -11   3   1   38.87    2.17
 -11   3   1   38.24    2.34
   8 -11   1   38.12    2.40
   8 -11   1   39.30    2.87
  -6  -8  -1    1.00    1.46
  -6  -8  -1    4.37    1.41
  -6  -8  -1    0.76    1.24
  14  -6  -1    4.11    1.75
   8 -14   1    4.48    1.83
   8 -14   1    2.48    1.58
   8 -14   1    1.34    1.21
 -14   6   1    3.37    1.50
  -9  -8  -1   11.43    2.43
  -9  -8  -1    9.78    2.08
  17  -9  -1   15.40    3.08
   8 -17   1   15.10    2.77
 -17   9   1   11.35    2.57
   8 -17   1   12.99    2.97
  14  -9  -1    1.18    1.62
  -9  -5  -1   -1.49    1.01
  -9  -5  -1   -0.27    1.37
   5 -14   1   -1.62    1.35
   5 -14   1    0.98    1.14
   5 -14   1   -0.88    1.44
 -14   9   1   -1.73    1.49
  11  -9  -1   42.52    2.87
  -9  -2  -1   47.43    2.71
  11  -9  -1   45.03    2.63
  -9  -2  -1   46.89    2.23
   2 -11   1   48.07    2.58
   2 -11   1   49.09    2.83
   9   2   1   49.20    2.32
 -11   9   1   46.72    3.05
   2 -11   1   48.47    2.96
   8  -9  -1    5.63    1.21
  -9   1  -1    6.84    1.13
   8  -9  -1    4.40    1.16
   8  -9  -1    3.68    0.92
  -1  -8   1    5.26    1.14
  -1  -8   1    8.34    1.29
  -1  -8   1    6.25    1.18
  -8   9   1    6.24    1.30
   9  -1   1    5.23    1.08
   5  -9  -1    2.11    0.99
   5  -9  -1    2.48    1.01
  -9   4  -1    2.31    0.63
  -9   4  -1    3.46    1.05
   5  -9  -1    1.84    0.82
  -4  -5   1    1.84    0.74
  -4  -5   1    1.79    0.93
  -4  -5   1    1.98    0.83
   9  -4   1    2.03    0.93
   2  -9  -1   39.07    2.42
   2  -9  -1   41.32    2.13
  -9   7  -1   39.16    2.48
   2  -9  -1   34.60    2.22
   9  -7   1   40.89    2.02
  -7  -2   1   40.94    1.90
  -7  -2   1   41.91    2.25
   9  -7   1   41.64    2.34
  -1  -9  -1  103.75    3.78
  -9  10  -1  100.58    4.04
  -1  -9  -1  100.95    3.83
  -1  -9  -1  102.21    3.93
  10  -1  -1  108.59    3.75
 -10   1   1  101.30    3.56
 -10   1   1   95.93    3.12
   9 -10   1   96.70    3.77
   9 -10   1  101.19    3.96
  13  -4  -1   21.70    2.37
  -4  -9  -1   20.95    2.16
  -4  -9  -1   19.72    2.08
  -4  -9  -1   25.37    2.48
 -13   4   1   25.24    2.28
   9 -13   1   22.72    2.52
 -13   4   1   23.18    1.94
   9 -13   1   23.41    2.20
  -7  -9  -1   34.16    2.94
  16  -7  -1   34.87    3.38
  -7  -9  -1   36.25    3.24
   9 -16   1   28.47    3.37
 -16   7   1   29.22    2.99
  16 -10  -1   13.70    2.55
 -10  -6  -1   14.12    2.36
 -10  -6  -1   12.27    2.08
   6 -16   1   13.03    2.56
   6 -16   1   14.75    2.77
 -16  10   1   13.13    2.56
  13 -10  -1   10.44    1.64
 -10  -3  -1   12.90    1.95
  13 -10  -1   11.54    2.14
 -10  -3  -1    8.89    1.38
 -13  10   1   13.47    2.28
   3 -13   1   14.71    1.93
   3 -13   1   11.27    2.05
   3 -13   1   11.83    2.01
  10 -10  -1  232.85    6.80
  10 -10  -1  241.78    6.89
 -10   0  -1  229.55    6.39
   0 -10   1  227.19    6.63
 -10  10   1  224.40    7.02
   0 -10   1  230.17    6.87
  10   0   1  237.79    6.45
   0 -10   1  233.50    6.48
 -10   3  -1   13.24    1.30
   7 -10  -1    9.28    1.52
   7 -10  -1   13.69    1.55
 -10   3  -1   13.18    1.48
  -3  -7   1   14.16    1.54
  -3  -7   1   12.43    1.55
  -3  -7   1   16.68    1.52
  10  -3   1   15.17    1.63
   4 -10  -1  227.75    5.89
 -10   6  -1  228.32    6.58
   4 -10  -1  226.22    6.72
   4 -10  -1  231.25    6.36
  -6  -4   1  239.00    6.33
  10  -6   1  226.72    6.52
  -6  -4   1  237.24    6.01
   1 -10  -1    3.21    1.20
   9   1  -1    4.60    1.03
   1 -10  -1    4.17    1.22
   1 -10  -1    4.25    1.22
 -10   9  -1    4.04    1.48
  -9  -1   1    4.51    1.00
  10  -9   1    3.12    1.07
  -9  -1   1    5.24    1.19
  10  -9   1    5.02    1.37
  -2 -10  -1   15.97    2.03
  -2 -10  -1   18.13    2.01
  12  -2  -1   18.62    2.02
  -2 -10  -1   18.75    2.05
  10 -12   1   19.94    2.25
 -12   2   1   15.33    1.77
  10 -12   1   15.74    1.99
  -5 -10  -1   82.15    4.28
  -5 -10  -1   83.41    4.00
  -5 -10  -1   79.67    4.12
  15  -5  -1   75.79    4.38
  10 -15   1   72.92    3.78
 -15   5   1   73.38    3.81
  10 -15   1   79.77    4.80
 -11  -4  -1  128.34    4.55
 -11  -4  -1  132.09    5.34
  15 -11  -1  134.81    5.82
   4 -15   1  128.33    4.86
   4 -15   1  126.32    5.42
   4 -15   1  133.13    5.96
 -15  11   1  127.34    5.92
  12 -11  -1    0.25    1.23
  12 -11  -1   -0.59    1.33
 -11  -1  -1   -1.48    1.14
 -11  -1  -1   -1.41    0.76
  11   1   1    0.94    1.10
   1 -12   1   -0.84    1.17
   1 -12   1    1.15    1.28
   1 -12   1   -1.51    1.21
   9 -11  -1   27.67    2.27
   9 -11  -1   24.36    2.26
 -11   2  -1   30.36    2.09
  11  -2   1   28.89    2.33
  -2  -9   1   29.59    2.36
  -2  -9   1   25.54    2.20
  -2  -9   1   27.26    2.29
 -11   5  -1  160.58    5.07
   6 -11  -1  154.78    5.39
   6 -11  -1  165.50    4.72
   6 -11  -1  148.89    4.97
  -5  -6   1  157.85    5.00
  -5  -6   1  158.76    4.76
  -5  -6   1  167.92    4.76
  11  -5   1  156.80    5.19
   3 -11  -1   66.19    3.37
 -11   8  -1   67.52    3.38
   3 -11  -1   67.21    3.23
   3 -11  -1   70.36    2.95
  -8  -3   1   65.17    3.07
  -8  -3   1   65.22    2.71
  11  -8   1   66.58    3.29
   0 -11  -1  166.62    5.26
  11   0  -1  154.95    4.99
   0 -11  -1  158.96    5.50
   0 -11  -1  148.11    5.18
  11 -11   1  155.16    5.36
 -11   0   1  151.94    5.02
  11 -11   1  159.48    5.35
 -11   0   1  146.37    4.42
  14  -3  -1   63.97    3.80
  -3 -11  -1   58.92    3.62
  -3 -11  -1   62.83    3.77
  -3 -11  -1   62.77    3.76
  11 -14   1   58.83    3.55
 -14   3   1   62.80    3.25
  11 -14   1   63.39    4.08
  -6 -11  -1    7.58    2.37
  -6 -11  -1    7.31    2.19
  17  -6  -1    9.67    2.65
  11 -17   1   12.26    2.71
 -17   6   1    9.93    2.18
  14 -12  -1   61.41    3.55
  14 -12  -1   54.79    3.92
 -12  -2  -1   59.23    3.59
   2 -14   1   59.24    3.61
   2 -14   1   56.95    3.91
   2 -14   1   55.29    4.01
  11 -12  -1   32.72    2.79
  11 -12  -1   36.31    2.92
 -12   1  -1   43.22    2.69
  -1 -11   1   37.85    2.97
  -1 -11   1   42.36    2.92
  12  -1   1   35.58    2.67
  -1 -11   1   40.76    2.94
 -12   4  -1  177.14    5.52
 -12   4  -1  174.34    5.00
   8 -12  -1  179.51    6.11
   8 -12  -1  189.24    5.51
  -4  -8   1  193.47    5.61
  -4  -8   1  184.69    5.59
  12  -4   1  171.92    5.78
  -4  -8   1  180.86    5.69
 -12   7  -1    5.92    1.60
   5 -12  -1    5.90    1.48
   5 -12  -1    6.44    1.55
   5 -12  -1    4.16    1.19
  -7  -5   1    5.31    1.22
  12  -7   1    6.75    1.53
  -7  -5   1    4.80    1.37
   2 -12  -1   49.88    2.92
  10   2  -1   52.73    2.53
 -12  10  -1   47.71    3.35
   2 -12  -1   45.60    3.08
   2 -12  -1   42.33    3.20
 -10  -2   1   44.68    2.89
  12 -10   1   51.07    3.29
  12 -10   1   51.26    2.93
 -10  -2   1   47.61    2.45
  -1 -12  -1   26.86    2.67
  -1 -12  -1   31.85    2.87
  -1 -12  -1   31.54    2.81
  13  -1  -1   39.77    2.95
 -13   1   1   33.71    2.69
  12 -13   1   30.12    2.80
  12 -13   1   33.15    2.92
  -4 -12  -1    0.00    1.79
  16  -4  -1    4.97    2.09
  -4 -12  -1    3.76    2.03
  -4 -12  -1    4.46    1.95
  12 -16   1    0.17    1.75
  12 -16   1    5.96    2.35
 -13  -3  -1    5.59    2.10
  16 -13  -1    7.31    2.64
   3 -16   1    3.88    2.34
   3 -16   1    7.57    1.97
   3 -16   1    6.42    2.29
  13 -13  -1   33.66    3.10
  13 -13  -1   30.83    3.04
 -13   0  -1   33.76    2.80
   0 -13   1   32.67    2.96
   0 -13   1   34.90    3.09
  13   0   1   32.45    2.69
   0 -13   1   28.61    2.84
  10 -13  -1   47.23    3.05
  10 -13  -1   56.61    3.56
 -13   3  -1   47.25    2.71
  13  -3   1   52.88    3.23
  -3 -10   1   53.18    3.28
  -3 -10   1   56.84    3.26
  -3 -10   1   42.46    2.96
   7 -13  -1   22.17    2.48
 -13   6  -1   27.39    2.55
   7 -13  -1   21.90    2.32
  13  -6   1   30.16    2.73
  -6  -7   1   29.82    2.32
  -6  -7   1   26.80    2.44
  -6  -7   1   30.67    2.20
   4 -13  -1   64.27    3.61
   4 -13  -1   65.25    3.15
 -13   9  -1   65.96    3.80
   4 -13  -1   65.99    3.92
  -9  -4   1   60.83    2.92
  -9  -4   1   69.13    3.47
  13  -9   1   69.11    3.80
   1 -13  -1    7.59    1.89
   1 -13  -1    6.35    1.95
   1 -13  -1    5.88    1.80
  12   1  -1    7.44    1.67
 -12  -1   1    8.42    1.42
 -12  -1   1    5.62    1.63
  13 -12   1    5.62    1.82
  13 -12   1    7.57    1.85
  -2 -13  -1   11.03    2.22
  -2 -13  -1   11.63    2.28
  15  -2  -1   17.22    2.53
  -2 -13  -1    8.14    2.13
  13 -15   1   12.18    2.44
 -15   2   1   13.77    2.18
  13 -15   1   13.60    2.38
  15 -14  -1    4.99    2.28
 -14  -1  -1    5.37    1.88
   1 -15   1    1.99    1.83
   1 -15   1    0.43    1.93
   1 -15   1    2.10    1.93
  12 -14  -1   11.49    2.35
 -14   2  -1   12.44    1.88
  12 -14  -1   18.05    2.55
  14  -2   1   14.23    2.14
  -2 -12   1   13.13    2.15
  -2 -12   1   15.26    2.34
  -2 -12   1   11.73    2.07
 -14   5  -1    0.38    0.97
   9 -14  -1   -1.78    1.50
   9 -14  -1    0.34    1.17
 -14   5  -1   -1.29    1.24
  -5  -9   1   -1.18    1.31
  -5  -9   1    2.69    1.25
  14  -5   1   -0.03    1.50
  -5  -9   1    0.23    1.33
 -14   8  -1   27.29    2.91
   6 -14  -1   25.01    2.62
   6 -14  -1   25.70    2.88
  14  -8   1   28.40    2.85
  -8  -6   1   24.54    2.18
  -8  -6   1   26.16    2.55
 -14  11  -1    6.94    2.19
   3 -14  -1    8.29    2.03
   3 -14  -1    7.74    1.76
   3 -14  -1    6.01    1.95
  14 -11   1   10.64    2.20
 -11  -3   1    4.78    1.34
 -11  -3   1    8.06    1.86
   0 -14  -1    3.61    1.87
  14   0  -1   -0.02    1.59
   0 -14  -1   -0.47    1.75
   0 -14  -1   -0.48    1.76
  14 -14   1    5.04    2.01
 -14   0   1    4.14    1.80
  14 -14   1    1.75    1.74
 -15   1  -1   22.88    2.63
  14 -15  -1   23.38    3.04
  14 -15  -1   25.76    3.08
  15  -1   1   24.65    2.70
  -1 -14   1   29.77    3.36
  -1 -14   1   25.95    3.04
  -1 -14   1   28.45    3.16
  11 -15  -1    2.67    1.95
 -15   4  -1    3.88    1.37
  11 -15  -1    2.64    1.57
  -4 -11   1    5.00    1.71
  -4 -11   1   -0.55    1.55
  15  -4   1    3.46    1.80
  -4 -11   1    4.48    1.77
 -15   7  -1    5.50    1.81
   8 -15  -1    0.45    1.80
  15  -7   1    1.46    1.70
  -7  -8   1    3.51    1.66
  -7  -8   1    2.52    1.47
 -15  10  -1   86.67    4.81
   5 -15  -1   86.75    4.58
   5 -15  -1   84.01    3.80
   5 -15  -1   88.83    4.85
 -10  -5   1   80.46    4.26
 -10  -5   1   82.09    3.68
  15 -10   1   81.79    4.63
   2 -15  -1   -1.65    1.77
   2 -15  -1   -0.44    1.67
   2 -15  -1    0.63    1.80
 -13  -2   1    0.83    1.66
  15 -13   1    0.44    1.95
  13 -16  -1   12.49    2.52
  13 -16  -1   12.89    2.80
  -3 -13   1   14.49    2.61
  16  -3   1   13.61    2.53
  -3 -13   1   15.45    2.64
  -3 -13   1    9.84    2.33
 -16   6  -1  112.45    4.85
  10 -16  -1  112.47    5.74
  -6 -10   1  118.73    5.16
  -6 -10   1  110.82    4.87
  16  -6   1  119.30    5.55
 -16   9  -1    7.66    2.21
   7 -16  -1    8.76    2.31
   7 -16  -1    9.72    2.51
  -9  -7   1   15.83    2.42
  -9  -7   1    7.83    1.91
  16  -9   1   11.57    2.55
   4 -16  -1   22.43    3.19
   4 -16  -1   30.01    3.31
   4 -16  -1   24.05    2.78
 -16  12  -1   14.62    3.38
  16 -12   1   22.48    3.09
 -12  -4   1   18.69    2.68
 -12  -4   1   19.24    2.14
 -17   8  -1    7.55    2.41
   9 -17  -1   12.47    2.77
  -8  -9   1   12.93    2.17
  17  -8   1    6.86    2.56
  -8  -9   1    7.54    2.26
   6 -17  -1   -2.05    2.13
 -17  11  -1    1.31    2.16
   6 -17  -1    2.07    2.27
 -11  -6   1    0.50    1.57
  17 -11   1    2.85    2.28
 -11  -6   1    2.33    1.96
   0  -1  -2  246.06    5.65
  -1   1  -2  258.19    5.53
   0  -1  -2  248.84    5.35
   0  -1  -2  253.84    5.33
   1  -1   2  242.37    5.45
   1  -1   2  251.93    5.52
  -1   0   2  255.57    5.51
   2  -2  -2   23.56    1.02
   2  -2  -2   25.40    1.06
   2   0   2   25.71    0.97
  -2   2   2   25.91    1.05
   0  -2   2   27.21    1.02
   0  -2   2   27.90    0.98
  -1  -2  -2  751.43   16.53
  -1  -2  -2  768.95   15.67
   3  -1  -2  744.14   16.04
  -2   3  -2  754.10   16.19
  -1  -2  -2  750.91   15.71
   2  -3   2  721.30   15.60
  -3   1   2  765.68   16.24
   2  -3   2  749.16   16.14
   2  -3   2  713.33   15.94
  -3  -1  -2  245.79    5.26
   4  -3  -2  238.41    5.63
   4  -3  -2  225.60    5.58
  -3  -1  -2  234.91    5.44
   1  -4   2  230.29    5.44
   3   1   2  238.45    5.35
  -4   3   2  228.93    5.66
   1  -3  -2    6.35    0.69
   1  -3  -2    6.68    0.70
  -3   2  -2    7.76    0.79
   1  -3  -2    6.07    0.63
  -2  -1   2    6.52    0.67
   3  -2   2    7.71    0.71
  -2  -3  -2   19.31    1.35
  -3   5  -2   21.64    1.34
   5  -2  -2   21.33    1.31
  -2  -3  -2   21.78    1.19
  -2  -3  -2   21.16    1.23
   3  -5   2   17.76    1.33
   3  -5   2   19.53    1.26
  -5   2   2   22.09    1.40
   3  -5   2   17.59    1.10
   3  -5   2   21.09    1.12
   6  -4  -2    3.61    0.67
  -4  -2  -2    3.96    0.84
   6  -4  -2    2.90    0.84
  -4  -2  -2    3.53    0.66
  -6   4   2    2.74    0.83
   2  -6   2    2.79    0.64
   2  -6   2    4.34    0.87
   2  -6   2    3.07    0.78
   3  -4  -2   19.24    1.30
  -4   1  -2   20.52    1.21
   3  -4  -2   21.61    1.11
  -4   1  -2   19.98    1.04
   3  -4  -2   20.14    1.18
  -1  -3   2   20.73    1.19
  -3   4   2   21.53    1.19
  -1  -3   2   22.19    1.21
   4  -1   2   20.55    1.17
  -4   4  -2   38.98    1.70
   0  -4  -2   40.38    1.64
   4   0  -2   37.02    1.45
   0  -4  -2   37.62    1.57
   0  -4  -2   37.88    1.66
   4  -4   2   38.28    1.70
  -4   0   2   39.54    1.47
   4  -4   2   39.30    1.36
   4  -4   2   38.49    1.53
  -4   0   2   37.94    1.53
   4  -4   2   37.03    1.57
  -3  -4  -2    3.57    0.88
   7  -3  -2    1.66    0.84
  -4   7  -2    3.26    0.81
  -3  -4  -2    5.24    0.78
  -3  -4  -2    3.63    0.77
  -7   3   2    2.93    0.67
   4  -7   2    3.35    0.81
   4  -7   2    2.92    0.89
  -7   3   2    2.79    0.87
   4  -7   2    3.45    0.71
  -5  -3  -2   21.49    1.67
   8  -5  -2   18.52    1.63
  -5  -3  -2   18.20    1.40
   3  -8   2   21.23    1.75
   3  -8   2   19.19    1.58
   3  -8   2   16.97    1.33
  -8   5   2   20.92    1.79
  -5   0  -2  595.98   13.34
   5  -5  -2  602.65   14.18
   5  -5  -2  606.56   13.78
   5  -5  -2  614.10   13.82
   0  -5   2  614.06   13.47
   0  -5   2  628.31   13.40
  -5   5   2  635.99   13.98
   0  -5   2  628.47   14.25
   5   0   2  634.85   13.63
   2  -5  -2   90.78    2.74
   2  -5  -2   90.09    2.57
  -5   3  -2   91.25    2.84
   2  -5  -2   93.46    2.92
  -3  -2   2   96.42    2.75
  -3  -2   2   96.27    2.64
   5  -3   2   89.90    2.76
  -5   6  -2  212.32    5.45
  -1  -5  -2  221.05    5.47
  -1  -5  -2  214.72    5.25
  -1  -5  -2  209.78    5.27
   6  -1  -2  210.11    5.28
   5  -6   2  198.70    5.22
   5  -6   2  200.97    5.22
   5  -6   2  208.12    5.04
  -6   1   2  202.77    5.09
   5  -6   2  202.39    5.45
  -6   1   2  214.11    5.26
  -4  -5  -2   15.14    1.24
  -4  -5  -2   12.98    1.30
   9  -4  -2   12.36    1.45
  -4  -5  -2   13.05    1.44
   5  -9   2   11.35    1.39
   5  -9   2   13.96    1.21
   5  -9   2   10.75    1.33
  -9   4   2   10.28    1.07
  -9   4   2   11.72    1.44
  10  -6  -2  207.28    6.04
  -6  -4  -2  209.88    5.40
  -6  -4  -2  208.46    5.77
   4 -10   2  194.54    5.19
   4 -10   2  199.72    6.09
   4 -10   2  198.94    5.77
 -10   6   2  208.02    6.09
   7  -6  -2   11.41    1.29
  -6  -1  -2   10.64    0.92
  -6  -1  -2    9.81    1.12
   7  -6  -2    9.74    1.13
   1  -7   2    7.13    0.98
   1  -7   2   13.14    1.29
  -7   6   2   12.03    1.42
   1  -7   2   11.33    1.25
   6   1   2   10.17    1.03
  -6   2  -2    5.42    0.91
   4  -6  -2    6.58    0.86
  -6   2  -2    6.64    0.73
   4  -6  -2    5.96    0.95
   4  -6  -2    6.00    0.90
  -2  -4   2    6.79    0.91
  -2  -4   2    6.35    0.87
   6  -2   2    5.17    0.86
   1  -6  -2  121.26    3.47
   1  -6  -2  127.19    3.83
   1  -6  -2  126.62    3.62
   5   1  -2  130.49    3.34
  -6   5  -2  127.23    3.74
  -5  -1   2  126.91    3.35
   6  -5   2  120.94    3.60
   6  -5   2  124.61    3.50
  -5  -1   2  124.69    3.53
  -2  -6  -2  183.00    4.95
  -2  -6  -2  181.58    4.84
  -2  -6  -2  181.60    4.99
   8  -2  -2  182.33    4.95
  -6   8  -2  175.29    5.03
  -8   2   2  177.26    4.85
   6  -8   2  172.69    4.67
   6  -8   2  169.38    5.08
   6  -8   2  172.38    4.68
  -8   2   2  171.61    4.62
   6  -8   2  172.57    4.80
  -5  -6  -2   63.22    2.65
  -5  -6  -2   62.29    3.04
  11  -5  -2   55.87    3.04
  -5  -6  -2   55.88    2.73
 -11   5   2   56.85    2.38
   6 -11   2   62.32    2.55
   6 -11   2   56.74    2.93
 -11   5   2   59.15    2.97
   6 -11   2   56.04    3.16
  12  -7  -2   -0.29    1.16
  -7  -5  -2    0.18    0.90
  -7  -5  -2   -1.05    1.04
 -12   7   2   -0.78    1.14
   5 -12   2   -0.12    1.15
   5 -12   2    1.90    0.97
   5 -12   2    0.85    1.23
  -7  -2  -2  311.62    7.71
   9  -7  -2  310.15    7.82
   9  -7  -2  309.28    8.04
  -7  -2  -2  313.57    7.29
   2  -9   2  303.14    7.46
   2  -9   2  301.30    8.20
  -9   7   2  298.71    8.11
   7   2   2  310.32    7.39
   2  -9   2  310.21    7.82
  -7   1  -2   43.91    1.82
   6  -7  -2   42.32    1.87
   6  -7  -2   45.00    2.20
   6  -7  -2   44.68    2.08
  -7   1  -2   39.75    1.81
  -1  -6   2   45.57    2.06
  -1  -6   2   45.59    2.09
  -1  -6   2   48.34    2.11
   7  -1   2   43.44    1.94
  -6   7   2   43.07    2.11
  -7   4  -2  492.16   11.41
   3  -7  -2  483.94   11.03
   3  -7  -2  482.73   11.71
   3  -7  -2  467.79   10.69
  -4  -3   2  503.77   10.88
   7  -4   2  483.15   11.27
  -4  -3   2  492.23   11.01
   0  -7  -2    0.04    0.75
   7   0  -2    0.04    0.60
   0  -7  -2    0.08    0.78
   0  -7  -2    0.27    0.74
  -7   7  -2    1.11    0.82
   7  -7   2    0.57    0.76
   7  -7   2    0.71    0.74
  -7   0   2    0.61    0.71
   7  -7   2    0.53    0.72
  -7  10  -2   65.02    3.18
  -3  -7  -2   72.10    3.08
  -3  -7  -2   65.24    2.87
  10  -3  -2   70.58    3.07
  -3  -7  -2   77.76    2.97
   7 -10   2   71.65    2.90
   7 -10   2   66.47    2.83
 -10   3   2   74.54    2.97
   7 -10   2   68.38    3.26
 -10   3   2   73.33    2.72
  13  -6  -2   51.77    3.37
  -6  -7  -2   53.56    2.97
  -6  -7  -2   55.22    3.28
  -6  -7  -2   62.97    2.80
   7 -13   2   49.08    3.20
   7 -13   2   52.56    3.52
 -13   6   2   51.43    2.42
 -13   6   2   58.26    3.31
  -8  -6  -2   85.97    3.74
  -8  -6  -2   87.71    4.13
  14  -8  -2   96.74    4.52
   6 -14   2   87.20    4.55
 -14   8   2   84.56    4.33
   6 -14   2   92.01    4.27
  -8  -3  -2   -1.00    0.95
  -8  -3  -2    0.70    0.81
  11  -8  -2   -0.15    0.86
  11  -8  -2   -0.64    1.08
   3 -11   2   -0.95    0.87
   3 -11   2   -0.52    1.03
 -11   8   2    0.41    1.25
   3 -11   2   -0.22    1.06
  -8   0  -2   90.76    3.17
   8  -8  -2   94.42    3.38
   8  -8  -2   92.74    3.41
   8  -8  -2   88.96    3.15
   0  -8   2   93.20    3.24
   8   0   2   92.97    3.09
   0  -8   2   93.85    3.45
  -8   8   2   90.81    3.51
   0  -8   2   94.34    3.32
   5  -8  -2   81.31    2.96
   5  -8  -2   84.41    3.25
  -8   3  -2   82.35    2.95
   5  -8  -2   85.85    2.87
  -8   3  -2   82.33    2.52
  -3  -5   2   82.15    2.97
   8  -3   2   86.03    3.01
  -3  -5   2   84.03    2.89
  -3  -5   2   93.62    2.90
  -8   6  -2    5.57    1.19
   2  -8  -2    6.10    1.11
   2  -8  -2    3.95    1.02
   2  -8  -2    6.04    1.04
  -6  -2   2    6.69    0.91
   8  -6   2    5.49    1.03
   8  -6   2    4.87    0.86
  -6  -2   2    6.11    1.03
  -1  -8  -2   66.06    2.89
   9  -1  -2   62.64    2.67
  -1  -8  -2   63.60    2.79
  -8   9  -2   60.22    2.94
  -1  -8  -2   63.68    2.81
   8  -9   2   60.15    2.84
   8  -9   2   63.02    2.80
   8  -9   2   60.24    2.49
  -9   1   2   61.02    2.59
  12  -4  -2    2.76    1.42
  -4  -8  -2    4.05    1.34
  -4  -8  -2    5.18    1.35
  -4  -8  -2    0.66    1.15
 -12   4   2    3.96    1.06
 -12   4   2    4.21    1.40
   8 -12   2    2.69    1.19
   8 -12   2    4.03    1.19
   8 -12   2    4.69    1.56
  15  -7  -2    4.88    1.88
  -7  -8  -2    9.24    1.71
  -7  -8  -2    4.46    1.76
   8 -15   2    4.55    1.85
 -15   7   2    6.18    1.80
   8 -15   2    3.61    2.08
  -9  -7  -2    6.67    2.06
  -9  -7  -2    7.09    1.73
  16  -9  -2    7.72    2.26
   7 -16   2    2.46    1.91
   7 -16   2    9.55    2.51
 -16   9   2    9.86    2.26
  13  -9  -2    0.34    1.45
  -9  -4  -2    2.55    1.10
  -9  -4  -2   -0.08    1.28
   4 -13   2    0.48    1.38
   4 -13   2    1.79    1.41
 -13   9   2    1.52    1.56
   4 -13   2    2.63    1.37
  10  -9  -2    1.14    1.03
  10  -9  -2   -0.74    1.03
  -9  -1  -2    0.25    0.96
 -10   9   2   -0.25    1.07
   9   1   2   -0.64    0.77
   1 -10   2    1.26    1.01
   1 -10   2    0.80    0.98
   1 -10   2   -0.23    0.97
   7  -9  -2    1.72    1.07
   7  -9  -2    1.88    1.04
  -9   2  -2    5.31    0.93
  -9   2  -2    3.13    0.97
  -2  -7   2    5.12    1.05
  -2  -7   2    5.76    1.08
   9  -2   2    5.77    1.07
  -7   9   2    3.43    1.13
  -2  -7   2    4.13    1.09
   4  -9  -2   50.36    2.58
   4  -9  -2   46.02    2.02
   4  -9  -2   43.38    2.36
  -9   5  -2   42.47    2.39
  -5  -4   2   46.94    1.93
  -5  -4   2   47.62    2.13
  -5  -4   2   45.29    2.31
   9  -5   2   43.40    2.31
   1  -9  -2    7.04    1.28
   1  -9  -2    6.84    1.29
   1  -9  -2    6.51    1.22
   8   1  -2    7.30    1.11
  -9   8  -2    8.29    1.54
   9  -8   2    6.72    1.24
  -8  -1   2    7.30    1.20
   9  -8   2    5.84    1.10
  -8  -1   2    7.46    0.99
  -2  -9  -2   22.41    2.07
  11  -2  -2   22.99    2.14
  -2  -9  -2   22.41    2.09
  -2  -9  -2   26.22    2.26
   9 -11   2   25.24    2.10
 -11   2   2   25.91    1.93
   9 -11   2   24.02    2.25
 -11   2   2   25.86    2.04
  -5  -9  -2   20.09    2.16
  -5  -9  -2   19.82    2.26
  -5  -9  -2   12.07    2.04
  14  -5  -2   18.16    2.39
   9 -14   2   18.97    2.06
 -14   5   2   15.12    1.72
 -14   5   2   14.77    2.11
   9 -14   2   19.26    2.56
  -8  -9  -2    0.83    1.94
  17  -8  -2    2.11    2.11
  -8  -9  -2   -1.93    1.64
   9 -17   2   -1.53    2.13
 -17   8   2    0.56    1.90
 -10  -5  -2   40.55    3.27
  15 -10  -2   41.24    3.54
 -10  -5  -2   40.91    2.92
   5 -15   2   52.00    3.79
   5 -15   2   40.00    3.62
 -15  10   2   40.94    3.64
 -10  -2  -2    0.81    1.24
  12 -10  -2   -0.56    1.30
 -10  -2  -2   -0.54    0.86
   2 -12   2    0.30    1.30
 -12  10   2    0.24    1.45
  10   2   2    0.57    0.98
   2 -12   2   -0.98    1.19
   2 -12   2    1.07    1.22
 -10   1  -2  122.08    3.93
   9 -10  -2  117.30    4.22
   9 -10  -2  118.92    4.37
  10  -1   2  121.44    4.08
  -1  -9   2  121.71    4.18
  -1  -9   2  116.08    4.14
  -1  -9   2  124.99    4.31
 -10   4  -2    6.40    0.96
   6 -10  -2    5.61    1.35
   6 -10  -2    8.67    1.50
 -10   4  -2    8.10    1.32
   6 -10  -2    8.05    1.27
  10  -4   2    6.75    1.28
  -4  -6   2    6.06    1.23
  -4  -6   2    7.57    1.23
  -4  -6   2    8.41    1.16
   3 -10  -2    5.96    1.30
 -10   7  -2    8.48    1.54
   3 -10  -2   10.12    1.33
   3 -10  -2    7.86    1.34
  -7  -3   2    9.71    1.43
  -7  -3   2    8.55    1.17
  10  -7   2    6.51    1.27
  10   0  -2  175.42    5.14
   0 -10  -2  164.91    5.29
   0 -10  -2  171.49    5.59
   0 -10  -2  178.75    5.32
 -10  10  -2  158.91    5.64
 -10   0   2  165.85    5.11
  10 -10   2  163.50    5.39
  10 -10   2  172.15    5.43
 -10   0   2  165.38    4.65
  -3 -10  -2   14.12    2.06
  -3 -10  -2   15.71    2.03
  13  -3  -2   14.56    2.03
  -3 -10  -2   15.00    2.01
  10 -13   2   16.37    2.17
  10 -13   2   13.22    1.87
 -13   3   2   12.71    1.68
  16  -6  -2   71.57    4.60
  -6 -10  -2   77.68    4.43
  -6 -10  -2   74.50    4.13
 -16   6   2   70.31    4.09
  10 -16   2   76.62    5.04
  17 -11  -2   -0.35    2.26
 -11  -6  -2    0.69    1.86
 -11  -6  -2    0.39    1.53
 -17  11   2    3.83    2.30
   6 -17   2    1.66    2.10
   6 -17   2    1.58    2.24
  14 -11  -2    5.93    1.87
 -11  -3  -2    2.86    1.63
 -11  -3  -2    4.38    1.26
   3 -14   2    2.85    1.75
   3 -14   2    2.97    1.69
   3 -14   2    1.97    1.43
  11 -11  -2   73.08    3.69
 -11   0  -2   70.96    3.32
  11 -11  -2   76.29    3.74
  11   0   2   75.62    3.29
   0 -11   2   69.87    3.49
   0 -11   2   70.12    3.64
   0 -11   2   70.80    3.39
   8 -11  -2   72.59    3.62
 -11   3  -2   70.84    2.78
 -11   3  -2   68.00    2.94
   8 -11  -2   72.18    3.16
  11  -3   2   78.77    3.32
  -3  -8   2   79.87    3.38
  -3  -8   2   73.04    3.22
  -3  -8   2   76.06    3.19
   5 -11  -2  130.84    4.01
   5 -11  -2  129.27    4.93
   5 -11  -2  131.88    4.56
 -11   6  -2  129.90    4.70
  -6  -5   2  139.16    4.52
  -6  -5   2  142.60    4.26
  11  -6   2  137.29    4.69
   2 -11  -2   66.03    3.06
 -11   9  -2   61.47    3.39
   2 -11  -2   64.29    3.43
   9   2  -2   68.14    2.68
   2 -11  -2   68.44    3.31
  -9  -2   2   67.07    3.11
  11  -9   2   63.68    3.30
  -9  -2   2   63.07    2.65
  11  -9   2   64.66    2.99
  12  -1  -2   14.30    1.93
  -1 -11  -2   14.34    2.05
  -1 -11  -2   14.13    2.01
  -1 -11  -2   16.64    2.08
 -12   1   2   16.12    1.94
  11 -12   2   13.72    2.05
  11 -12   2   13.96    1.98
 -12   1   2   13.89    1.40
  -4 -11  -2    1.58    1.68
  -4 -11  -2    1.65    1.69
  -4 -11  -2   -1.14    1.41
  15  -4  -2    0.64    1.73
 -15   4   2    0.96    1.35
  11 -15   2    2.91    1.55
  11 -15   2   -2.18    1.71
 -15   4   2    1.83    1.28
  16 -12  -2   30.50    3.58
 -12  -4  -2   31.54    3.14
   4 -16   2   36.64    3.63
   4 -16   2   27.59    3.34
  13 -12  -2   84.52    4.22
 -12  -1  -2   91.00    4.08
  13 -12  -2  101.60    4.64
  12   1   2   97.25    3.94
   1 -13   2   99.76    4.25
   1 -13   2   90.66    4.33
   1 -13   2   88.50    4.48
  10 -12  -2    1.17    1.47
 -12   2  -2    3.65    1.23
  10 -12  -2    4.56    1.43
  -2 -10   2    2.40    1.42
  -2 -10   2    2.27    1.30
  12  -2   2    3.17    1.32
  -2 -10   2    2.66    1.32
   7 -12  -2    6.92    1.56
 -12   5  -2    8.23    1.56
   7 -12  -2    5.57    1.62
 -12   5  -2    6.51    1.02
  12  -5   2    7.32    1.55
  -5  -7   2    7.85    1.39
  -5  -7   2    6.73    1.44
  -5  -7   2    7.15    1.26
   4 -12  -2   86.83    3.34
 -12   8  -2   79.68    3.84
   4 -12  -2   87.04    4.06
   4 -12  -2   77.79    3.72
  12  -8   2   84.25    3.84
  -8  -4   2   74.54    3.11
  -8  -4   2   84.41    3.61
   1 -12  -2    1.15    1.34
  11   1  -2    2.67    1.13
   1 -12  -2    1.62    1.46
   1 -12  -2    1.67    1.30
 -12  11  -2   -0.22    1.49
 -11  -1   2    2.58    1.01
  12 -11   2   -0.83    1.34
  12 -11   2    0.93    1.29
 -11  -1   2    3.98    1.36
  14  -2  -2  117.86    4.76
  -2 -12  -2  103.94    4.81
  -2 -12  -2  107.71    4.81
  -2 -12  -2  103.03    4.69
 -14   2   2   91.44    4.16
  12 -14   2  102.42    4.64
  12 -14   2  102.10    4.94
  15 -13  -2   23.85    3.16
 -13  -2  -2   29.81    2.93
   2 -15   2   27.08    2.93
   2 -15   2   21.16    2.93
   2 -15   2   21.88    2.97
  12 -13  -2    1.28    1.67
  12 -13  -2   -2.06    1.38
 -13   1  -2   -0.94    1.24
  -1 -12   2   -0.21    1.36
  -1 -12   2    1.57    1.42
  13  -1   2    1.39    1.41
  -1 -12   2    2.04    1.47
   9 -13  -2  106.98    4.17
 -13   4  -2  104.87    3.99
   9 -13  -2  109.58    4.76
 -13   4  -2  102.93    3.63
  -4  -9   2  108.28    4.15
  13  -4   2  106.95    4.47
  -4  -9   2  102.53    4.34
  -4  -9   2  105.98    4.26
   6 -13  -2   -0.37    1.26
 -13   7  -2   -1.66    1.28
   6 -13  -2    1.35    1.36
  -7  -6   2    1.33    1.11
  13  -7   2   -0.45    1.19
  -7  -6   2    0.85    1.17
 -13  10  -2   42.96    3.36
   3 -13  -2   47.65    3.50
   3 -13  -2   47.71    2.95
   3 -13  -2   44.40    3.25
 -10  -3   2   42.90    2.50
  13 -10   2   42.91    3.33
 -10  -3   2   44.33    3.03
   0 -13  -2    7.10    1.94
  13   0  -2    8.31    1.92
   0 -13  -2    6.44    1.90
   0 -13  -2    7.51    1.90
  13 -13   2    6.78    1.86
 -13   0   2    5.54    1.31
 -13   0   2    8.23    1.83
  13 -13   2    4.91    1.86
  16  -3  -2    5.63    2.22
  -3 -13  -2    1.35    2.01
  -3 -13  -2   -0.08    1.92
  -3 -13  -2    3.18    2.05
 -16   3   2    4.25    1.70
  13 -16   2    5.60    2.15
  13 -16   2    6.23    2.32
  14 -14  -2    3.21    2.00
  14 -14  -2   -0.02    1.73
 -14   0  -2    2.26    1.67
  14   0   2   -1.09    1.45
   0 -14   2    1.69    1.81
   0 -14   2    0.51    1.77
   0 -14   2    2.33    1.76
  11 -14  -2    9.68    2.22
  11 -14  -2    6.78    1.87
 -14   3  -2   12.38    1.72
  14  -3   2   12.86    2.16
  -3 -11   2    8.03    1.91
  -3 -11   2   11.20    1.98
  -3 -11   2    8.19    1.88
 -14   6  -2    0.66    1.37
   8 -14  -2    0.13    1.55
  -6  -8   2   -0.13    1.36
  -6  -8   2   -0.15    1.24
  -6  -8   2    1.48    1.18
  14  -6   2   -1.33    1.37
 -14   9  -2   -1.67    1.51
   5 -14  -2   -0.82    1.42
   5 -14  -2   -0.57    1.15
   5 -14  -2   -1.04    1.39
  -9  -5   2   -0.02    1.12
  14  -9   2    0.22    1.49
  -9  -5   2   -0.26    1.37
   2 -14  -2    2.38    1.90
   2 -14  -2    1.37    1.65
   2 -14  -2    4.71    1.90
  14 -12   2    1.24    1.78
 -12  -2   2    1.17    1.18
 -12  -2   2    4.43    1.70
  14 -12   2    4.23    1.63
  15  -1  -2    9.12    2.25
  -1 -14  -2    8.43    2.28
  -1 -14  -2    7.33    2.28
  -1 -14  -2    6.86    2.22
  14 -15   2   10.18    2.49
  14 -15   2    3.42    2.02
 -15   1   2    6.59    2.04
 -15   2  -2   -1.29    1.32
  13 -15  -2    2.80    2.05
  13 -15  -2   -0.23    1.80
  -2 -13   2    4.21    1.84
  -2 -13   2    0.13    1.77
  15  -2   2    0.99    1.73
  -2 -13   2   -1.19    1.65
 -15   5  -2   57.57    3.36
  10 -15  -2   55.04    4.24
  -5 -10   2   61.71    3.61
  -5 -10   2   56.47    3.75
  15  -5   2   58.93    3.93
  -5 -10   2   65.05    3.55
   7 -15  -2   -4.29    1.54
 -15   8  -2   -1.11    1.62
   7 -15  -2   -0.79    1.56
  -8  -7   2   -1.14    1.40
  -8  -7   2    1.72    1.33
  15  -8   2    0.48    1.67
 -15  11  -2   77.72    4.72
   4 -15  -2   83.47    4.00
   4 -15  -2   72.22    4.69
   4 -15  -2   80.53    4.52
 -11  -4   2   77.75    3.56
 -11  -4   2   85.67    4.29
  15 -11   2   83.97    4.74
   1 -15  -2    1.27    2.09
   1 -15  -2    2.00    1.84
   1 -15  -2   -0.07    1.89
 -14  -1   2    0.64    1.81
  15 -14   2    2.82    2.13
  12 -16  -2    0.12    2.06
  -4 -12   2    3.94    1.82
  -4 -12   2    4.59    2.04
  -4 -12   2    5.60    1.92
  16  -4   2    3.87    2.05
 -16   7  -2   13.90    2.42
   9 -16  -2   16.47    2.73
  16  -7   2   19.04    2.74
  -7  -9   2   15.18    2.44
  -7  -9   2   22.27    2.58
   6 -16  -2    4.68    2.17
 -16  10  -2    8.98    2.45
   6 -16  -2    4.60    2.26
  16 -10   2    8.09    2.29
 -10  -6   2    8.53    1.65
 -10  -6   2    4.97    1.94
   3 -16  -2    9.32    2.20
   3 -16  -2   10.17    2.61
   3 -16  -2    8.28    2.51
 -13  -3   2   10.98    2.37
  16 -13   2   11.89    2.73
 -13  -3   2    7.20    1.65
  11 -17  -2   13.06    2.92
  17  -6   2   13.29    2.82
  -6 -11   2    8.46    2.27
  -6 -11   2   11.09    2.43
 -17   9  -2   86.87    5.01
   8 -17  -2   96.92    5.65
  17  -9   2   96.82    5.54
  -9  -8   2   90.73    4.49
  -9  -8   2   99.66    4.96
   0   0  -3  714.60   15.22
   0   0  -3  713.62   15.22
   0   0   3  713.41   15.22
  -1   2  -3   17.18    0.88
  -1  -1  -3   17.22    0.79
  -1  -1  -3   17.49    0.76
   2  -1  -3   16.76    0.86
  -1  -1  -3   16.98    0.86
  -2   1   3   16.95    0.93
   1   1   3   16.66    0.77
   1  -2   3   15.79    0.75
   1  -2   3   15.57    0.74
   1  -2   3   17.05    0.85
   1  -2  -3   14.95    0.91
  -2   1  -3   17.91    0.91
   2  -1   3   16.23    0.87
  -1  -1   3   18.14    0.77
   4  -2  -3  580.14   13.26
  -2  -2  -3  609.91   12.99
  -2  -2  -3  620.76   13.52
  -2  -2  -3  611.16   12.85
  -2   4  -3  608.19   13.31
   2  -4   3  584.46   13.03
   2  -4   3  620.52   13.22
   2  -4   3  587.81   12.89
  -4   2   3  620.49   13.47
  -3   0  -3   20.53    1.09
   3  -3  -3   18.54    1.16
   3  -3  -3   19.30    1.17
   3  -3  -3   24.34    1.23
  -3   3   3   20.17    1.21
   0  -3   3   21.92    1.13
   0  -3   3   19.45    1.07
   3   0   3   20.93    1.05
  -3   3  -3   14.65    1.04
   0  -3  -3   12.47    0.93
   0  -3  -3   15.15    1.11
   0  -3  -3   15.36    1.05
   3   0  -3   15.48    0.95
  -3   0   3   16.39    1.04
   3  -3   3   14.27    0.96
  -3  -3  -3   -0.67    0.48
  -3  -3  -3    0.32    0.54
  -3  -3  -3   -0.20    0.64
  -3   6  -3   -0.47    0.59
   6  -3  -3   -0.03    0.64
   3  -6   3    0.83    0.67
   3  -6   3    0.85    0.63
  -6   3   3    0.45    0.70
   3  -6   3    0.45    0.48
   5  -4  -3   42.41    1.85
  -4  -1  -3   43.92    1.49
  -4  -1  -3   40.66    1.72
   5  -4  -3   44.17    1.75
   1  -5   3   41.75    1.64
   4   1   3   45.41    1.60
  -5   4   3   41.71    1.86
   1  -5   3   44.81    1.77
   2  -4  -3    5.72    0.79
   2  -4  -3    6.53    0.79
   2  -4  -3    6.85    0.71
  -4   2  -3    7.43    0.84
  -2  -2   3    5.79    0.75
   4  -2   3    5.40    0.74
  -2  -2   3    6.03    0.72
  -1  -4  -3  260.05    6.13
  -4   5  -3  266.60    6.34
  -1  -4  -3  262.89    6.09
   5  -1  -3  255.12    6.15
  -1  -4  -3  268.48    6.36
   4  -5   3  241.72    6.35
   4  -5   3  262.90    6.19
   4  -5   3  248.41    6.10
   4  -5   3  253.38    5.90
  -5   1   3  263.78    6.24
   8  -4  -3   33.61    1.98
  -4  -4  -3   31.16    1.86
  -4  -4  -3   32.35    1.73
   4  -8   3   33.22    2.06
  -8   4   3   30.80    1.94
   4  -8   3   30.01    1.54
   4  -8   3   27.47    1.83
  -5  -2  -3   -0.14    0.55
  -5  -2  -3    0.07    0.68
   7  -5  -3    0.80    0.63
   7  -5  -3    0.69    0.76
   2  -7   3    0.83    0.72
   2  -7   3    0.30    0.69
   5   2   3    0.56    0.55
  -7   5   3    0.23    0.73
   2  -7   3   -0.59    0.54
   4  -5  -3  194.23    5.29
  -5   1  -3  212.28    4.99
   4  -5  -3  207.27    5.11
  -5   1  -3  198.77    4.81
   4  -5  -3  207.44    4.96
  -1  -4   3  209.86    5.03
   5  -1   3  203.00    5.07
  -4   5   3  206.61    5.14
  -1  -4   3  208.20    5.00
   1  -5  -3   50.38    1.97
   1  -5  -3   48.22    2.05
   4   1  -3   50.90    1.66
   1  -5  -3   50.27    1.85
  -5   4  -3   51.44    2.04
   5  -4   3   47.39    1.72
   5  -4   3   47.78    1.91
  -4  -1   3   51.04    1.90
  -2  -5  -3   12.19    1.12
  -2  -5  -3   12.71    1.19
   7  -2  -3   11.60    1.20
  -2  -5  -3   13.85    1.28
  -5   7  -3   15.49    1.36
  -7   2   3   12.54    1.24
   5  -7   3   12.87    1.12
   5  -7   3   14.06    1.20
   5  -7   3   12.77    1.11
  -7   2   3   14.11    1.15
   5  -7   3   13.42    1.27
  -5  -5  -3  126.24    4.25
  -5  -5  -3  134.75    4.03
  10  -5  -3  132.24    4.46
   5 -10   3  122.85    4.43
 -10   5   3  127.89    3.67
   5 -10   3  125.27    4.18
 -10   5   3  132.45    4.40
   9  -6  -3    6.47    1.26
   9  -6  -3    7.34    1.01
  -6  -3  -3    8.71    1.25
  -6  -3  -3    6.94    1.00
   3  -9   3    7.19    1.23
  -9   6   3    9.91    1.49
   3  -9   3    6.42    1.02
   3  -9   3    6.64    1.24
   6  -6  -3  182.53    5.04
   6  -6  -3  183.81    4.85
  -6   0  -3  181.36    4.70
   6  -6  -3  180.24    4.97
   0  -6   3  181.56    4.81
  -6   6   3  188.84    5.07
   6   0   3  184.86    4.75
   0  -6   3  188.98    4.76
   0  -6   3  188.14    5.08
  -6   3  -3  116.74    3.41
   3  -6  -3  115.68    3.60
   3  -6  -3  115.09    3.09
   3  -6  -3  112.23    3.33
  -3  -3   3  120.96    3.26
   6  -3   3  115.24    3.38
  -3  -3   3  113.07    3.31
   0  -6  -3  191.94    4.99
   0  -6  -3  190.65    5.03
   6   0  -3  198.92    4.91
   0  -6  -3  196.52    5.27
  -6   6  -3  194.24    5.24
  -6   0   3  191.27    4.92
   6  -6   3  190.06    5.05
  -6   0   3  190.92    4.81
   6  -6   3  186.69    5.07
   9  -3  -3   68.96    2.82
  -6   9  -3   61.02    2.75
  -3  -6  -3   66.87    2.64
  -3  -6  -3   66.75    2.64
  -3  -6  -3   63.33    2.76
  -9   3   3   63.61    2.45
   6  -9   3   66.75    2.65
   6  -9   3   63.30    2.55
  -9   3   3   63.24    2.69
   6  -9   3   66.32    2.93
  12  -6  -3    0.43    1.16
  -6  -6  -3    3.64    1.29
  -6  -6  -3    1.72    1.08
   6 -12   3    0.77    1.25
 -12   6   3    1.85    1.30
   6 -12   3    3.78    1.38
 -12   6   3    0.72    0.81
  -7  -4  -3   27.45    2.18
  11  -7  -3   27.44    2.43
  -7  -4  -3   28.90    1.91
   4 -11   3   26.48    1.84
   4 -11   3   23.50    2.14
   4 -11   3   26.27    2.18
 -11   7   3   22.11    2.28
   8  -7  -3  123.62    3.94
   8  -7  -3  124.87    4.10
   8  -7  -3  123.27    3.95
  -7  -1  -3  124.97    3.82
  -7  -1  -3  129.07    3.43
   1  -8   3  126.47    3.92
  -8   7   3  126.13    4.13
   1  -8   3  128.19    3.77
   7   1   3  127.08    3.64
   1  -8   3  126.24    4.12
   5  -7  -3    2.47    0.86
  -7   2  -3    0.70    0.69
   5  -7  -3    2.48    0.77
  -7   2  -3    1.42    0.58
  -2  -5   3    1.96    0.74
  -2  -5   3    1.72    0.79
   7  -2   3    1.88    0.77
  -5   7   3    2.21    0.79
   2  -7  -3   18.92    1.53
  -7   5  -3   20.32    1.65
   2  -7  -3   19.33    1.41
   2  -7  -3   20.58    1.67
  -5  -2   3   20.44    1.54
   7  -5   3   17.76    1.44
  -5  -2   3   17.23    1.33
  -1  -7  -3  120.97    3.79
  -1  -7  -3  121.68    3.89
  -7   8  -3  117.12    3.97
   8  -1  -3  120.93    3.69
  -1  -7  -3  116.75    3.75
  -8   1   3  118.79    3.62
  -8   1   3  119.21    3.55
   7  -8   3  117.19    3.86
   7  -8   3  116.81    3.75
   7  -8   3  112.33    3.57
  -4  -7  -3   -0.12    1.06
  -4  -7  -3   -1.25    0.87
  11  -4  -3    1.30    1.06
  -4  -7  -3    1.57    0.98
   7 -11   3    0.41    1.10
   7 -11   3   -0.31    0.90
   7 -11   3   -0.89    0.94
 -11   4   3    1.12    0.90
 -11   4   3    1.21    1.10
  14  -7  -3   57.43    3.74
  -7  -7  -3   62.72    3.63
  -7  -7  -3   65.17    3.29
 -14   7   3   64.38    3.72
   7 -14   3   62.52    4.00
   7 -14   3   59.22    3.61
  -8  -5  -3    3.00    1.47
  13  -8  -3    3.24    1.51
  -8  -5  -3    1.75    1.23
 -13   8   3    2.56    1.56
   5 -13   3    1.95    1.47
   5 -13   3    2.00    1.46
   5 -13   3    4.02    1.19
  10  -8  -3   32.46    2.42
  -8  -2  -3   34.60    1.82
  10  -8  -3   32.82    2.16
  -8  -2  -3   31.91    2.21
   8   2   3   35.28    1.85
   2 -10   3   32.02    2.27
 -10   8   3   33.31    2.48
   2 -10   3   32.00    2.06
   2 -10   3   34.11    2.41
   7  -8  -3    5.88    1.13
   7  -8  -3    7.80    1.05
   7  -8  -3    6.45    1.14
  -8   1  -3    5.13    0.92
   8  -1   3    6.26    1.06
  -1  -7   3    5.46    1.05
  -1  -7   3    5.34    1.04
  -7   8   3    5.63    1.17
  -1  -7   3    4.82    1.03
   4  -8  -3   76.82    2.50
  -8   4  -3   76.27    2.87
   4  -8  -3   82.16    2.91
   4  -8  -3   78.75    3.12
   8  -4   3   81.00    2.90
  -4  -4   3   72.37    2.75
  -4  -4   3   72.35    2.63
   1  -8  -3    0.45    0.80
   1  -8  -3   -1.31    0.75
   7   1  -3    0.88    0.68
   1  -8  -3    0.82    0.91
  -8   7  -3   -0.76    0.86
  -7  -1   3    1.78    0.83
  -7  -1   3    0.49    0.67
   8  -7   3    0.07    0.77
   8  -7   3    1.18    0.73
  -8  10  -3    6.82    1.40
  -2  -8  -3    7.84    1.35
  -2  -8  -3   10.22    1.53
  10  -2  -3    9.04    1.39
  -2  -8  -3    9.24    1.39
 -10   2   3   10.90    1.36
   8 -10   3    7.47    1.33
   8 -10   3   10.42    1.55
 -10   2   3    7.72    1.23
   8 -10   3    8.36    1.15
  -5  -8  -3    3.02    1.35
  -5  -8  -3   -1.59    0.98
  13  -5  -3    1.50    1.41
  -5  -8  -3    0.37    1.19
 -13   5   3    0.21    1.32
   8 -13   3    0.02    1.31
   8 -13   3    0.13    1.00
 -13   5   3    2.13    1.06
   8 -13   3    0.85    1.42
  -8  -8  -3    3.92    1.95
  -8  -8  -3   -0.37    1.50
  16  -8  -3    0.78    1.96
   8 -16   3    0.19    1.76
   8 -16   3    0.76    2.10
 -16   8   3   -1.20    1.67
  -9  -6  -3    1.32    1.68
  15  -9  -3    1.29    1.80
  -9  -6  -3    0.59    1.34
   6 -15   3    1.60    1.75
   6 -15   3    0.61    1.70
 -15   9   3    0.85    1.84
  12  -9  -3   12.27    1.58
  -9  -3  -3   14.57    1.87
  -9  -3  -3   14.87    1.45
  12  -9  -3   11.90    2.00
 -12   9   3   13.03    2.13
   3 -12   3   12.71    1.85
   3 -12   3   13.99    1.99
   3 -12   3   13.53    1.69
  -9   0  -3    5.62    1.17
   9  -9  -3    6.59    1.38
   9  -9  -3    5.48    1.23
   9   0   3    4.04    1.04
   0  -9   3    5.06    1.18
   0  -9   3    3.16    1.14
   0  -9   3    3.94    1.17
  -9   9   3    2.71    1.25
  -9   3  -3    5.39    0.84
   6  -9  -3    5.53    1.09
   6  -9  -3    4.97    1.15
  -9   3  -3    4.20    1.03
  -3  -6   3    5.28    1.09
  -3  -6   3    7.38    1.08
   9  -3   3    7.11    1.16
  -3  -6   3    7.05    1.11
   3  -9  -3   55.59    2.82
   3  -9  -3   58.47    2.43
   3  -9  -3   56.86    2.68
  -9   6  -3   56.91    2.72
  -6  -3   3   64.34    2.39
  -6  -3   3   59.78    2.58
   9  -6   3   59.78    2.68
   0  -9  -3   30.78    2.38
  -9   9  -3   23.57    2.20
   0  -9  -3   27.61    2.16
   9   0  -3   28.71    1.93
   0  -9  -3   24.84    2.06
  -9   0   3   26.86    2.01
   9  -9   3   27.00    2.12
  -9   0   3   25.13    1.69
   9  -9   3   27.79    2.13
  -3  -9  -3   10.39    1.67
  -3  -9  -3   14.42    1.90
  -3  -9  -3   13.22    1.74
  12  -3  -3   13.67    1.93
   9 -12   3   12.51    1.67
   9 -12   3   12.53    1.90
 -12   3   3   12.48    1.57
 -12   3   3   10.60    1.53
  -6  -9  -3   34.54    3.09
  -6  -9  -3   31.35    2.84
  -6  -9  -3   33.08    2.74
  15  -6  -3   31.92    3.18
 -15   6   3   34.72    3.04
   9 -15   3   36.69    3.45
   9 -15   3   36.06    2.73
 -10  -7  -3    0.56    1.64
  17 -10  -3   -0.64    2.15
 -10  -7  -3    0.43    1.83
   7 -17   3    0.48    2.01
   7 -17   3   -1.72    2.23
 -17  10   3    2.28    2.07
 -10  -4  -3   48.47    2.82
  14 -10  -3   54.89    3.73
 -10  -4  -3   50.01    3.41
   4 -14   3   45.32    3.65
   4 -14   3   49.45    3.03
   4 -14   3   53.26    3.61
 -14  10   3   42.46    3.68
  11 -10  -3   11.38    1.82
  11 -10  -3    9.51    1.66
 -10  -1  -3   14.49    1.84
   1 -11   3   10.05    1.66
 -11  10   3   13.60    2.04
   1 -11   3   13.61    1.83
   1 -11   3   13.46    1.70
  10   1   3   12.58    1.50
   8 -10  -3   17.20    1.82
   8 -10  -3   19.28    1.84
 -10   2  -3   19.04    1.58
  10  -2   3   19.91    1.87
  -2  -8   3   21.02    1.79
  -2  -8   3   17.81    1.78
  -2  -8   3   18.79    1.79
   5 -10  -3  174.04    5.64
 -10   5  -3  173.10    5.37
   5 -10  -3  174.60    5.26
  10  -5   3  178.51    5.36
  -5  -5   3  184.26    4.95
  -5  -5   3  177.84    5.19
  -5  -5   3  176.41    4.97
   2 -10  -3    1.19    1.10
   8   2  -3    1.64    0.80
   2 -10  -3    0.29    0.95
   2 -10  -3    0.48    0.97
 -10   8  -3   -0.44    1.18
  10  -8   3   -0.34    0.89
  -8  -2   3    0.03    0.99
  10  -8   3    1.03    0.88
  -8  -2   3    1.08    0.82
  -1 -10  -3  130.59    4.85
  11  -1  -3  130.54    4.55
  -1 -10  -3  131.63    4.66
  -1 -10  -3  130.68    4.62
 -11   1   3  129.93    4.42
  10 -11   3  136.83    4.91
 -11   1   3  127.09    3.97
  10 -11   3  126.13    4.65
  14  -4  -3   13.34    2.22
  -4 -10  -3   12.71    1.93
  -4 -10  -3   10.73    2.08
  -4 -10  -3   11.99    1.99
 -14   4   3   13.30    1.86
  10 -14   3   12.75    1.86
 -14   4   3   16.21    1.90
  10 -14   3   14.71    2.40
  17  -7  -3    5.09    2.42
  -7 -10  -3    4.16    2.29
  -7 -10  -3    3.76    1.89
 -17   7   3    4.57    2.09
  10 -17   3    0.66    2.33
  16 -11  -3   31.73    3.67
 -11  -5  -3   41.26    3.00
 -11  -5  -3   42.29    3.46
   5 -16   3   32.44    3.51
   5 -16   3   39.36    3.68
 -16  11   3   34.83    3.81
  13 -11  -3   29.01    2.49
 -11  -2  -3   29.08    2.03
 -11  -2  -3   31.73    2.64
  13 -11  -3   31.86    2.93
   2 -13   3   31.36    2.92
   2 -13   3   25.86    2.64
   2 -13   3   33.81    2.78
  11   2   3   30.45    2.37
  10 -11  -3  105.78    4.38
  10 -11  -3  111.21    4.48
 -11   1  -3  109.61    3.88
  11  -1   3  107.25    4.00
  -1 -10   3  106.96    4.08
  -1 -10   3  111.99    4.17
  -1 -10   3  108.19    4.25
   7 -11  -3   16.76    1.77
 -11   4  -3   13.91    1.26
   7 -11  -3   11.44    1.73
 -11   4  -3   13.86    1.63
  -4  -7   3   13.21    1.68
  11  -4   3   13.09    1.75
  -4  -7   3   10.17    1.45
  -4  -7   3   13.23    1.42
   4 -11  -3   17.66    1.93
 -11   7  -3   21.76    2.18
   4 -11  -3   21.41    1.86
   4 -11  -3   17.89    2.00
  -7  -4   3   21.41    1.74
  -7  -4   3   20.27    1.93
  11  -7   3   18.36    1.94
   1 -11  -3   18.42    2.05
  10   1  -3   18.57    1.71
   1 -11  -3   18.32    2.15
   1 -11  -3   19.39    2.24
 -11  10  -3   16.38    2.27
 -10  -1   3   17.28    1.59
  11 -10   3   14.51    1.92
  11 -10   3   15.32    1.76
 -10  -1   3   15.13    1.84
  -2 -11  -3   37.45    3.03
  -2 -11  -3   29.67    2.79
  13  -2  -3   33.27    2.74
  -2 -11  -3   34.21    2.80
  11 -13   3   29.34    2.70
  11 -13   3   31.93    2.86
 -13   2   3   28.48    2.11
 -13   2   3   30.55    2.50
  16  -5  -3    8.09    2.39
  -5 -11  -3   19.17    2.60
  -5 -11  -3   16.89    2.41
  -5 -11  -3   16.02    2.58
  11 -16   3   13.24    2.72
  11 -16   3   15.92    2.26
 -16   5   3   15.69    2.20
  15 -12  -3    2.59    1.94
 -12  -3  -3   -1.28    1.41
   3 -15   3   -0.71    1.53
   3 -15   3    0.40    1.76
   3 -15   3    0.35    1.82
  12 -12  -3    3.99    1.61
 -12   0  -3    2.41    1.43
  12 -12  -3    2.67    1.55
   0 -12   3    2.14    1.41
  12   0   3    1.92    1.32
   0 -12   3    4.91    1.52
   0 -12   3    2.13    1.37
   9 -12  -3   57.51    3.46
   9 -12  -3   51.80    3.04
 -12   3  -3   53.80    2.59
  12  -3   3   56.15    3.09
  -3  -9   3   59.72    3.03
  -3  -9   3   54.14    3.02
  -3  -9   3   54.03    3.12
   6 -12  -3    6.99    1.61
   6 -12  -3    7.18    1.74
 -12   6  -3   10.68    1.81
  -6  -6   3   10.44    1.34
  12  -6   3    6.55    1.49
  -6  -6   3   11.61    1.72
  -6  -6   3    9.92    1.43
   3 -12  -3  104.94    4.58
 -12   9  -3  109.96    4.57
   3 -12  -3  109.92    4.03
   3 -12  -3  107.54    4.31
  -9  -3   3  105.07    4.12
  -9  -3   3  104.27    3.68
  12  -9   3  107.18    4.45
  12   0  -3   -0.05    1.09
   0 -12  -3   -0.62    1.40
   0 -12  -3    0.19    1.41
   0 -12  -3    1.45    1.47
 -12   0   3    1.38    1.32
  12 -12   3   -0.88    1.25
 -12   0   3    0.36    1.07
  12 -12   3   -1.33    1.30
  15  -3  -3   27.39    2.87
  -3 -12  -3   19.35    2.53
  -3 -12  -3   26.05    2.95
  -3 -12  -3   18.42    2.64
 -15   3   3   25.26    2.48
  12 -15   3   22.89    2.93
  12 -15   3   19.37    2.52
 -13  -1  -3   57.13    3.59
  14 -13  -3   55.30    3.80
  14 -13  -3   60.83    4.21
   1 -14   3   61.62    4.05
   1 -14   3   60.63    4.06
  13   1   3   60.61    3.44
   1 -14   3   56.00    3.76
  11 -13  -3    0.56    1.47
 -13   2  -3    2.85    1.31
  11 -13  -3    5.85    1.81
  -2 -11   3    3.93    1.56
  13  -2   3    5.31    1.64
  -2 -11   3    4.32    1.49
  -2 -11   3    4.61    1.54
   8 -13  -3   12.55    2.09
 -13   5  -3   12.52    1.36
 -13   5  -3   11.66    1.72
  -5  -8   3   13.00    1.87
  -5  -8   3   10.50    1.61
  13  -5   3   10.20    1.83
  -5  -8   3   14.87    1.70
   5 -13  -3   14.25    2.08
   5 -13  -3   13.31    1.73
   5 -13  -3   12.60    2.05
 -13   8  -3   12.83    2.13
  -8  -5   3   15.51    1.69
  13  -8   3   15.13    2.09
  -8  -5   3   16.69    2.04
   2 -13  -3   -0.31    1.39
 -13  11  -3   -1.03    1.61
   2 -13  -3   -1.43    1.31
   2 -13  -3   -3.14    1.31
  13 -11   3   -0.15    1.19
 -11  -2   3   -0.45    1.25
 -11  -2   3   -1.52    0.96
  13 -11   3    0.33    1.48
  -1 -13  -3    2.00    1.80
  -1 -13  -3    4.18    1.88
  -1 -13  -3    6.72    2.07
  14  -1  -3    5.14    1.85
  13 -14   3    5.01    1.91
 -14   1   3    3.08    1.74
  13 -14   3    6.32    1.93
 -14   1  -3    9.27    1.88
  13 -14  -3    8.80    2.20
  13 -14  -3    6.07    2.11
  -1 -13   3    9.46    2.08
  14  -1   3   13.66    2.18
  -1 -13   3    9.27    2.11
  -1 -13   3   11.41    2.15
 -14   4  -3    1.51    1.03
  10 -14  -3    1.76    1.68
  -4 -10   3    1.84    1.32
  14  -4   3    0.14    1.38
  -4 -10   3    1.42    1.44
  -4 -10   3    2.12    1.46
 -14   7  -3   12.14    2.14
   7 -14  -3    6.83    1.86
   7 -14  -3   11.27    2.24
  -7  -7   3   11.05    1.68
  14  -7   3   11.81    2.14
  -7  -7   3   12.11    1.93
  -7  -7   3    9.68    1.45
   4 -14  -3    6.85    1.85
 -14  10  -3    7.07    2.07
   4 -14  -3    7.35    1.93
   4 -14  -3    5.08    1.56
  14 -10   3    6.89    2.03
 -10  -4   3    7.26    1.86
 -10  -4   3    7.16    1.40
   1 -14  -3    6.73    2.08
   1 -14  -3    8.80    2.05
  13   1  -3    4.18    1.64
   1 -14  -3    9.21    2.31
 -13  -1   3    6.65    1.85
  14 -13   3    3.81    1.82
  14 -13   3    6.71    2.04
 -13  -1   3    9.52    1.58
 -15   0  -3   13.80    2.28
  15 -15  -3    8.58    2.76
  15   0   3   15.18    2.60
   0 -15   3    9.37    2.53
   0 -15   3   11.11    2.41
  12 -15  -3   -1.39    1.68
 -15   3  -3    2.74    1.45
  12 -15  -3    2.82    2.10
  -3 -12   3    1.50    1.80
  15  -3   3    1.42    1.75
  -3 -12   3    4.46    1.74
  -3 -12   3    3.67    1.79
   9 -15  -3   57.15    4.26
 -15   6  -3   60.03    3.64
  -6  -9   3   56.99    3.69
  15  -6   3   55.55    3.90
  -6  -9   3   61.82    3.61
  -6  -9   3   64.60    3.42
 -15   9  -3    4.23    1.92
   6 -15  -3    2.97    1.87
   6 -15  -3    2.70    1.88
  -9  -6   3    2.37    1.62
  15  -9   3    3.03    1.77
  -9  -6   3    2.49    1.35
   3 -15  -3   18.95    2.49
   3 -15  -3   23.00    2.88
   3 -15  -3   22.88    2.96
  15 -12   3   21.45    2.81
 -12  -3   3   23.41    2.76
 -12  -3   3   21.04    2.06
   0 -15  -3   23.75    3.19
   0 -15  -3   13.61    2.70
 -15   0   3   16.14    2.56
  15 -15   3   21.31    3.13
  11 -16  -3   14.73    2.83
  -5 -11   3   13.18    2.21
  -5 -11   3   13.09    2.40
  -5 -11   3   12.03    2.20
  16  -5   3   13.20    2.51
 -16   8  -3    6.99    2.05
   8 -16  -3   10.12    2.46
  -8  -8   3    6.30    1.90
  -8  -8   3    7.78    1.77
  16  -8   3    3.86    2.01
   5 -16  -3   37.41    3.86
   5 -16  -3   35.93    3.54
 -16  11  -3   35.26    3.73
 -11  -5   3   39.21    2.94
 -11  -5   3   37.17    3.27
  16 -11   3   40.01    3.70
 -17   7  -3    6.71    2.22
  10 -17  -3    8.10    2.78
  17  -7   3    5.17    2.26
  -7 -10   3    8.21    2.19
  -7 -10   3    5.90    2.12
 -17  10  -3    0.16    2.01
   7 -17  -3    2.55    2.35
 -10  -7   3    2.98    1.72
  17 -10   3    0.66    2.21
 -10  -7   3    1.15    1.95
   0   1  -4   17.26    0.82
  -1   0  -4   16.67    0.74
  -1   1   4   17.19    0.79
   1   0   4   17.58    0.84
  -2  -1  -4   76.19    2.18
   3  -2  -4   75.75    2.27
  -1   3  -4   77.67    2.20
   1  -3   4   84.23    2.15
  -3   2   4   78.83    2.34
   2   1   4   78.83    2.11
   1  -3   4   74.71    2.11
   1  -3   4   75.11    2.00
   0  -2  -4  113.76    2.77
   0  -2  -4  110.91    2.94
  -2   2  -4  115.48    2.92
   0  -2  -4  113.99    2.81
  -2   0   4  113.23    2.85
   2  -2   4  109.57    2.82
  -3  -2  -4   39.19    1.50
   5  -3  -4   38.77    1.75
  -3  -2  -4   41.72    1.74
  -2   5  -4   37.01    1.62
   2  -5   4   40.41    1.64
  -5   3   4   42.03    1.88
   2  -5   4   37.31    1.41
  -3   1  -4   39.87    1.30
   2  -3  -4   39.93    1.62
  -3   1  -4   43.84    1.52
  -1  -2   4   43.10    1.49
   3  -1   4   41.19    1.50
  -3   4  -4   19.75    1.32
  -1  -3  -4   18.87    1.18
  -1  -3  -4   19.58    1.27
  -1  -3  -4   19.01    1.18
   4  -1  -4   16.92    1.15
   3  -4   4   21.17    1.09
   3  -4   4   20.34    1.21
   3  -4   4   18.28    1.13
  -4   1   4   19.06    1.28
   7  -4  -4    6.02    1.04
  -4  -3  -4    6.30    1.01
  -4  -3  -4    6.22    0.85
   3  -7   4    6.95    0.96
   3  -7   4    7.40    0.78
  -7   4   4    6.56    1.12
   3  -7   4    4.93    0.97
  -4   0  -4   14.06    1.06
   4  -4  -4   13.88    1.14
   4  -4  -4   12.40    1.04
   4  -4  -4   14.44    1.08
   0  -4   4   15.13    1.07
  -4   4   4   13.16    1.14
   4   0   4   13.91    1.01
   0  -4   4   14.35    1.08
   1  -4  -4    8.63    0.85
   1  -4  -4    7.01    0.83
  -4   3  -4    6.81    0.88
   3   1  -4    9.10    0.73
   1  -4  -4    8.33    0.88
  -3  -1   4    6.81    0.80
   4  -3   4    8.90    0.90
  -3  -1   4    7.31    0.70
  -2  -4  -4    4.83    0.80
  -2  -4  -4    3.95    0.77
   6  -2  -4    4.36    0.87
  -2  -4  -4    4.84    0.89
  -4   6  -4    2.44    0.82
   4  -6   4    6.86    0.87
   4  -6   4    4.37    0.86
   4  -6   4    4.54    0.74
   4  -6   4    3.54    0.73
  -6   2   4    3.26    0.82
  -5  -4  -4   12.08    1.22
   9  -5  -4    9.06    1.36
  -5  -4  -4   13.59    1.49
  -9   5   4    7.66    1.36
   4  -9   4   12.43    1.12
   4  -9   4    9.03    1.30
   4  -9   4   10.24    1.39
   6  -5  -4   18.73    1.47
   6  -5  -4   18.45    1.38
  -5  -1  -4   16.86    1.30
   6  -5  -4   16.44    1.37
   1  -6   4   17.52    1.29
   1  -6   4   14.93    1.21
  -6   5   4   15.44    1.41
   5   1   4   17.17    1.20
  -5   2  -4    0.59    0.66
   3  -5  -4    0.76    0.68
  -5   2  -4    0.55    0.46
   3  -5  -4    0.34    0.62
   5  -2   4    1.09    0.63
  -2  -3   4    0.71    0.60
  -2  -3   4    0.38    0.59
  -5   5  -4  139.65    3.88
   0  -5  -4  132.88    3.69
   5   0  -4  136.79    3.58
   0  -5  -4  132.03    3.70
   0  -5  -4  134.98    3.89
  -5   0   4  139.70    3.58
  -5   0   4  129.55    3.61
   5  -5   4  130.97    3.68
   5  -5   4  129.57    3.69
  -3  -5  -4    1.37    0.78
  -3  -5  -4    2.23    0.85
  -5   8  -4    2.03    0.91
   8  -3  -4    1.54    0.85
  -3  -5  -4    1.84    0.75
   5  -8   4    0.76    0.79
   5  -8   4    1.60    0.87
   5  -8   4    1.59    0.71
  -8   3   4    0.63    0.83
  -8   3   4    0.27    0.67
  -6  -5  -4   36.47    2.27
  -6  -5  -4   39.46    2.56
  11  -6  -4   33.08    2.66
 -11   6   4   31.02    2.53
   5 -11   4   36.07    2.62
 -11   6   4   36.23    1.94
   5 -11   4   37.65    2.50
  -6  -2  -4   69.03    2.63
  -6  -2  -4   66.73    2.25
   8  -6  -4   67.12    2.52
   8  -6  -4   64.53    2.78
   2  -8   4   65.40    2.38
  -8   6   4   62.01    2.73
   2  -8   4   69.37    2.66
   2  -8   4   62.15    2.79
   6   2   4   69.69    2.31
   5  -6  -4   27.78    1.69
   5  -6  -4   30.08    1.43
   5  -6  -4   30.40    1.79
  -6   1  -4   25.83    1.39
  -1  -5   4   27.96    1.60
  -5   6   4   28.86    1.60
   6  -1   4   26.79    1.56
  -1  -5   4   28.71    1.59
   2  -6  -4   54.73    2.36
  -6   4  -4   57.32    2.28
   2  -6  -4   57.90    2.27
   2  -6  -4   56.91    2.07
   6  -4   4   53.63    2.17
  -4  -2   4   60.41    2.20
  -4  -2   4   59.90    2.08
  -6   7  -4   -0.57    0.76
  -1  -6  -4   -0.95    0.70
  -1  -6  -4    0.89    0.81
  -1  -6  -4    0.07    0.74
   7  -1  -4    0.70    0.72
   6  -7   4    1.46    0.76
   6  -7   4    0.43    0.64
  -7   1   4    0.23    0.68
   6  -7   4   -1.04    0.59
  -7   1   4   -0.14    0.67
   6  -7   4    1.15    0.71
  10  -4  -4    0.04    0.95
  -4  -6  -4    1.34    1.04
  -4  -6  -4   -0.86    0.85
  -4  -6  -4    1.23    0.88
 -10   4   4   -0.15    1.00
   6 -10   4    2.88    1.00
   6 -10   4    1.62    0.99
   6 -10   4    0.46    0.79
 -10   4   4    0.96    0.85
  -7  -6  -4   42.58    3.00
  13  -7  -4   42.80    3.16
  -7  -6  -4   45.64    2.69
   6 -13   4   48.96    3.13
   6 -13   4   49.96    3.32
 -13   7   4   47.72    3.23
  -7  -3  -4   13.68    1.62
  10  -7  -4   14.15    1.77
  -7  -3  -4   12.94    1.25
   3 -10   4   14.52    1.65
   3 -10   4   13.06    1.32
 -10   7   4   10.08    1.69
   3 -10   4   14.66    1.70
   7  -7  -4   18.86    1.64
   7  -7  -4   19.45    1.59
  -7   0  -4   18.82    1.44
   7  -7  -4   19.51    1.47
   0  -7   4   18.73    1.46
  -7   7   4   19.93    1.72
   0  -7   4   18.50    1.54
   0  -7   4   17.81    1.49
   7   0   4   18.64    1.44
   4  -7  -4  145.78    4.45
  -7   3  -4  154.30    4.23
   4  -7  -4  141.20    4.15
  -3  -4   4  146.09    4.13
  -3  -4   4  154.74    4.11
   7  -3   4  148.86    4.23
   1  -7  -4    1.89    0.86
   1  -7  -4    0.00    0.71
   1  -7  -4    2.56    0.94
  -7   6  -4    1.25    0.86
   6   1  -4    2.04    0.64
   7  -6   4    1.00    0.65
  -6  -1   4    0.76    0.74
   7  -6   4    1.06    0.76
  -2  -7  -4  170.47    4.87
  -2  -7  -4  171.60    5.02
  -7   9  -4  162.73    5.08
  -2  -7  -4  172.94    4.96
   9  -2  -4  172.83    4.96
   7  -9   4  164.07    4.77
   7  -9   4  157.32    5.04
  -9   2   4  162.05    4.78
   7  -9   4  162.99    4.59
   7  -9   4  161.20    4.66
  -9   2   4  167.85    4.68
  -5  -7  -4    0.21    1.15
  -5  -7  -4    0.13    0.92
  -5  -7  -4    2.87    1.16
  12  -5  -4    0.02    1.15
 -12   5   4    2.45    1.32
   7 -12   4    1.56    1.25
 -12   5   4    1.85    0.95
   7 -12   4    1.94    0.99
   7 -12   4    0.51    1.15
  -8  -7  -4   24.75    2.64
  -8  -7  -4   23.61    2.35
  15  -8  -4   23.08    2.89
   7 -15   4   16.49    2.56
   7 -15   4   22.68    2.62
 -15   8   4   19.44    2.66
  12  -8  -4   22.58    2.39
  -8  -4  -4   24.80    1.89
  -8  -4  -4   18.57    2.05
   4 -12   4   24.77    2.32
 -12   8   4   22.72    2.50
   4 -12   4   20.10    2.19
   4 -12   4   25.38    1.97
   9  -8  -4   72.53    3.07
  -8  -1  -4   74.56    2.95
   9  -8  -4   72.46    3.17
   1  -9   4   76.76    3.09
   1  -9   4   78.07    2.93
   8   1   4   76.30    2.74
  -9   8   4   67.13    3.19
   1  -9   4   75.15    3.17
  -8   2  -4   19.75    1.46
   6  -8  -4   17.57    1.57
   6  -8  -4   17.25    1.60
  -8   2  -4   19.12    1.31
  -2  -6   4   17.70    1.49
   8  -2   4   17.82    1.50
  -2  -6   4   16.48    1.46
  -6   8   4   16.10    1.51
   3  -8  -4   52.65    2.42
   3  -8  -4   51.32    2.13
  -8   5  -4   50.26    2.38
   3  -8  -4   50.59    2.54
   8  -5   4   50.68    2.35
  -5  -3   4   53.28    2.16
  -5  -3   4   50.15    2.27
   0  -8  -4    6.09    1.18
  -8   8  -4    5.02    1.22
   0  -8  -4    7.50    1.27
   0  -8  -4    8.97    1.33
   8   0  -4    8.33    1.13
  -8   0   4    7.98    1.20
   8  -8   4    6.59    1.16
  -8   0   4    7.09    1.02
   8  -8   4    8.54    1.15
   8  -8   4    9.76    1.28
  -3  -8  -4    5.13    1.29
  11  -3  -4    6.33    1.48
  -3  -8  -4    3.41    1.18
  -3  -8  -4    3.68    1.32
   8 -11   4    4.27    1.39
   8 -11   4    6.75    1.30
 -11   3   4    7.70    1.35
 -11   3   4    4.54    1.24
   8 -11   4    3.26    1.16
  -6  -8  -4    1.43    1.49
  14  -6  -4    4.94    1.86
  -6  -8  -4    6.12    1.82
  -6  -8  -4    4.18    1.24
 -14   6   4    7.02    1.31
   8 -14   4    3.66    1.62
   8 -14   4    4.55    1.84
 -14   6   4    3.54    1.69
   8 -14   4    4.99    1.42
  17  -9  -4    5.19    2.69
  -9  -8  -4    8.54    2.00
  -9  -8  -4    5.24    2.30
 -17   9   4    5.50    2.33
   8 -17   4    6.97    2.64
   8 -17   4    4.92    2.29
  -9  -5  -4    1.50    1.43
  14  -9  -4   -0.83    1.50
  -9  -5  -4   -1.01    1.11
 -14   9   4   -1.65    1.52
   5 -14   4   -0.79    1.39
   5 -14   4    2.00    1.29
   5 -14   4   -1.37    1.33
  -9  -2  -4    1.05    0.83
  11  -9  -4    1.39    1.42
  -9  -2  -4    4.10    1.32
  11  -9  -4    1.13    1.13
   2 -11   4    0.86    1.17
   2 -11   4    0.20    1.06
 -11   9   4    4.15    1.61
   2 -11   4    3.30    1.12
   9   2   4    4.00    1.03
   8  -9  -4   25.39    2.05
   8  -9  -4   27.92    2.25
  -9   1  -4   27.70    1.80
   8  -9  -4   20.73    1.59
  -1  -8   4   27.37    2.01
  -8   9   4   24.80    2.19
   9  -1   4   27.22    1.88
  -1  -8   4   27.30    1.99
  -1  -8   4   29.12    2.06
   5  -9  -4    0.81    0.94
   5  -9  -4   -0.18    0.94
  -9   4  -4    1.45    1.01
   9  -4   4    0.10    0.81
  -4  -5   4    0.50    0.76
  -4  -5   4    1.96    0.94
  -9   7  -4   28.71    2.27
   2  -9  -4   27.81    2.10
   2  -9  -4   27.51    2.25
   2  -9  -4   28.20    2.01
  -7  -2   4   28.14    2.01
   9  -7   4   28.50    1.79
  -7  -2   4   27.66    1.73
   9  -7   4   25.51    1.98
  -9  10  -4    1.02    1.19
  -1  -9  -4    3.34    1.21
  -1  -9  -4    3.01    1.22
  -1  -9  -4    2.13    1.12
  10  -1  -4    0.75    1.02
   9 -10   4    3.05    1.18
 -10   1   4    3.47    1.00
 -10   1   4    1.31    1.08
   9 -10   4    1.80    1.16
  13  -4  -4    3.47    1.55
  -4  -9  -4    3.20    1.40
  -4  -9  -4    3.38    1.52
  -4  -9  -4    2.79    1.37
   9 -13   4    2.46    1.34
 -13   4   4    3.05    1.22
   9 -13   4    4.76    1.57
 -13   4   4    1.39    1.27
  16  -7  -4    3.10    2.22
  -7  -9  -4    5.23    1.99
  -7  -9  -4    5.56    1.81
 -16   7   4    4.38    2.03
   9 -16   4    2.80    1.77
   9 -16   4    5.12    2.28
  16 -10  -4   -0.67    1.98
 -10  -6  -4   -2.32    1.45
 -10  -6  -4   -2.72    1.53
   6 -16   4   -2.89    1.73
 -16  10   4    0.20    1.84
   6 -16   4    0.83    1.88
 -10  -3  -4   -0.36    0.97
 -10  -3  -4    0.42    1.34
  13 -10  -4   -1.91    1.32
 -13  10   4   -2.25    1.54
   3 -13   4    0.48    1.33
   3 -13   4   -0.47    1.26
   3 -13   4    2.36    1.26
  10 -10  -4    7.58    1.71
  10 -10  -4    7.29    1.60
 -10   0  -4    7.23    1.36
   0 -10   4    6.94    1.39
  10   0   4    7.26    1.26
   0 -10   4    5.26    1.41
   0 -10   4    7.57    1.45
   7 -10  -4    0.79    1.03
   7 -10  -4   -0.66    0.87
 -10   3  -4    0.21    0.70
 -10   3  -4   -0.56    0.79
  -3  -7   4   -0.06    0.87
  -3  -7   4   -0.15    0.89
  10  -3   4   -0.01    0.90
  -3  -7   4    1.47    0.89
   4 -10  -4   16.00    1.73
 -10   6  -4   17.36    1.89
   4 -10  -4   15.42    1.81
   4 -10  -4   16.37    1.57
  -6  -4   4   22.29    1.69
  10  -6   4   17.54    1.78
  -6  -4   4   15.71    1.64
   1 -10  -4    3.63    1.27
   1 -10  -4    4.67    1.33
   1 -10  -4    5.59    1.35
 -10   9  -4    5.24    1.52
   9   1  -4    3.08    1.01
  10  -9   4    4.09    1.11
  -9  -1   4    6.89    1.34
  -9  -1   4    5.06    1.05
  10  -9   4    3.84    1.25
  12  -2  -4   12.67    1.81
  -2 -10  -4    6.53    1.69
  -2 -10  -4    6.47    1.61
  -2 -10  -4    7.39    1.60
  10 -12   4    9.15    1.71
  10 -12   4    9.45    1.74
 -12   2   4    7.72    1.50
  -5 -10  -4    4.22    1.93
  -5 -10  -4    6.36    1.74
  -5 -10  -4    8.74    1.91
  15  -5  -4    4.29    2.08
  10 -15   4    6.93    2.18
 -15   5   4    7.38    1.89
  10 -15   4    8.06    1.72
 -15   5   4    7.79    1.59
 -11  -4  -4    8.61    1.97
  15 -11  -4    8.93    2.46
 -11  -4  -4    6.83    1.54
   4 -15   4    4.29    1.77
   4 -15   4    5.46    2.04
   4 -15   4    3.72    2.00
 -11  -1  -4   -2.02    1.22
  12 -11  -4   -0.87    1.27
  12 -11  -4    1.20    1.26
   1 -12   4   -1.03    1.12
   1 -12   4   -2.03    1.10
  11   1   4   -1.90    0.90
   1 -12   4   -0.23    1.27
   9 -11  -4    2.39    1.29
   9 -11  -4    2.83    1.42
 -11   2  -4    2.26    1.03
  -2  -9   4    2.23    1.22
  11  -2   4    1.86    1.16
  -2  -9   4    2.17    1.20
  -2  -9   4    1.14    1.13
   6 -11  -4    6.92    1.45
 -11   5  -4    6.85    1.45
   6 -11  -4    7.41    1.62
  11  -5   4    5.69    1.33
  -5  -6   4    7.15    1.12
  -5  -6   4    7.03    1.35
  -5  -6   4    6.81    1.32
 -11   8  -4   35.52    2.83
   3 -11  -4   28.85    2.42
   3 -11  -4   31.87    2.28
   3 -11  -4   32.98    2.67
  -8  -3   4   29.72    2.33
  11  -8   4   25.89    2.33
  -8  -3   4   33.95    2.08
  11   0  -4    7.51    1.55
   0 -11  -4    6.68    1.66
   0 -11  -4    8.92    1.69
   0 -11  -4    7.05    1.68
 -11   0   4    5.47    1.50
  11 -11   4    4.13    1.45
 -11   0   4    7.33    1.23
  11 -11   4    4.84    1.55
  -3 -11  -4   31.66    2.87
  -3 -11  -4   23.77    2.70
  14  -3  -4   28.84    2.82
  -3 -11  -4   30.47    2.76
 -14   3   4   29.76    2.60
  11 -14   4   24.22    2.79
  11 -14   4   32.10    2.78
  -6 -11  -4    0.21    1.75
  -6 -11  -4    0.29    2.13
  17  -6  -4    0.57    2.23
 -17   6   4    0.75    1.76
  11 -17   4    0.54    2.40
  14 -12  -4   21.72    2.87
 -12  -2  -4   16.91    2.31
   2 -14   4   15.62    2.31
  12   2   4   18.55    2.06
   2 -14   4   12.75    2.39
   2 -14   4   11.78    2.13
 -12   1  -4   10.63    1.68
  11 -12  -4    9.26    1.95
  11 -12  -4    8.49    1.86
  -1 -11   4   10.28    1.80
  -1 -11   4    9.93    1.70
  -1 -11   4   11.24    1.77
  12  -1   4   11.42    1.76
   8 -12  -4   70.90    3.77
 -12   4  -4   68.29    3.12
 -12   4  -4   71.63    2.76
  -4  -8   4   67.07    3.19
  -4  -8   4   76.29    3.24
  12  -4   4   69.91    3.46
  -4  -8   4   79.80    3.50
   5 -12  -4    0.37    1.27
 -12   7  -4    0.60    1.26
   5 -12  -4   -0.06    1.22
  12  -7   4   -0.32    1.16
  -7  -5   4    0.13    1.08
  -7  -5   4    1.41    0.97
   2 -12  -4   18.20    2.16
   2 -12  -4   23.65    2.37
  10   2  -4   22.58    1.83
   2 -12  -4   22.36    2.43
 -12  10  -4   22.50    2.51
  12 -10   4   21.45    2.36
 -10  -2   4   23.26    2.24
 -10  -2   4   25.07    1.91
  12 -10   4   23.03    1.99
  13  -1  -4   31.61    2.68
  -1 -12  -4   28.05    2.82
  -1 -12  -4   34.91    3.04
  -1 -12  -4   34.57    3.04
 -13   1   4   32.27    2.76
  12 -13   4   35.07    3.03
 -13   1   4   39.63    2.44
  12 -13   4   40.55    3.29
  16  -4  -4    2.83    1.97
  -4 -12  -4   -0.47    1.80
  -4 -12  -4    1.23    1.84
  -4 -12  -4    0.01    1.76
  12 -16   4    3.35    2.16
  12 -16   4    1.75    1.73
 -16   4   4    1.23    1.40
 -13  -3  -4    0.11    1.79
  16 -13  -4    2.40    2.47
   3 -16   4    1.11    2.09
   3 -16   4   -2.32    1.88
 -13   0  -4   25.00    2.56
  13 -13  -4   27.31    2.80
  13 -13  -4   28.36    3.01
   0 -13   4   27.68    2.85
  13   0   4   29.70    2.67
   0 -13   4   31.07    2.81
   0 -13   4   26.08    2.83
  10 -13  -4   28.53    2.65
 -13   3  -4   29.19    2.25
  10 -13  -4   31.66    2.95
  -3 -10   4   34.85    2.86
  -3 -10   4   35.09    2.74
  13  -3   4   32.18    2.80
  -3 -10   4   29.63    2.61
   7 -13  -4    0.33    1.46
 -13   6  -4    1.79    1.34
  13  -6   4    2.34    1.37
  -6  -7   4   -0.42    1.11
  -6  -7   4    0.89    1.04
  -6  -7   4   -0.36    1.20
   4 -13  -4   50.82    3.32
 -13   9  -4   51.93    3.50
   4 -13  -4   53.57    2.99
   4 -13  -4   43.98    3.48
  13  -9   4   50.66    3.42
  -9  -4   4   53.10    3.16
  -9  -4   4   49.35    2.72
  12   1  -4    8.13    1.78
   1 -13  -4   10.81    2.00
   1 -13  -4   10.52    2.05
   1 -13  -4   11.21    2.20
  13 -12   4    9.04    1.98
 -12  -1   4   11.26    1.54
  13 -12   4   13.22    2.01
 -12  -1   4   12.13    1.98
  15  -2  -4   12.63    2.30
  -2 -13  -4   12.86    2.51
  -2 -13  -4   13.99    2.48
  -2 -13  -4   10.15    2.15
  13 -15   4   16.90    2.53
 -15   2   4   11.20    2.10
  13 -15   4   12.15    2.42
  15 -14  -4   10.30    2.23
 -14  -1  -4   13.49    2.30
  15 -14  -4   10.76    2.71
   1 -15   4    4.89    2.05
   1 -15   4   14.27    2.51
   1 -15   4    7.13    2.44
 -14   2  -4   13.25    1.90
  12 -14  -4   16.92    2.56
  12 -14  -4    9.35    2.25
  -2 -12   4   12.49    2.10
  14  -2   4   15.39    2.31
  -2 -12   4    7.34    1.93
  -2 -12   4   14.77    2.21
 -14   5  -4    7.75    1.70
   9 -14  -4    5.35    1.93
  -5  -9   4    9.17    1.59
  -5  -9   4    4.27    1.62
  -5  -9   4    6.68    1.67
  14  -5   4    4.29    1.70
   6 -14  -4    4.02    1.75
   6 -14  -4    4.47    1.88
 -14   8  -4    5.50    1.80
  -8  -6   4    5.71    1.68
  14  -8   4    4.05    1.70
  -8  -6   4    6.56    1.48
 -14  11  -4    2.38    1.82
   3 -14  -4    2.26    1.79
   3 -14  -4    1.94    1.45
   3 -14  -4    0.66    1.63
 -11  -3   4    1.35    1.27
  14 -11   4    6.15    1.88
 -11  -3   4    1.37    1.47
   0 -14  -4    2.27    1.96
   0 -14  -4    0.32    1.73
  14   0  -4   -0.84    1.50
   0 -14  -4   -2.34    1.63
  14 -14   4    1.64    1.99
 -14   0   4    1.89    1.66
  14 -14   4    0.61    1.72
  14 -15  -4    2.87    2.14
  14 -15  -4    5.89    2.38
 -15   1  -4    5.09    1.70
  15  -1   4    6.63    1.97
  -1 -14   4    1.20    1.98
  -1 -14   4    5.88    2.11
  -1 -14   4    6.32    2.10
  11 -15  -4   -2.15    1.88
  15  -4   4    0.80    1.62
  -4 -11   4   -2.85    1.36
  -4 -11   4   -0.24    1.44
  -4 -11   4    0.29    1.63
 -15   7  -4   15.39    2.28
   8 -15  -4   14.28    2.51
  -7  -8   4   14.89    2.22
  -7  -8   4   14.29    1.88
  15  -7   4   15.51    2.45
   5 -15  -4    7.17    2.11
 -15  10  -4    4.51    2.07
   5 -15  -4    5.27    2.09
  15 -10   4    5.67    1.91
 -10  -5   4    5.19    1.79
 -10  -5   4    2.74    1.39
   2 -15  -4    5.37    1.85
   2 -15  -4    1.10    1.87
   2 -15  -4    3.14    1.93
  15 -13   4    0.75    1.97
 -13  -2   4    3.97    1.88
 -13  -2   4   -0.97    1.32
  13 -16  -4    0.66    2.17
  16  -3   4    1.56    1.92
  -3 -13   4    0.03    1.69
  -3 -13   4    1.45    1.83
  -3 -13   4    0.20    1.82
  10 -16  -4   11.07    2.64
  -6 -10   4    9.06    2.05
  -6 -10   4   11.06    2.02
  16  -6   4   13.06    2.46
  -6 -10   4    9.71    2.22
   7 -16  -4    7.72    2.46
 -16   9  -4    7.28    2.23
  -9  -7   4    7.97    1.79
  16  -9   4    6.58    2.21
  -9  -7   4    4.12    1.79
 -16  12  -4   -2.57    1.99
   4 -16  -4    1.62    2.02
   4 -16  -4    2.20    1.72
   4 -16  -4   -0.22    1.97
 -12  -4   4    3.14    1.47
 -12  -4   4    3.90    1.96
  16 -12   4    2.54    2.11
 -17   8  -4   19.07    2.74
   9 -17  -4    5.62    2.64
  -8  -9   4    9.54    2.28
  17  -8   4   15.16    2.83
  -8  -9   4   10.31    2.15
   6 -17  -4    1.68    2.33
   6 -17  -4    0.16    2.14
 -17  11  -4    2.63    2.19
 -11  -6   4   -0.70    1.37
  17 -11   4   -1.76    2.08
 -11  -6   4    2.23    2.00
  -1   1  -5   77.17    2.01
   1  -1   5   72.73    2.01
  -1   0   5   72.07    1.98
  -2   0  -5   46.47    1.47
   0   2  -5   46.04    1.55
  -2   2   5   44.90    1.57
   2   0   5   47.80    1.55
   0  -2   5   45.79    1.49
  -1  -2  -5  397.26    9.03
  -2   3  -5  404.04    8.92
  -1  -2  -5  400.76    8.53
  -1  -2  -5  396.68    8.66
   2  -3   5  379.49    8.43
  -3   1   5  402.37    8.93
   2  -3   5  383.50    8.71
   2  -3   5  392.37    8.87
   4  -3  -5   17.22    1.27
  -3  -1  -5   16.69    1.17
   4  -3  -5   16.81    1.29
  -1   4  -5   16.95    1.17
   1  -4   5   15.99    1.01
   3   1   5   16.39    1.07
   1  -4   5   17.18    1.12
  -4   3   5   15.93    1.30
   1  -3  -5   70.16    2.27
   1  -3  -5   73.34    2.10
   1  -3  -5   66.77    2.08
  -3   2  -5   74.16    2.20
  -2  -1   5   70.60    2.03
   3  -2   5   68.16    2.12
  -2  -3  -5    9.15    0.86
   5  -2  -5    8.48    0.96
  -2  -3  -5    8.59    0.86
  -3   5  -5   11.38    1.05
  -2  -3  -5   10.84    1.05
   3  -5   5    8.09    0.81
   3  -5   5    7.71    0.82
   3  -5   5   11.48    0.97
  -5   2   5    9.97    1.05
  -4  -2  -5    0.36    0.54
   6  -4  -5    0.14    0.69
  -4  -2  -5   -0.20    0.63
   2  -6   5    1.50    0.66
   2  -6   5    0.76    0.56
  -6   4   5    1.26    0.82
   4   2   5    0.93    0.53
   3  -4  -5   31.86    1.67
  -4   1  -5   36.80    1.43
  -4   1  -5   34.94    1.33
  -1  -3   5   35.56    1.49
   4  -1   5   34.12    1.49
  -1  -3   5   35.80    1.52
   0  -4  -5    3.05    0.72
  -4   4  -5    2.61    0.76
   4   0  -5    3.51    0.66
   0  -4  -5    1.81    0.72
   0  -4  -5    1.83    0.64
   4  -4   5    1.83    0.65
  -4   0   5    2.45    0.65
  -4   7  -5   78.69    2.75
  -3  -4  -5   80.38    2.51
  -3  -4  -5   79.36    2.75
   7  -3  -5   74.11    2.77
  -3  -4  -5   79.62    2.57
   4  -7   5   75.60    2.58
   4  -7   5   72.01    2.39
  -7   3   5   80.93    2.82
   4  -7   5   75.31    2.83
   4  -7   5   76.69    2.44
  -5  -3  -5    4.73    0.86
   8  -5  -5    5.23    1.16
  -5  -3  -5    3.47    0.96
   3  -8   5    5.07    0.83
   3  -8   5    5.44    0.96
  -8   5   5    5.11    1.21
   3  -8   5    5.48    1.09
   5  -5  -5    0.33    0.71
   5  -5  -5   -0.48    0.63
   5  -5  -5    0.51    0.65
  -5   0  -5   -0.53    0.56
   0  -5   5    0.02    0.59
   0  -5   5    0.53    0.61
  -5   5   5    0.59    0.72
   5   0   5    0.18    0.55
  -5   3  -5   -0.47    0.68
   2  -5  -5    0.57    0.62
   2  -5  -5    0.21    0.67
   2  -5  -5    0.14    0.64
   5  -3   5    1.13    0.65
  -3  -2   5   -0.76    0.57
  -1  -5  -5    1.00    0.73
  -1  -5  -5   -0.04    0.64
  -5   6  -5    0.24    0.72
  -1  -5  -5    0.73    0.70
   6  -1  -5    0.05    0.61
   5  -6   5    2.08    0.64
   5  -6   5    1.06    0.71
   5  -6   5    0.14    0.59
   5  -6   5    2.01    0.69
  -6   1   5    1.64    0.74
  -4  -5  -5    2.28    0.85
  -4  -5  -5    1.39    0.72
  -5   9  -5    0.04    0.84
   9  -4  -5    0.65    0.88
  -4  -5  -5    1.40    0.92
   5  -9   5    1.36    0.90
  -9   4   5    2.36    1.03
   5  -9   5    0.50    0.87
   5  -9   5    1.08    0.76
  -6  -4  -5    2.22    1.13
  10  -6  -5    1.82    1.18
  -6  -4  -5    2.49    0.90
 -10   6   5    3.26    1.21
   4 -10   5    1.60    0.97
   4 -10   5    2.94    0.87
   4 -10   5    0.89    1.02
   7  -6  -5   22.98    1.79
   7  -6  -5   22.47    1.66
   7  -6  -5   25.48    1.70
  -6  -1  -5   22.13    1.58
   6   1   5   21.57    1.43
   1  -7   5   22.52    1.52
  -7   6   5   22.48    1.76
   1  -7   5   23.86    1.66
  -6   2  -5    2.40    0.60
   4  -6  -5    2.19    0.83
  -6   2  -5    2.40    0.77
  -2  -4   5    2.24    0.75
  -2  -4   5    2.11    0.74
   6  -2   5    2.64    0.78
   1  -6  -5    0.24    0.74
   1  -6  -5    0.18    0.72
   1  -6  -5    1.21    0.79
   5   1  -5    0.47    0.55
  -6   5  -5    2.93    0.91
  -5  -1   5    0.70    0.59
   6  -5   5   -0.33    0.68
  -5  -1   5    1.03    0.72
   6  -5   5    1.29    0.60
  -2  -6  -5   68.38    2.66
  -6   8  -5   70.83    2.83
   8  -2  -5   64.60    2.68
  -2  -6  -5   70.13    2.68
  -2  -6  -5   70.41    2.80
  -8   2   5   67.14    2.56
   6  -8   5   67.25    2.49
  -8   2   5   68.38    2.69
   6  -8   5   72.28    2.54
   6  -8   5   70.58    2.83
   6  -8   5   67.39    2.54
  11  -5  -5    3.45    1.30
  -5  -6  -5    2.20    0.93
  -5  -6  -5    1.61    1.03
  -5  -6  -5    3.28    1.23
   6 -11   5    2.55    0.98
 -11   5   5    0.88    0.93
 -11   5   5    1.76    1.19
   6 -11   5    2.77    1.26
   6 -11   5    2.35    1.16
  12  -7  -5    2.37    1.33
  -7  -5  -5    1.19    0.99
  -7  -5  -5    1.83    1.21
 -12   7   5    2.35    1.40
   5 -12   5    1.49    1.27
   5 -12   5   -1.21    1.16
  -7  -2  -5   54.25    2.51
  -7  -2  -5   49.32    2.01
   9  -7  -5   49.28    2.39
   9  -7  -5   49.51    2.68
  -9   7   5   49.25    2.68
   2  -9   5   48.55    2.48
   2  -9   5   48.33    2.21
   7   2   5   54.52    2.14
   2  -9   5   48.98    2.62
   6  -7  -5   23.90    1.84
   6  -7  -5   28.76    1.84
  -7   1  -5   23.25    1.44
   6  -7  -5   22.32    1.42
  -1  -6   5   22.29    1.63
  -6   7   5   27.05    1.75
   7  -1   5   26.37    1.66
  -1  -6   5   24.80    1.69
  -7   4  -5   57.56    2.45
   3  -7  -5   58.82    2.23
   3  -7  -5   60.49    2.61
   3  -7  -5   62.40    2.48
  -4  -3   5   63.81    2.31
   7  -4   5   62.23    2.45
  -4  -3   5   62.46    2.38
   0  -7  -5    0.09    0.80
   7   0  -5    0.71    0.64
   0  -7  -5   -0.69    0.77
  -7   7  -5   -1.34    0.73
   0  -7  -5    0.78    0.79
  -7   0   5   -0.37    0.69
  -7   0   5    0.91    0.80
   7  -7   5    0.57    0.74
   7  -7   5    0.53    0.66
  -3  -7  -5   11.44    1.40
  10  -3  -5   12.60    1.60
  -3  -7  -5   14.82    1.70
  -7  10  -5   10.68    1.60
  -3  -7  -5   13.80    1.49
 -10   3   5   12.85    1.67
   7 -10   5   12.08    1.62
   7 -10   5   10.81    1.36
 -10   3   5   15.30    1.54
   7 -10   5   10.47    1.34
   7 -10   5   12.89    1.33
  13  -6  -5   17.69    2.27
  -6  -7  -5   21.30    2.11
  -6  -7  -5   22.87    2.39
   7 -13   5   21.51    2.27
 -13   6   5   21.39    2.42
   7 -13   5   25.10    1.98
   7 -13   5   19.67    2.30
 -13   6   5   22.29    1.86
  -8  -6  -5   20.45    2.36
  14  -8  -5   20.84    2.63
  -8  -6  -5   24.77    2.20
   6 -14   5   17.52    2.31
 -14   8   5   21.61    2.63
   6 -14   5   19.99    2.56
  -8  -3  -5    4.97    1.35
  -8  -3  -5    5.42    1.08
  11  -8  -5    4.96    1.45
   3 -11   5    5.11    1.16
   3 -11   5    5.98    1.35
 -11   8   5    7.45    1.70
   3 -11   5    6.33    1.40
  -8   0  -5    2.60    0.89
   8  -8  -5    4.00    1.13
   8  -8  -5    3.76    0.89
   8  -8  -5    5.00    1.21
   0  -8   5    5.82    1.14
   0  -8   5    4.13    1.03
  -8   8   5    5.16    1.28
   8   0   5    4.11    0.97
   0  -8   5    4.36    1.04
  -8   3  -5   17.31    1.17
  -8   3  -5   20.83    1.62
   5  -8  -5   17.36    1.62
  -3  -5   5   19.87    1.57
  -3  -5   5   22.93    1.64
   8  -3   5   18.83    1.59
  -8   6  -5    4.18    1.05
   2  -8  -5    5.22    1.12
   2  -8  -5    4.48    1.05
   2  -8  -5    4.98    1.09
  -6  -2   5    5.40    0.93
  -6  -2   5    5.38    1.05
   8  -6   5    5.38    1.07
  -1  -8  -5   24.20    1.95
  -1  -8  -5   23.40    2.00
   9  -1  -5   27.06    1.93
  -1  -8  -5   23.47    1.90
  -8   9  -5   19.44    1.92
  -9   1   5   25.07    1.75
   8  -9   5   20.11    1.78
   8  -9   5   21.77    1.86
  -9   1   5   22.61    1.81
  -4  -8  -5   23.39    2.14
  12  -4  -5   19.35    2.18
  -4  -8  -5   30.64    2.57
  -4  -8  -5   27.69    2.12
   8 -12   5   23.62    2.01
   8 -12   5   26.74    2.44
 -12   4   5   24.66    2.22
 -12   4   5   22.91    1.97
   8 -12   5   27.45    2.25
  15  -7  -5    4.01    1.95
  -7  -8  -5    3.41    1.59
  -7  -8  -5    1.72    1.74
 -15   7   5    1.97    1.77
   8 -15   5    3.96    1.98
   8 -15   5    1.92    1.71
  -9  -7  -5    0.63    1.74
  -9  -7  -5   -0.86    1.47
  16  -9  -5    1.75    2.16
 -16   9   5    2.03    1.99
   7 -16   5   -2.33    1.74
   7 -16   5   -0.64    1.69
  13  -9  -5   22.25    2.55
  -9  -4  -5   24.33    2.40
  -9  -4  -5   24.84    1.95
   4 -13   5   23.06    2.52
   4 -13   5   24.13    2.50
   4 -13   5   22.51    2.09
 -13   9   5   19.87    2.51
  10  -9  -5    2.50    1.19
  -9  -1  -5    2.94    1.17
  10  -9  -5    3.42    1.31
   1 -10   5    3.84    1.17
   1 -10   5    1.70    1.15
   9   1   5    4.17    1.09
   1 -10   5    1.38    1.06
 -10   9   5    3.47    1.44
   7  -9  -5   27.57    2.19
  -9   2  -5   27.02    1.63
   7  -9  -5   28.55    2.09
   9  -2   5   29.82    1.95
  -2  -7   5   26.25    1.92
  -7   9   5   27.86    2.01
  -2  -7   5   25.49    1.95
  -2  -7   5   29.09    2.06
   4  -9  -5   -0.24    0.90
   4  -9  -5   -0.18    0.92
  -9   5  -5    0.38    0.90
   9  -5   5    0.95    0.86
  -5  -4   5    1.03    0.76
  -5  -4   5    0.53    0.84
   8   1  -5   33.76    1.88
   1  -9  -5   34.67    2.25
   1  -9  -5   32.98    2.28
  -9   8  -5   30.01    2.33
   1  -9  -5   34.10    2.40
   9  -8   5   31.33    2.02
   9  -8   5   32.58    2.22
  -8  -1   5   35.04    2.20
  -8  -1   5   32.32    1.89
  11  -2  -5    5.21    1.44
  -2  -9  -5    7.95    1.47
  -2  -9  -5    4.80    1.47
  -2  -9  -5    5.38    1.39
   9 -11   5    6.49    1.49
   9 -11   5    8.77    1.51
 -11   2   5    7.14    1.32
 -11   2   5   11.28    1.57
  -5  -9  -5    5.77    1.79
  14  -5  -5    3.09    1.68
  -5  -9  -5    2.29    1.41
  -5  -9  -5    3.87    1.44
   9 -14   5    5.28    1.80
 -14   5   5    3.16    1.53
 -14   5   5    2.52    1.33
   9 -14   5    4.90    1.37
   9 -14   5    3.48    1.51
  -8  -9  -5   17.77    2.83
  -8  -9  -5   14.75    2.34
  17  -8  -5   18.53    3.14
   9 -17   5   10.30    2.91
 -17   8   5    8.27    2.41
   9 -17   5   14.46    2.69
 -10  -5  -5    0.06    1.62
  15 -10  -5   -0.22    1.76
 -10  -5  -5   -1.44    1.28
   5 -15   5    3.58    1.78
   5 -15   5   -1.25    1.64
 -15  10   5   -0.48    1.71
  12 -10  -5   -0.05    1.34
  12 -10  -5    3.44    1.30
 -10  -2  -5    0.39    1.27
  10   2   5    3.70    1.14
   2 -12   5    0.83    1.17
   2 -12   5    1.59    1.32
 -12  10   5   -0.87    1.48
   2 -12   5    0.98    1.15
 -10   1  -5    3.46    1.05
   9 -10  -5    2.26    1.29
   9 -10  -5    1.26    1.15
  -1  -9   5    3.19    1.16
  -1  -9   5    1.28    1.07
  -1  -9   5    2.37    1.10
  10  -1   5    1.49    1.06
   6 -10  -5   -1.17    0.96
 -10   4  -5   -0.53    0.89
  -4  -6   5   -0.42    0.81
  10  -4   5   -0.11    0.85
  -4  -6   5   -0.95    0.90
   3 -10  -5    4.83    1.16
 -10   7  -5    4.78    1.36
   3 -10  -5    3.26    1.28
   3 -10  -5    4.48    1.28
  10  -7   5    5.25    1.27
  -7  -3   5    4.72    1.06
  -7  -3   5    4.16    1.17
   0 -10  -5   -0.62    1.11
  10   0  -5    1.46    1.11
 -10  10  -5    1.46    1.24
   0 -10  -5   -1.49    1.07
   0 -10  -5    0.02    1.23
 -10   0   5   -0.65    1.02
 -10   0   5   -0.86    0.75
  10 -10   5   -0.34    0.97
  10 -10   5    1.05    1.12
  -3 -10  -5    6.63    1.60
  13  -3  -5    5.37    1.64
  -3 -10  -5    2.79    1.51
  -3 -10  -5    5.55    1.71
 -13   3   5    6.95    1.55
  10 -13   5    3.93    1.44
 -13   3   5    7.61    1.57
  10 -13   5    3.23    1.63
  -6 -10  -5    0.34    1.57
  16  -6  -5   -3.05    1.82
  -6 -10  -5    0.43    1.85
 -16   6   5   -1.28    1.66
  10 -16   5    0.03    2.05
 -11  -6  -5    2.22    2.01
 -17  11   5    3.22    2.37
  14 -11  -5    1.76    1.68
 -11  -3  -5   -0.13    1.40
   3 -14   5    1.01    1.59
   3 -14   5    0.88    1.35
   3 -14   5    3.21    1.65
 -11   0  -5   -1.36    1.06
  11 -11  -5   -0.65    1.30
  11 -11  -5    0.16    1.29
   0 -11   5    1.67    1.27
  11   0   5    1.93    1.14
   0 -11   5   -0.32    1.21
   0 -11   5    0.86    1.17
 -11   3  -5   21.05    1.69
   8 -11  -5   25.53    2.20
   8 -11  -5   21.87    2.28
  -3  -8   5   26.98    2.16
  -3  -8   5   24.05    2.00
  -3  -8   5   22.78    1.90
  11  -3   5   21.23    2.02
 -11   6  -5   -1.51    1.06
   5 -11  -5    0.14    1.21
   5 -11  -5    1.24    1.15
  -6  -5   5   -0.12    0.77
  -6  -5   5    0.21    0.90
  11  -6   5    0.57    1.07
  -6  -5   5   -0.58    0.96
   2 -11  -5   10.86    1.65
 -11   9  -5    5.93    1.62
   2 -11  -5    8.36    1.64
   2 -11  -5    9.64    1.69
  11  -9   5    7.70    1.54
  -9  -2   5    7.93    1.49
  -9  -2   5    5.03    1.17
  11  -9   5    6.38    1.31
  -1 -11  -5   15.85    2.08
  -1 -11  -5   13.87    2.05
  -1 -11  -5   10.69    1.87
  12  -1  -5   13.59    1.86
  11 -12   5   11.71    1.97
  11 -12   5   15.04    2.02
 -12   1   5   13.46    1.57
 -12   1   5   14.36    1.91
  15  -4  -5    0.87    1.71
  -4 -11  -5   -0.59    1.60
  -4 -11  -5    1.74    1.65
  -4 -11  -5    0.61    1.49
  11 -15   5   -0.09    1.80
 -15   4   5    1.61    1.52
 -15   4   5   -2.00    1.32
  11 -15   5    1.65    1.49
  16 -12  -5   -2.75    2.05
 -12  -4  -5    0.21    1.82
   4 -16   5    1.02    1.96
   4 -16   5   -2.66    1.77
 -12  -1  -5   27.21    2.63
  13 -12  -5   22.70    2.53
  13 -12  -5   20.60    2.67
  12   1   5   25.18    2.32
   1 -13   5   19.23    2.37
   1 -13   5   20.77    2.36
   1 -13   5   24.71    2.63
  10 -12  -5    0.06    1.26
  10 -12  -5   -1.21    1.39
 -12   2  -5   -1.66    0.91
  -2 -10   5   -1.54    1.13
  -2 -10   5   -0.60    1.15
  -2 -10   5    0.13    1.19
  12  -2   5   -1.67    1.10
   7 -12  -5   10.23    1.83
 -12   5  -5    8.52    1.58
  -5  -7   5    7.64    1.52
  -5  -7   5    7.26    1.27
  -5  -7   5    6.71    1.40
  12  -5   5    6.03    1.50
 -12   8  -5   26.55    2.55
   4 -12  -5   31.41    2.72
   4 -12  -5   24.13    2.21
   4 -12  -5   19.63    2.25
  -8  -4   5   24.54    1.97
  12  -8   5   23.23    2.26
  -8  -4   5   26.55    2.31
   1 -12  -5    0.32    1.42
  11   1  -5   -0.08    1.04
   1 -12  -5    0.84    1.40
 -12  11  -5   -2.88    1.38
   1 -12  -5   -0.28    1.28
  12 -11   5   -1.70    1.11
 -11  -1   5   -0.29    0.94
 -11  -1   5   -0.21    1.24
  12 -11   5   -0.66    1.35
  -2 -12  -5   27.69    2.93
  14  -2  -5   23.01    2.60
  -2 -12  -5   22.51    2.68
  -2 -12  -5   29.64    2.81
  12 -14   5   27.34    2.73
  12 -14   5   26.28    2.86
 -14   2   5   22.25    2.04
 -14   2   5   24.55    2.56
 -13  -2  -5   13.02    2.27
  15 -13  -5    2.40    2.31
   2 -15   5   15.45    2.40
   2 -15   5   10.72    2.39
   2 -15   5    9.72    2.45
  12 -13  -5   10.24    2.07
 -13   1  -5    5.77    1.54
  12 -13  -5   10.68    2.10
  -1 -12   5    7.44    1.71
  -1 -12   5    6.15    1.66
  13  -1   5    5.58    1.72
  -1 -12   5    6.43    1.70
 -13   4  -5   19.32    1.66
 -13   4  -5   16.14    1.85
   9 -13  -5   20.82    2.52
  13  -4   5   17.82    2.17
  -4  -9   5   17.46    2.06
  -4  -9   5   21.32    2.29
  -4  -9   5   21.93    2.09
 -13   7  -5   17.11    2.24
   6 -13  -5   15.77    2.19
   6 -13  -5   23.16    2.44
  13  -7   5   20.40    2.31
  -7  -6   5   20.91    1.97
  -7  -6   5   22.71    1.79
  -7  -6   5   19.25    2.10
   3 -13  -5   11.84    2.12
   3 -13  -5   11.18    1.95
 -13  10  -5   11.06    2.13
   3 -13  -5   13.06    1.95
  13 -10   5   10.49    2.13
 -10  -3   5    8.12    1.43
 -10  -3   5    9.33    1.79
  13   0  -5   -1.38    1.37
   0 -13  -5   -3.67    1.42
   0 -13  -5   -0.50    1.54
   0 -13  -5   -2.52    1.51
 -13   0   5   -0.74    1.11
 -13   0   5   -0.03    1.41
  13 -13   5   -1.05    1.57
  13 -13   5   -0.90    1.44
  -3 -13  -5   -3.23    1.82
  -3 -13  -5    0.91    1.84
  -3 -13  -5   -2.69    1.78
  16  -3  -5    1.70    2.00
  13 -16   5    1.69    1.99
 -16   3   5    1.26    1.52
  13 -16   5    0.56    1.75
  14 -14  -5   -0.42    1.67
  14 -14  -5    6.26    2.20
 -14   0  -5    1.74    1.53
   0 -14   5   -0.99    1.66
   0 -14   5    5.12    1.77
  14   0   5    2.09    1.64
   0 -14   5    1.59    1.81
  11 -14  -5    1.45    1.81
 -14   3  -5    1.28    1.11
  -3 -11   5   -1.15    1.27
  -3 -11   5    0.66    1.32
  -3 -11   5    1.88    1.60
  14  -3   5    0.41    1.41
   8 -14  -5   11.29    2.27
 -14   6  -5   13.09    1.98
  -6  -8   5    7.49    1.60
  14  -6   5   10.75    2.05
  -6  -8   5   13.76    1.71
  -6  -8   5   11.41    1.94
   5 -14  -5   12.19    2.19
 -14   9  -5    9.85    2.12
   5 -14  -5   10.86    2.15
  -9  -5   5   12.82    1.70
  -9  -5   5    9.83    1.86
  14  -9   5   10.64    2.12
   2 -14  -5   19.26    2.69
   2 -14  -5   21.32    2.61
   2 -14  -5   25.67    2.94
 -12  -2   5   17.75    2.35
  14 -12   5   18.31    2.64
 -12  -2   5   17.33    1.96
  -1 -14  -5    1.19    1.96
  -1 -14  -5   -3.05    1.74
  15  -1  -5   -1.07    1.61
  -1 -14  -5   -0.46    1.93
 -15   1   5    1.53    1.64
  14 -15   5   -1.42    1.85
  14 -15   5    0.95    1.82
 -15   2  -5   15.85    2.06
  13 -15  -5   15.20    2.63
  -2 -13   5   15.68    2.42
  -2 -13   5   15.69    2.46
  -2 -13   5   10.14    2.27
  15  -2   5    9.18    2.12
  10 -15  -5   -0.12    1.87
  -5 -10   5   -1.04    1.45
  15  -5   5    4.68    1.90
  -5 -10   5    2.58    1.53
  -5 -10   5    4.34    1.78
 -15   8  -5    2.55    1.73
   7 -15  -5    4.31    2.06
  -8  -7   5    3.44    1.59
  -8  -7   5    3.78    1.47
  15  -8   5    2.38    1.72
   4 -15  -5   -0.52    1.67
   4 -15  -5   -0.97    1.51
   4 -15  -5   -1.64    1.73
 -15  11  -5   -2.81    1.66
 -11  -4   5    1.02    1.51
 -11  -4   5    2.20    1.31
  15 -11   5   -1.15    1.67
   1 -15  -5    2.70    2.18
   1 -15  -5    2.11    2.02
   1 -15  -5    0.67    2.15
 -14  -1   5    3.91    1.92
  15 -14   5    3.15    2.19
 -14  -1   5    2.92    1.43
  12 -16  -5   -2.42    2.05
  16  -4   5   -1.08    1.70
  -4 -12   5    0.73    1.74
  -4 -12   5    4.20    1.85
  -4 -12   5    0.48    1.72
 -16   7  -5   -0.46    1.72
   9 -16  -5    0.78    1.99
  16  -7   5    0.96    1.78
  -7  -9   5   -1.31    1.55
  -7  -9   5    0.09    1.57
   6 -16  -5   -1.31    1.90
 -16  10  -5    4.48    2.10
   6 -16  -5   -0.15    2.03
  16 -10   5    2.84    2.07
 -10  -6   5    2.44    1.51
 -10  -6   5    5.04    1.94
   3 -16  -5    4.33    2.02
   3 -16  -5    2.82    2.32
   3 -16  -5    1.28    2.22
 -13  -3   5    4.47    1.46
  16 -13   5   -0.15    2.14
 -13  -3   5    2.51    2.01
  -6 -11   5    2.98    2.05
   8 -17  -5   25.42    3.67
 -17   9  -5   21.18    2.97
  -9  -8   5   25.99    2.65
  -9  -8   5   23.48    2.95
  17  -9   5   31.69    3.67
   0   0  -6  100.21    2.46
   0   0  -6   93.22    2.43
   0   0   6   98.81    2.47
  -1  -1  -6    7.17    0.74
  -1   2  -6    6.75    0.76
   2  -1  -6    5.18    0.72
  -2   1   6    5.19    0.74
   1  -2   6    4.25    0.64
  -2   1  -6   12.36    0.85
  -1  -1   6   11.94    0.94
   2  -1   6   11.88    0.90
   4  -2  -6   10.70    1.02
  -2  -2  -6   10.67    0.84
  -2   4  -6   12.79    1.02
  -2  -2  -6   11.68    1.02
  -2  -2  -6   10.48    0.85
   2  -4   6   11.41    0.88
   2   2   6   12.69    0.91
   2  -4   6   12.89    0.89
   2  -4   6   14.41    1.07
  -4   2   6   10.13    1.03
   3  -3  -6    0.65    0.62
  -3   0  -6    0.84    0.53
   3  -3  -6    1.20    0.59
  -3   3   6    1.09    0.62
   3   0   6    1.08    0.60
   0  -3   6    0.97    0.54
   0  -3  -6    3.11    0.68
   0  -3  -6    4.13    0.69
  -3   3  -6    3.81    0.76
   0  -3  -6    3.56    0.71
  -3   0   6    3.82    0.70
   3  -3   6    3.45    0.67
  -3  -3  -6   85.85    2.54
   6  -3  -6   81.37    2.80
  -3  -3  -6   83.93    2.77
  -3   6  -6   85.59    2.76
  -3  -3  -6   82.91    2.51
   3  -6   6   82.45    2.53
   3  -6   6   79.12    2.57
   3  -6   6   81.89    2.42
  -6   3   6   83.53    2.84
   5  -4  -6    4.70    0.92
  -4  -1  -6    4.97    0.85
  -1   5  -6    6.28    0.80
   5  -4  -6    6.27    0.92
   1  -5   6    5.90    0.80
  -5   4   6    5.23    0.95
   1  -5   6    4.63    0.72
   4   1   6    4.80    0.77
   2  -4  -6  166.75    4.49
  -4   2  -6  174.39    4.28
   4  -2   6  161.96    4.25
  -1  -4  -6    4.31    0.82
  -1  -4  -6    2.85    0.74
  -1  -4  -6    4.36    0.87
   5  -1  -6    5.44    0.83
  -4   5  -6    3.35    0.88
   4  -5   6    3.91    0.80
  -5   1   6    5.73    0.90
   4  -5   6    5.74    0.79
   4  -5   6    5.72    0.71
   8  -4  -6   56.20    2.53
  -4  -4  -6   56.30    2.08
  -4  -4  -6   53.77    2.19
  -4  -4  -6   57.65    2.44
  -4   8  -6   56.10    2.43
   4  -8   6   55.91    2.51
   4  -8   6   51.98    1.96
  -8   4   6   55.82    2.51
   4  -8   6   51.25    1.96
   4  -8   6   53.52    2.30
   7  -5  -6    3.10    0.94
  -5  -2  -6    2.82    0.85
   2  -7   6    3.06    0.85
  -7   5   6    3.40    1.02
   5   2   6    3.24    0.71
   2  -7   6    4.37    0.76
  -5   1  -6    9.22    0.85
   4  -5  -6    7.61    1.05
  -5   1  -6    9.77    0.90
  -1  -4   6    9.54    0.96
  -4   5   6    9.68    1.02
   5  -1   6    9.62    0.98
  -1  -4   6   10.64    1.01
   1  -5  -6    1.40    0.75
   1  -5  -6    0.97    0.69
   1  -5  -6   -0.10    0.69
  -5   4  -6    0.09    0.68
  -4  -1   6    0.60    0.56
   5  -4   6    2.64    0.72
   7  -2  -6    0.75    0.74
  -2  -5  -6    0.74    0.78
  -2  -5  -6    0.20    0.60
  -2  -5  -6    0.66    0.70
  -5   7  -6    0.69    0.79
   5  -7   6    0.98    0.63
   5  -7   6    0.06    0.72
   5  -7   6    0.23    0.67
   5  -7   6   -0.71    0.61
  -7   2   6   -0.69    0.72
  10  -5  -6   14.21    1.69
  -5  -5  -6   13.68    1.65
  -5  -5  -6   14.17    1.43
   5 -10   6   15.64    1.61
   5 -10   6   14.45    1.28
   5 -10   6   14.19    1.68
 -10   5   6   14.70    1.75
   9  -6  -6    0.44    0.93
  -6  -3  -6   -0.41    0.88
  -6  -3  -6    0.16    0.68
  -9   6   6    0.00    0.98
   6   3   6   -0.05    0.62
   3  -9   6   -0.14    0.65
   3  -9   6   -0.64    0.76
   3  -9   6   -0.06    0.86
   6  -6  -6    8.08    1.11
   6  -6  -6    9.43    1.14
  -6   0  -6    9.81    1.03
   6  -6  -6    8.71    1.21
   0  -6   6    7.85    0.98
   0  -6   6    6.32    0.99
  -6   6   6    9.31    1.25
   6   0   6    9.89    1.04
  -6   3  -6    1.01    0.76
   3  -6  -6    1.86    0.82
   6  -3   6    2.72    0.79
  -3  -3   6    1.04    0.72
  -3  -3   6    2.83    0.78
   0  -6  -6   34.55    1.90
  -6   6  -6   29.91    1.86
   6   0  -6   29.44    1.60
   0  -6  -6   29.81    1.80
   0  -6  -6   30.28    1.82
   6  -6   6   30.65    1.69
   6  -6   6   31.04    1.76
  -6   0   6   29.49    1.69
  -6   0   6   34.00    1.69
  -3  -6  -6   -1.26    0.69
   9  -3  -6   -0.09    0.88
  -6   9  -6   -1.34    0.88
  -3  -6  -6   -0.88    0.78
  -3  -6  -6    0.62    0.91
   6  -9   6   -1.07    0.61
   6  -9   6    0.48    0.74
  -9   3   6   -0.70    0.75
   6  -9   6   -1.43    0.82
   6  -9   6   -0.76    0.78
  -9   3   6    1.62    0.95
  -6  -6  -6    6.48    1.38
  12  -6  -6    8.56    1.72
  -6  -6  -6    4.56    1.39
 -12   6   6    7.28    1.23
 -12   6   6    8.84    1.74
   6 -12   6    5.28    1.45
   6 -12   6    2.49    1.29
  -7  -4  -6   11.26    1.57
  11  -7  -6    7.95    1.59
  -7  -4  -6   11.43    1.33
 -11   7   6    8.62    1.71
   4 -11   6   10.10    1.58
   4 -11   6   10.27    1.65
   4 -11   6   10.58    1.28
   8  -7  -6    2.09    0.85
   8  -7  -6    1.84    0.88
   8  -7  -6    1.03    0.96
  -7  -1  -6    1.10    0.83
   7   1   6    0.44    0.75
  -8   7   6    1.28    0.99
   1  -8   6    1.78    0.83
   1  -8   6    2.18    0.93
  -7   2  -6    1.80    0.61
   5  -7  -6    2.45    0.92
  -2  -5   6    0.82    0.75
  -2  -5   6    1.42    0.75
   7  -2   6    1.07    0.76
  -7   5  -6    9.64    1.28
   2  -7  -6    8.81    1.14
   2  -7  -6    9.53    1.19
   2  -7  -6    9.20    1.18
   7  -5   6   11.49    1.28
  -5  -2   6    8.35    1.01
  -5  -2   6    9.44    1.14
  -1  -7  -6    0.03    0.82
  -1  -7  -6   -1.51    0.78
  -1  -7  -6    0.35    0.87
   8  -1  -6    0.62    0.82
  -7   8  -6    0.34    0.88
   7  -8   6    0.23    0.62
  -8   1   6    1.09    0.83
   7  -8   6    0.74    0.73
  -8   1   6    0.22    0.83
   7  -8   6    0.76    0.77
   7  -8   6    1.04    0.82
  11  -4  -6    0.30    1.16
  -4  -7  -6    1.64    1.21
  -4  -7  -6    1.12    1.02
  -4  -7  -6    1.81    0.98
   7 -11   6    0.49    1.12
 -11   4   6   -1.50    1.02
   7 -11   6    0.97    0.91
 -11   4   6    2.30    1.07
   7 -11   6    1.47    1.13
  -7  -7  -6    3.91    1.38
  -7  -7  -6   -1.08    1.47
  14  -7  -6    1.22    1.61
 -14   7   6    2.10    1.26
 -14   7   6    2.25    1.56
   7 -14   6    0.82    1.62
   7 -14   6    1.06    1.49
  13  -8  -6   11.09    2.03
  -8  -5  -6    9.28    1.52
  -8  -5  -6   11.96    1.94
 -13   8   6    8.69    1.97
   5 -13   6    9.32    1.77
   5 -13   6    9.06    1.89
  -8  -2  -6   11.37    1.47
  10  -8  -6    9.30    1.59
   2 -10   6    6.95    1.23
   2 -10   6    8.29    1.44
   8   2   6    8.50    1.16
 -10   8   6    7.20    1.60
   2 -10   6    7.81    1.44
  -8   1  -6   35.50    1.85
   7  -8  -6   36.78    1.78
   7  -8  -6   37.98    2.24
   7  -8  -6   40.53    2.43
  -1  -7   6   34.89    2.03
  -7   8   6   35.54    2.21
   8  -1   6   37.27    2.06
  -1  -7   6   39.95    2.12
   4  -8  -6    7.94    1.27
   4  -8  -6    8.90    1.25
  -8   4  -6    9.60    1.25
   8  -4   6    9.22    1.29
  -4  -4   6    8.64    1.12
  -4  -4   6    9.40    1.23
   1  -8  -6   29.73    2.16
   1  -8  -6   29.47    2.02
  -8   7  -6   26.93    2.09
   1  -8  -6   30.80    2.05
   7   1  -6   28.83    1.68
  -7  -1   6   26.52    1.91
   8  -7   6   29.67    1.76
   8  -7   6   27.35    1.92
  -2  -8  -6   -1.63    0.93
  -2  -8  -6    1.30    1.13
  10  -2  -6   -0.26    1.02
  -2  -8  -6    1.11    1.05
  -8  10  -6   -1.08    1.02
 -10   2   6   -0.67    0.90
   8 -10   6   -0.72    0.91
   8 -10   6   -1.20    0.86
 -10   2   6   -0.17    0.86
   8 -10   6    0.84    1.08
  -5  -8  -6   17.51    1.84
  -5  -8  -6   19.25    2.28
  13  -5  -6   15.66    2.21
  -5  -8  -6   11.36    1.76
   8 -13   6   17.36    1.78
   8 -13   6   22.20    2.19
   8 -13   6   11.96    1.95
 -13   5   6   15.37    2.03
 -13   5   6   15.38    1.76
  -8  -8  -6    5.50    1.81
  16  -8  -6    6.22    2.28
  -8  -8  -6   10.11    2.17
   8 -16   6    7.47    2.15
 -16   8   6    6.19    2.19
   8 -16   6    6.18    2.35
  -9  -6  -6   -0.96    1.33
  -9  -6  -6    1.90    1.69
  15  -9  -6    1.39    1.74
   6 -15   6   -1.47    1.66
   6 -15   6    3.67    1.84
 -15   9   6    2.67    1.89
  -9  -3  -6   42.71    2.77
  12  -9  -6   38.39    3.18
   3 -12   6   38.20    2.76
 -12   9   6   35.79    3.08
   9   3   6   40.98    2.18
   3 -12   6   41.77    2.94
   3 -12   6   35.91    2.39
   9  -9  -6    4.04    1.00
   9  -9  -6    3.96    1.20
   9  -9  -6    5.10    1.35
  -9   0  -6    5.29    1.13
   0  -9   6    6.58    1.27
   9   0   6    4.83    1.07
   0  -9   6    2.92    1.08
   0  -9   6    2.47    1.10
  -9   9   6    1.22    1.19
  -9   3  -6   21.84    1.37
   6  -9  -6   21.01    1.92
  -9   3  -6   19.00    1.59
  -3  -6   6   24.96    1.84
   9  -3   6   23.69    1.91
  -3  -6   6   23.15    1.77
  -9   6  -6   36.78    2.33
   3  -9  -6   32.69    2.33
   3  -9  -6   33.69    2.02
   3  -9  -6   39.31    2.30
  -6  -3   6   34.67    2.19
   9  -6   6   34.55    2.20
  -6  -3   6   34.85    1.96
   0  -9  -6   -0.19    1.01
  -9   9  -6    2.38    1.19
   0  -9  -6    0.95    1.03
   9   0  -6    2.14    0.92
   0  -9  -6    1.59    1.15
  -9   0   6    2.04    1.03
   9  -9   6   -0.35    0.89
   9  -9   6    1.42    0.96
  -3  -9  -6   35.60    2.57
  -3  -9  -6   30.82    2.48
  -3  -9  -6   35.19    2.80
  12  -3  -6   34.19    2.76
 -12   3   6   32.55    2.44
 -12   3   6   29.05    2.33
   9 -12   6   33.44    2.72
   9 -12   6   29.87    2.41
  -6  -9  -6    0.36    1.62
  15  -6  -6   -0.95    1.68
  -6  -9  -6    3.36    1.63
   9 -15   6    0.27    1.23
 -15   6   6    1.10    1.58
   9 -15   6    4.83    1.96
   9 -15   6    1.87    1.49
 -10  -7  -6    1.61    1.60
 -10  -7  -6    1.11    2.01
  17 -10  -6   -1.09    2.35
 -17  10   6    1.03    2.06
   7 -17   6   -0.85    2.24
   7 -17   6    2.87    2.17
  14 -10  -6    5.67    2.01
 -10  -4  -6    5.53    1.79
 -10  -4  -6    7.25    1.42
 -14  10   6    6.31    2.07
   4 -14   6    3.28    1.68
   4 -14   6    3.31    1.72
   4 -14   6    7.75    1.62
  11 -10  -6    9.71    1.79
  11 -10  -6   14.35    1.83
 -10  -1  -6   10.12    1.61
   1 -11   6    9.07    1.65
   1 -11   6   10.48    1.58
  10   1   6   12.06    1.55
   1 -11   6   13.34    1.82
 -10   2  -6   35.51    2.01
   8 -10  -6   38.12    2.76
   8 -10  -6   34.43    2.47
  -2  -8   6   41.70    2.41
  -2  -8   6   40.39    2.39
  10  -2   6   40.44    2.37
  -2  -8   6   41.19    2.42
 -10   5  -6   15.44    1.70
   5 -10  -6   15.92    1.85
   5 -10  -6   14.81    1.68
  -5  -5   6   12.89    1.44
  -5  -5   6   13.40    1.57
  10  -5   6   15.65    1.75
   2 -10  -6   31.34    2.29
   2 -10  -6   33.17    2.58
 -10   8  -6   30.89    2.50
   2 -10  -6   26.61    2.24
  10  -8   6   33.00    2.33
  -8  -2   6   31.86    2.29
  10  -8   6   34.75    2.07
  -8  -2   6   33.53    2.02
  -1 -10  -6    8.05    1.61
  11  -1  -6    5.24    1.44
  -1 -10  -6    6.57    1.50
  -1 -10  -6    4.46    1.51
 -11   1   6    8.92    1.59
  10 -11   6    7.93    1.57
  10 -11   6    6.87    1.60
  -4 -10  -6    3.68    1.53
  14  -4  -6    4.16    1.77
  -4 -10  -6    7.36    1.73
  -4 -10  -6    7.27    1.89
  10 -14   6    4.28    1.50
 -14   4   6    5.57    1.58
  10 -14   6    6.22    1.87
 -14   4   6    5.89    1.50
  -7 -10  -6   -2.55    1.71
  -7 -10  -6    1.61    1.99
  17  -7  -6    1.83    2.29
  10 -17   6   -3.02    2.10
 -17   7   6    2.02    2.00
 -11  -5  -6    8.53    2.26
  16 -11  -6   10.74    2.75
   5 -16   6   11.33    2.38
   5 -16   6   12.47    2.71
 -11  -2  -6   -2.28    1.21
  13 -11  -6    1.25    1.61
   2 -13   6    0.71    1.28
  11   2   6    0.93    1.14
   2 -13   6   -0.79    1.20
   2 -13   6    0.97    1.38
 -11   1  -6    7.22    1.39
  10 -11  -6    6.92    1.74
  10 -11  -6    3.86    1.46
  -1 -10   6    8.27    1.54
  -1 -10   6    4.10    1.34
  11  -1   6    7.42    1.41
  -1 -10   6    8.42    1.53
 -11   4  -6    2.21    0.78
   7 -11  -6    3.54    1.41
 -11   4  -6    3.21    1.15
  11  -4   6    2.60    1.17
  -4  -7   6    2.18    1.15
  -4  -7   6    1.59    1.09
  -4  -7   6    2.76    1.02
   4 -11  -6   -0.05    1.19
   4 -11  -6    2.04    1.25
 -11   7  -6    1.94    1.28
   4 -11  -6    3.73    1.19
  -7  -4   6    2.00    1.08
  11  -7   6    1.00    1.11
  -7  -4   6    2.19    0.98
  10   1  -6    4.05    1.14
   1 -11  -6    3.80    1.44
   1 -11  -6    1.22    1.26
 -11  10  -6    1.71    1.45
   1 -11  -6    1.90    1.41
  11 -10   6    2.82    1.27
  11 -10   6    3.78    1.39
 -10  -1   6    3.64    1.33
 -10  -1   6    2.55    1.06
  -2 -11  -6    2.83    1.57
  -2 -11  -6   -0.20    1.37
  -2 -11  -6    1.23    1.36
  13  -2  -6    0.52    1.32
  11 -13   6    1.23    1.45
  11 -13   6    0.66    1.50
 -13   2   6    0.44    1.38
  -5 -11  -6    6.03    2.15
  -5 -11  -6    7.10    2.07
  16  -5  -6   10.18    2.58
  -5 -11  -6    6.32    2.07
 -16   5   6    7.23    1.94
  11 -16   6    3.59    1.74
  11 -16   6    6.60    2.52
  15 -12  -6   -0.14    1.84
 -12  -3  -6    0.02    1.66
   3 -15   6    2.92    1.54
   3 -15   6    0.28    1.74
   3 -15   6   -1.95    1.83
 -12   0  -6    3.23    1.32
  12 -12  -6   -0.15    1.52
  12 -12  -6   -2.35    1.29
   0 -12   6   -0.95    1.21
   0 -12   6   -0.13    1.29
  12   0   6   -0.29    1.19
   0 -12   6   -1.02    1.22
 -12   3  -6    8.31    1.29
   9 -12  -6    5.15    1.69
  -3  -9   6    7.36    1.50
  12  -3   6    7.94    1.56
  -3  -9   6    6.41    1.43
  -3  -9   6    3.05    1.33
   6 -12  -6    1.48    1.39
 -12   6  -6    2.09    1.36
  -6  -6   6   -0.26    0.98
  -6  -6   6    0.84    1.15
  12  -6   6    3.69    1.35
  -6  -6   6    2.78    0.96
   3 -12  -6    1.82    1.33
 -12   9  -6    1.70    1.47
   3 -12  -6    2.65    1.43
   3 -12  -6    0.64    1.34
  -9  -3   6    0.74    1.07
  -9  -3   6    1.60    1.20
  12  -9   6    1.58    1.34
   0 -12  -6    1.56    1.40
  12   0  -6    2.95    1.44
   0 -12  -6   -0.66    1.39
   0 -12  -6    0.81    1.58
 -12   0   6    0.40    1.37
  12 -12   6   -0.22    1.39
 -12   0   6    2.41    1.22
  12 -12   6   -0.99    1.40
  -3 -12  -6    0.66    1.72
  15  -3  -6   -0.35    1.64
  -3 -12  -6   -0.57    1.75
  -3 -12  -6   -2.33    1.47
  12 -15   6   -0.12    1.73
  12 -15   6   -3.75    1.68
 -15   3   6    1.12    1.45
 -13  -1  -6    2.50    1.71
  14 -13  -6   -0.02    1.86
   1 -14   6    0.82    1.63
   1 -14   6    2.58    1.90
   1 -14   6    4.29    1.79
  13   1   6    2.60    1.55
  11 -13  -6   18.14    2.37
 -13   2  -6   16.76    1.88
  -2 -11   6   18.86    2.21
  13  -2   6   19.50    2.22
  -2 -11   6   16.79    2.10
  -2 -11   6   19.92    2.37
   8 -13  -6    1.31    1.51
 -13   5  -6    0.30    1.18
  -5  -8   6   -1.02    1.02
  -5  -8   6    2.96    1.26
  -5  -8   6    0.69    1.21
  13  -5   6    0.17    1.28
   5 -13  -6   -0.53    1.36
 -13   8  -6    1.14    1.46
   5 -13  -6    1.29    1.54
  13  -8   6   -0.44    1.18
  -8  -5   6    0.85    1.26
  -8  -5   6   -0.07    1.08
 -13  11  -6   18.70    2.58
   2 -13  -6   19.49    2.43
   2 -13  -6   17.30    2.18
   2 -13  -6   19.90    2.48
 -11  -2   6   20.09    1.93
  13 -11   6   20.40    2.04
 -11  -2   6   19.97    2.29
  13 -11   6   19.71    2.52
  -1 -13  -6    4.64    2.02
  -1 -13  -6   -1.07    1.62
  14  -1  -6    5.29    1.75
  -1 -13  -6    2.62    1.93
  13 -14   6   -0.83    1.64
  13 -14   6    3.91    1.87
 -14   1   6    2.02    1.33
 -14   1   6    0.28    1.65
 -14   1  -6   19.94    2.30
  13 -14  -6   20.37    2.72
  -1 -13   6   23.43    2.66
  -1 -13   6   24.95    2.78
  -1 -13   6   20.55    2.52
  14  -1   6   23.58    2.75
 -14   4  -6    0.22    1.01
  10 -14  -6   -2.24    1.62
  -4 -10   6    2.79    1.38
  -4 -10   6    0.10    1.36
  -4 -10   6   -1.60    1.34
  14  -4   6    1.16    1.44
 -14   7  -6   32.73    2.82
   7 -14  -6   25.71    2.95
  -7  -7   6   32.32    2.57
  -7  -7   6   31.58    2.74
  14  -7   6   35.59    3.11
  -7  -7   6   35.93    2.42
 -14  10  -6    0.65    1.57
   4 -14  -6   -0.73    1.29
   4 -14  -6   -0.45    1.52
   4 -14  -6    0.10    1.57
  14 -10   6   -0.09    1.55
 -10  -4   6    2.73    1.52
 -10  -4   6   -0.86    1.13
   1 -14  -6   32.34    3.28
   1 -14  -6   32.34    3.21
   1 -14  -6   41.46    3.60
 -13  -1   6   34.72    3.03
 -13  -1   6   32.20    2.47
  14 -13   6   30.78    2.89
  14 -13   6   36.87    3.42
  12 -15  -6   23.03    3.03
  -3 -12   6   15.18    2.32
  15  -3   6   19.55    2.68
  -3 -12   6   17.19    2.43
  -3 -12   6   15.72    2.18
 -15   6  -6    1.41    1.55
   9 -15  -6   -3.17    1.74
  15  -6   6    0.26    1.63
  -6  -9   6    1.04    1.57
  -6  -9   6   -2.16    1.24
  -6  -9   6    0.76    1.32
   6 -15  -6    7.17    2.17
 -15   9  -6    6.13    2.07
  15  -9   6    4.66    1.94
  -9  -6   6    3.15    1.59
  -9  -6   6    2.93    1.50
   3 -15  -6    7.82    2.34
 -15  12  -6   13.13    2.61
   3 -15  -6    6.31    2.11
   3 -15  -6    9.89    2.20
  15 -12   6    9.85    2.43
 -12  -3   6   10.33    2.24
 -12  -3   6    7.86    1.66
  11 -16  -6    3.82    2.31
  16  -5   6    0.65    1.95
  -5 -11   6    4.94    1.85
  -5 -11   6    3.18    1.88
  -5 -11   6    7.84    2.14
 -16   8  -6    6.66    2.11
   8 -16  -6    5.60    2.40
  -8  -8   6    4.74    1.83
  -8  -8   6    2.95    1.56
  16  -8   6    5.05    2.11
 -16  11  -6   14.13    2.80
   5 -16  -6   14.55    2.90
   5 -16  -6   15.07    2.73
 -11  -5   6   12.16    1.93
 -11  -5   6   11.54    2.31
  16 -11   6   12.44    2.71
  10 -17  -6   -1.38    2.29
  -7 -10   6   -1.02    1.83
  17  -7   6    3.54    2.21
  -7 -10   6   -0.22    1.88
 -17  10  -6    0.30    2.16
   7 -17  -6    1.83    2.31
 -10  -7   6   -0.45    1.55
 -10  -7   6   -2.16    1.73
  17 -10   6    0.02    2.23
  -1   0  -7  214.14    4.75
   1  -1  -7  203.46    4.79
  -1   0  -7  203.91    4.71
   0   1  -7  208.89    4.90
   1  -1  -7  205.85    4.79
  -1   1   7  209.53    4.85
   1   0   7  203.24    4.75
   0  -1   7  206.25    4.86
   3  -2  -7   54.60    1.90
  -1   3  -7   48.73    1.84
  -2  -1  -7   51.25    1.80
   1  -3   7   52.09    1.70
  -3   2   7   51.94    1.88
   1  -3   7   50.73    1.67
   2   1   7   51.61    1.81
   1  -3   7   53.73    1.79
  -2   2  -7   14.13    1.01
  -2   0   7   12.43    0.96
   2  -2   7   11.98    0.90
  -2   5  -7   27.70    1.53
  -3  -2  -7   27.04    1.29
   5  -3  -7   26.99    1.61
  -3  -2  -7   26.23    1.52
   2  -5   7   26.05    1.21
   2  -5   7   29.54    1.35
   2  -5   7   28.02    1.23
   2  -5   7   27.57    1.41
  -5   3   7   26.41    1.62
   3   2   7   27.64    1.36
   2  -3  -7   69.38    2.36
  -3   1  -7   70.28    1.97
   3  -1   7   71.48    2.21
  -1  -3  -7    4.88    0.84
  -1  -3  -7    3.13    0.69
  -1  -3  -7    4.45    0.75
  -3   4  -7    2.61    0.77
   3  -4   7    3.41    0.70
  -4   1   7    2.48    0.74
  -4  -3  -7   26.92    1.77
  -3   7  -7   26.76    1.71
   7  -4  -7   29.44    1.90
  -4  -3  -7   31.20    1.54
  -7   4   7   27.15    1.84
   3  -7   7   27.98    1.70
   3  -7   7   30.28    1.39
   4   3   7   28.33    1.41
   3  -7   7   27.07    1.36
   4  -4  -7   62.92    2.32
  -4   0  -7   62.01    2.04
   0   4  -7   65.24    2.11
   4  -4  -7   63.83    2.12
   0  -4   7   57.52    2.02
   0  -4   7   61.07    2.11
   4   0   7   64.35    2.16
  -4   4   7   61.10    2.19
  -4   3  -7    0.56    0.68
   1  -4  -7    0.00    0.62
   1  -4  -7    0.10    0.63
   1  -4  -7    0.12    0.62
   4  -3   7    0.96    0.60
  -3  -1   7    0.33    0.56
  -2  -4  -7    0.61    0.66
  -2  -4  -7    0.45    0.73
  -2  -4  -7    0.66    0.60
   6  -2  -7    0.23    0.67
  -4   6  -7   -0.10    0.67
  -6   2   7    0.45    0.74
   4  -6   7    0.10    0.56
   4  -6   7    0.70    0.59
   4  -6   7    1.34    0.64
  -5  -4  -7   26.35    2.01
   9  -5  -7   32.93    2.21
  -5  -4  -7   26.64    1.77
  -4   9  -7   26.03    1.93
  -9   5   7   27.29    2.15
   4  -9   7   29.91    1.96
   4  -9   7   28.15    2.13
   6  -5  -7  101.58    3.35
   6  -5  -7   99.58    3.18
  -5  -1  -7  103.07    3.11
   1  -6   7   96.03    2.93
  -6   5   7  105.81    3.35
   1  -6   7   98.84    3.12
   5   1   7  107.91    3.06
   3  -5  -7   41.48    2.00
  -5   2  -7   37.61    1.41
  -5   2  -7   40.46    1.75
  -2  -3   7   39.78    1.74
  -2  -3   7   39.78    1.71
   5  -2   7   41.51    1.77
   0  -5  -7  381.14    9.34
   0  -5  -7  380.76    8.90
  -5   5  -7  388.92    9.22
   0  -5  -7  388.64    8.87
   5  -5   7  378.20    9.00
  -5   0   7  396.16    9.00
   8  -3  -7   31.21    2.01
  -3  -5  -7   37.19    1.85
  -5   8  -7   33.31    2.07
  -3  -5  -7   37.45    1.91
  -3  -5  -7   34.19    2.11
   5  -8   7   37.33    2.18
   5  -8   7   35.61    1.75
   5  -8   7   33.86    1.74
   5  -8   7   32.00    1.83
  -8   3   7   34.30    2.06
  -6  -5  -7   69.49    3.34
  -6  -5  -7   81.18    3.08
  11  -6  -7   73.39    3.53
 -11   6   7   76.49    3.52
   5 -11   7   68.84    3.45
   5 -11   7   79.76    3.31
  -6  -2  -7    1.01    0.85
   8  -6  -7    1.77    0.93
   2  -8   7    1.10    0.86
   6   2   7    1.43    0.73
   2  -8   7    0.20    0.69
  -8   6   7    1.38    1.00
   5  -6  -7   93.78    3.25
  -6   1  -7   92.25    2.75
  -1  -5   7   97.06    2.95
   6  -1   7   93.42    2.98
  -1  -5   7   99.18    3.03
  -5   6   7   92.25    3.03
   2  -6  -7   11.20    1.23
   2  -6  -7    9.56    1.13
   2  -6  -7   10.91    1.12
  -6   4  -7   12.38    1.28
  -4  -2   7   12.22    1.18
   6  -4   7   10.98    1.18
  -1  -6  -7    9.62    1.17
  -1  -6  -7   10.35    1.22
  -6   7  -7    7.95    1.22
   7  -1  -7    9.25    1.16
  -1  -6  -7    9.60    1.22
   6  -7   7    8.66    1.12
   6  -7   7    7.98    1.05
  -7   1   7    9.90    1.14
   6  -7   7    9.78    1.19
  10  -4  -7   17.44    1.84
  -4  -6  -7   16.53    1.79
  -4  -6  -7   17.19    1.52
  -6  10  -7   15.09    1.99
  -4  -6  -7   19.10    1.68
   6 -10   7   17.11    1.82
   6 -10   7   18.65    1.71
 -10   4   7   20.99    2.08
   6 -10   7   21.42    1.60
  -7  -6  -7    1.85    1.20
  13  -7  -7    0.47    1.46
  -7  -6  -7    0.29    1.27
   6 -13   7   -0.01    1.33
   6 -13   7    0.55    1.42
 -13   7   7    0.82    1.07
 -13   7   7    2.18    1.50
  10  -7  -7    2.60    1.18
  -7  -3  -7    4.09    1.17
  -7  -3  -7    3.17    0.89
   7   3   7    4.19    0.96
   3 -10   7    2.73    1.14
   3 -10   7    3.35    1.11
   3 -10   7    4.19    0.95
 -10   7   7    0.45    1.23
   7  -7  -7    0.53    0.91
   7  -7  -7    0.47    0.88
  -7   0  -7    0.80    0.73
   7  -7  -7   -0.19    0.70
   0  -7   7    0.58    0.77
   7   0   7    0.98    0.76
   0  -7   7    0.88    0.79
  -7   7   7    2.47    0.93
   4  -7  -7    2.94    0.99
  -7   3  -7    2.75    0.87
  -3  -4   7    4.39    0.90
  -3  -4   7    3.48    0.87
   7  -3   7    3.21    0.87
   1  -7  -7    0.77    0.83
   1  -7  -7    0.73    0.81
   1  -7  -7    0.54    0.84
  -7   6  -7   -0.38    0.76
   7  -6   7   -0.33    0.72
  -6  -1   7    0.58    0.67
  -6  -1   7    0.25    0.75
   7  -6   7    0.95    0.69
  -7   9  -7   15.57    1.75
   9  -2  -7   20.13    1.78
  -2  -7  -7   18.85    1.70
  -2  -7  -7   16.49    1.58
  -2  -7  -7   17.37    1.72
  -9   2   7   15.22    1.50
   7  -9   7   16.55    1.55
  -9   2   7   15.24    1.58
   7  -9   7   16.50    1.68
   7  -9   7   17.87    1.51
   7  -9   7   15.88    1.51
  -5  -7  -7    2.73    1.10
  -5  -7  -7    3.46    1.27
  -5  -7  -7    2.51    1.36
  12  -5  -7    1.81    1.33
   7 -12   7    1.78    1.26
 -12   5   7    2.82    1.14
 -12   5   7    4.24    1.48
   7 -12   7    2.23    1.11
   7 -12   7    3.67    1.29
  15  -8  -7   -0.62    1.65
  -8  -7  -7    1.11    1.36
  -8  -7  -7    2.82    1.65
   7 -15   7   -0.25    1.63
 -15   8   7    3.08    1.69
   7 -15   7    3.64    1.75
  -8  -4  -7    9.83    1.36
  12  -8  -7    9.42    1.82
  -8  -4  -7    8.65    1.67
 -12   8   7   11.77    1.99
   4 -12   7   10.77    1.77
   4 -12   7   11.72    1.78
   4 -12   7   12.61    1.50
   9  -8  -7   -0.27    0.94
   9  -8  -7    1.78    1.07
  -8  -1  -7    1.16    0.91
   1  -9   7    1.04    0.96
   1  -9   7    1.77    0.98
   1  -9   7    0.55    0.86
  -9   8   7    0.51    1.03
   8   1   7   -0.52    0.80
   6  -8  -7   11.07    1.42
  -8   2  -7   13.32    1.15
  -2  -6   7   14.02    1.39
  -2  -6   7   14.27    1.42
   8  -2   7   14.34    1.44
   3  -8  -7    2.42    0.99
   3  -8  -7    1.42    0.91
   3  -8  -7    2.07    0.87
  -8   5  -7    1.34    0.94
   8  -5   7    3.66    1.03
  -5  -3   7    2.95    0.88
  -5  -3   7    2.45    0.89
   0  -8  -7    0.25    0.94
   0  -8  -7    0.91    0.94
   8   0  -7    0.40    0.76
   0  -8  -7    0.54    0.97
  -8   8  -7    1.33    1.00
   8  -8   7    0.31    0.83
   8  -8   7    0.42    0.82
  -8   0   7    0.64    0.85
  -8   0   7    2.35    0.99
  -3  -8  -7   16.06    1.80
  -3  -8  -7   14.03    1.71
  11  -3  -7   12.99    1.76
  -3  -8  -7   16.58    1.98
   8 -11   7   18.40    1.81
   8 -11   7   16.70    1.68
 -11   3   7   15.33    1.80
   8 -11   7   13.70    1.77
 -11   3   7   13.62    1.65
  -6  -8  -7    0.37    1.26
  -6  -8  -7   -1.04    1.11
  14  -6  -7   -2.43    1.37
  -6  -8  -7   -1.36    1.37
 -14   6   7   -2.42    1.42
   8 -14   7   -0.86    1.00
   8 -14   7   -0.62    1.41
 -14   6   7   -1.83    1.18
   8 -14   7   -2.05    1.40
  -9  -8  -7   22.34    2.51
  -9  -8  -7   21.50    3.01
  17  -9  -7   15.63    3.08
   8 -17   7   20.94    3.00
 -17   9   7   16.43    2.84
   8 -17   7   20.41    3.26
  -9  -5  -7   -1.20    1.14
  14  -9  -7    0.02    1.61
  -9  -5  -7    0.80    1.43
 -14   9   7   -1.86    1.61
   5 -14   7   -0.50    1.44
   5 -14   7    0.08    1.50
  -9  -2  -7   26.72    2.20
  11  -9  -7   30.32    2.67
   2 -11   7   22.33    2.11
   2 -11   7   24.95    2.01
   9   2   7   25.32    1.91
   2 -11   7   23.01    2.18
 -11   9   7   24.74    2.57
   8  -9  -7   25.63    2.19
  -9   1  -7   24.70    1.74
   8  -9  -7   24.56    2.14
  -8   9   7   22.50    2.04
   9  -1   7   26.02    1.95
  -1  -8   7   24.62    1.98
  -1  -8   7   26.18    2.01
  -9   4  -7   23.75    1.87
   5  -9  -7   27.02    2.18
  -4  -5   7   23.22    1.80
   9  -4   7   29.32    2.00
  -4  -5   7   25.75    1.93
   2  -9  -7   45.45    2.38
  -9   7  -7   42.39    2.57
   2  -9  -7   49.52    2.55
   2  -9  -7   42.71    2.59
  -7  -2   7   47.84    2.43
   9  -7   7   43.75    2.43
   9  -7   7   43.19    2.08
  -7  -2   7   39.77    2.14
  -1  -9  -7   50.74    2.82
  -1  -9  -7   45.29    2.75
  -9  10  -7   45.61    2.88
  10  -1  -7   48.66    2.64
  -1  -9  -7   44.47    2.83
   9 -10   7   47.04    2.74
 -10   1   7   46.04    2.44
   9 -10   7   45.25    2.64
 -10   1   7   47.47    2.68
  -4  -9  -7   26.17    2.54
  -4  -9  -7   23.74    2.35
  13  -4  -7   23.02    2.45
  -4  -9  -7   23.86    2.24
   9 -13   7   23.00    2.50
 -13   4   7   27.18    2.52
   9 -13   7   22.60    2.19
   9 -13   7   21.17    2.14
 -13   4   7   21.27    2.11
  -7  -9  -7    3.16    1.75
  -7  -9  -7    7.25    2.18
  16  -7  -7    3.89    2.25
   9 -16   7    2.46    1.77
 -16   7   7    1.86    1.88
   9 -16   7    3.69    2.19
 -10  -6  -7   39.19    3.44
  16 -10  -7   36.37    3.72
 -10  -6  -7   33.12    2.70
   6 -16   7   38.11    3.44
 -16  10   7   36.48    3.72
   6 -16   7   30.03    3.54
  13 -10  -7    6.09    1.86
 -10  -3  -7    7.58    1.68
  10   3   7    9.80    1.41
   3 -13   7    6.61    1.70
   3 -13   7    3.72    1.32
   3 -13   7    7.54    1.81
  10 -10  -7  129.64    4.70
  10 -10  -7  131.50    4.76
 -10   0  -7  118.33    4.16
   0 -10   7  125.25    4.29
   0 -10   7  123.20    4.58
  10   0   7  130.31    4.31
   7 -10  -7    6.88    1.48
 -10   3  -7    6.52    0.96
  10  -3   7    6.76    1.32
  -3  -7   7    5.53    1.26
  -3  -7   7    4.83    1.10
 -10   6  -7   74.25    3.20
   4 -10  -7   64.08    3.30
   4 -10  -7   66.66    3.11
  -6  -4   7   65.04    2.77
  -6  -4   7   65.17    2.95
  10  -6   7   65.66    3.06
   1 -10  -7    0.89    1.17
   1 -10  -7    1.98    1.20
 -10   9  -7    4.10    1.37
   1 -10  -7    2.07    1.27
  10  -9   7    0.74    1.01
  -9  -1   7    0.95    0.93
  10  -9   7    3.26    1.22
  -9  -1   7    1.88    1.17
  -2 -10  -7    1.00    1.26
  12  -2  -7    1.77    1.35
  -2 -10  -7    2.39    1.42
  -2 -10  -7   -0.52    1.34
 -12   2   7    1.47    1.25
  10 -12   7    0.19    1.30
  10 -12   7   -0.01    1.18
 -12   2   7    0.32    1.20
  -5 -10  -7   41.81    3.50
  -5 -10  -7   34.07    2.90
  15  -5  -7   39.27    3.56
  -5 -10  -7   39.22    3.24
 -15   5   7   40.47    2.95
 -15   5   7   36.25    3.12
  10 -15   7   34.74    2.80
  10 -15   7   31.75    3.22
 -11  -4  -7   28.22    2.90
  15 -11  -7   20.53    3.04
   4 -15   7   23.88    2.85
   4 -15   7   25.55    2.94
  12 -11  -7    8.94    1.74
  12 -11  -7    8.48    2.00
 -11  -1  -7    8.84    1.71
  11   1   7    8.31    1.43
   1 -12   7    5.66    1.64
   1 -12   7    9.13    1.67
   1 -12   7    5.41    1.60
 -11   2  -7    3.06    1.05
   9 -11  -7    1.67    1.33
  -2  -9   7    3.40    1.21
  -2  -9   7    2.42    1.21
  11  -2   7    1.55    1.14
  -2  -9   7    0.90    1.16
   6 -11  -7   49.70    3.19
 -11   5  -7   47.21    2.70
  -5  -6   7   43.68    2.52
  11  -5   7   47.53    2.79
  -5  -6   7   51.71    2.72
   3 -11  -7    9.04    1.53
 -11   8  -7    3.70    1.45
   3 -11  -7    4.19    1.45
   3 -11  -7    3.22    1.38
  11  -8   7    3.94    1.27
  -8  -3   7    6.10    1.40
  -8  -3   7    4.85    1.15
   0 -11  -7   40.85    3.09
  11   0  -7   42.51    2.71
   0 -11  -7   39.94    3.13
   0 -11  -7   43.47    3.02
 -11  11  -7   44.05    3.26
 -11   0   7   39.79    2.45
  11 -11   7   42.50    3.01
  11 -11   7   41.88    2.89
 -11   0   7   43.64    2.92
  14  -3  -7    3.68    1.73
  -3 -11  -7    3.05    1.78
  -3 -11  -7    8.15    1.87
  -3 -11  -7    6.87    1.91
  11 -14   7    6.81    1.99
  11 -14   7    6.36    1.82
 -14   3   7    4.90    1.63
 -14   3   7    7.04    1.54
 -12  -2  -7    1.15    1.52
  14 -12  -7    3.87    2.02
   2 -14   7    2.53    1.58
   2 -14   7    3.42    1.79
  12   2   7    4.28    1.47
   2 -14   7    1.96    1.68
 -12   1  -7    8.59    1.54
  11 -12  -7    3.76    1.63
  -1 -11   7    5.58    1.55
  12  -1   7    5.82    1.45
  -1 -11   7    6.22    1.58
  -1 -11   7    5.66    1.61
 -12   4  -7   18.03    1.51
 -12   4  -7   14.39    1.66
   8 -12  -7   15.17    2.17
  -4  -8   7   13.61    1.66
  -4  -8   7   16.57    1.92
  -4  -8   7   18.23    1.89
  12  -4   7   13.64    1.92
   5 -12  -7   13.65    1.94
   5 -12  -7   12.77    1.94
 -12   7  -7   12.83    1.87
  -7  -5   7   12.07    1.61
  12  -7   7   13.62    1.88
  -7  -5   7   14.21    1.77
   2 -12  -7    5.21    1.62
   2 -12  -7    4.15    1.52
 -12  10  -7    3.89    1.71
   2 -12  -7    1.24    1.33
 -10  -2   7    2.42    1.19
 -10  -2   7    2.30    1.31
  12 -10   7    2.29    1.50
  -1 -12  -7    4.41    1.76
  -1 -12  -7   -0.19    1.77
  -1 -12  -7    2.35    1.65
  13  -1  -7    7.15    1.73
 -13   1   7    7.69    1.74
  12 -13   7    4.90    1.86
  12 -13   7    2.29    1.62
 -13   1   7    1.62    1.25
  -4 -12  -7    1.44    2.04
  -4 -12  -7    1.82    1.80
  -4 -12  -7   -1.88    1.79
  16  -4  -7    2.53    1.97
 -16   4   7    0.18    1.68
  12 -16   7    3.57    1.82
  12 -16   7   -1.88    1.91
 -16   4   7    1.19    1.61
  16 -13  -7    1.46    2.50
 -13  -3  -7    0.76    1.87
   3 -16   7    1.78    2.11
   3 -16   7    4.26    2.40
  13 -13  -7    5.29    2.07
 -13   0  -7    3.53    1.63
  13 -13  -7    3.48    1.77
   0 -13   7    7.33    1.84
   0 -13   7    4.59    1.71
   0 -13   7    5.57    1.72
  13   0   7    8.11    1.86
 -13   3  -7    1.08    1.01
  10 -13  -7   -0.26    1.53
  13  -3   7    0.54    1.32
  -3 -10   7   -0.34    1.19
  -3 -10   7    0.27    1.27
  -3 -10   7   -0.05    1.31
   7 -13  -7   14.02    2.26
 -13   6  -7   17.54    2.09
  -6  -7   7   19.84    2.03
  -6  -7   7   15.15    1.67
  13  -6   7   14.98    2.02
  -6  -7   7   14.69    1.93
   4 -13  -7   -0.84    1.47
   4 -13  -7    0.74    1.51
 -13   9  -7    0.65    1.44
  -9  -4   7   -0.03    1.29
  -9  -4   7   -1.44    1.04
  13  -9   7    1.51    1.42
   1 -13  -7    0.84    1.67
   1 -13  -7    5.01    1.83
   1 -13  -7    2.15    1.76
 -12  -1   7    2.70    1.35
 -12  -1   7    1.96    1.49
  13 -12   7    2.54    1.79
  13 -12   7    4.47    1.58
  -2 -13  -7   -0.82    1.70
  -2 -13  -7    0.19    1.81
  -2 -13  -7   -1.03    1.86
 -15   2   7    2.98    1.78
  13 -15   7   -1.44    1.79
  13 -15   7    0.39    1.84
 -14  -1  -7   10.60    2.17
   1 -15   7    0.98    1.74
   1 -15   7    0.25    1.82
   1 -15   7    4.27    2.09
  12 -14  -7   12.02    2.27
 -14   2  -7   11.58    1.82
  -2 -12   7   10.84    2.02
  14  -2   7   14.45    2.20
  -2 -12   7   16.19    2.26
  -2 -12   7   12.07    2.07
   9 -14  -7   14.24    2.42
  14  -5   7    9.47    2.01
  -5  -9   7   15.47    1.89
  -5  -9   7   12.21    1.99
  -5  -9   7   11.55    1.89
   6 -14  -7   22.02    2.77
 -14   8  -7   19.13    2.45
  -8  -6   7   20.36    2.30
  -8  -6   7   21.24    2.13
  14  -8   7   19.94    2.46
   3 -14  -7   -2.29    1.51
   3 -14  -7    0.97    1.74
 -14  11  -7   -0.67    1.71
   3 -14  -7    4.71    1.69
  14 -11   7   -1.41    1.54
 -11  -3   7   -0.36    1.36
 -11  -3   7   -0.03    1.15
   0 -14  -7   -1.96    1.76
   0 -14  -7   -3.46    1.64
   0 -14  -7    2.61    1.82
  14 -14   7   -1.40    1.61
 -14   0   7    2.23    1.71
 -14   0   7    1.39    1.39
  14 -14   7    1.24    1.96
 -15   1  -7    5.81    1.78
  14 -15  -7    3.38    2.13
  -1 -14   7    4.44    2.09
  -1 -14   7    3.34    1.83
  -1 -14   7    3.62    1.96
  15  -1   7   -0.55    1.71
  11 -15  -7    3.10    2.12
  -4 -11   7    2.84    1.78
  -4 -11   7    2.57    1.69
  15  -4   7    3.04    1.85
  -4 -11   7    0.58    1.44
 -15   7  -7    1.87    1.62
   8 -15  -7    5.60    2.19
  -7  -8   7    5.26    1.45
  15  -7   7    4.30    1.88
  -7  -8   7    5.36    1.63
  -7  -8   7    4.53    1.70
   5 -15  -7   38.73    3.51
 -15  10  -7   39.76    3.57
   5 -15  -7   39.96    3.81
  15 -10   7   43.15    3.60
 -10  -5   7   40.15    2.94
 -10  -5   7   50.25    3.51
   2 -15  -7    9.49    2.41
   2 -15  -7   14.16    2.43
   2 -15  -7   10.14    2.54
 -13  -2   7   11.68    1.91
 -13  -2   7   11.23    2.23
  15 -13   7   11.53    2.65
  13 -16  -7    1.90    2.29
  16  -3   7   -0.22    1.99
  -3 -13   7    1.90    1.84
  -3 -13   7    2.17    1.87
  -3 -13   7   -0.90    1.87
  10 -16  -7   42.45    4.18
  -6 -10   7   42.15    3.53
  -6 -10   7   44.12    3.31
  -6 -10   7   43.48    3.38
  16  -6   7   39.90    3.66
 -16   9  -7    3.46    2.02
   7 -16  -7    0.33    2.18
  -9  -7   7    1.99    1.69
  -9  -7   7    1.43    1.51
  16  -9   7    0.77    2.02
   4 -16  -7    9.67    2.56
   4 -16  -7   14.52    2.95
 -16  12  -7   18.84    2.90
 -12  -4   7   14.40    2.52
  16 -12   7   16.16    3.09
 -12  -4   7   17.73    2.21
   9 -17  -7    4.38    2.65
 -17   8  -7    2.12    1.96
  -8  -9   7   -0.77    1.68
  -8  -9   7    1.54    1.90
  17  -8   7    2.03    2.29
   1   0  -8  194.25    4.65
   1   0  -8  190.92    4.78
  -1   1  -8  195.82    4.65
  -1   1  -8  195.24    4.61
  -1   0   8  190.49    4.65
   2  -2  -8   19.63    1.15
   0   2  -8   19.94    1.27
  -2   2   8   20.35    1.20
   2   0   8   19.36    1.25
  -1  -2  -8  297.60    6.91
  -2   3  -8  310.14    7.14
  -3   1   8  307.44    7.15
   2  -3   8  299.49    6.96
   2  -3   8  298.70    6.65
  -3  -1  -8   17.86    1.26
  -1   4  -8   16.27    1.26
   4  -3  -8   16.30    1.22
   1  -4   8   17.31    1.18
  -4   3   8   19.82    1.42
   1  -4   8   15.91    1.01
   3   1   8   16.11    1.22
  -3   2  -8   20.69    1.29
   3  -2   8   20.65    1.24
  -2  -1   8   19.47    1.22
  -2  -3  -8    1.96    0.62
  -2  -3  -8    1.92    0.64
  -3   5  -8    0.31    0.67
  -2  -3  -8    1.78    0.79
   2   3   8    1.59    0.65
  -5   2   8    2.49    0.79
   3  -5   8    1.01    0.59
   3  -5   8    0.92    0.56
   3  -5   8    1.59    0.61
   6  -4  -8   -0.47    0.76
  -4  -2  -8   -0.29    0.66
  -4  -2  -8   -0.57    0.52
  -2   6  -8   -0.04    0.65
  -6   4   8   -0.14    0.70
   2  -6   8    0.47    0.54
   4   2   8    0.51    0.61
   2  -6   8    0.65    0.66
   3  -4  -8    1.86    0.76
  -4   1  -8    2.99    0.60
  -1  -3   8    1.59    0.63
   4  -1   8    3.38    0.76
   0  -4  -8   27.06    1.60
  -4   4  -8   28.29    1.65
   0  -4  -8   29.92    1.57
   0  -4  -8   27.16    1.63
   4  -4   8   28.14    1.48
  -4   0   8   24.81    1.47
  -3  -4  -8   41.04    2.03
  -3  -4  -8   38.95    1.78
  -4   7  -8   35.73    2.01
  -3  -4  -8   38.83    1.82
   7  -3  -8   36.08    2.05
   4  -7   8   36.08    1.69
  -7   3   8   37.92    2.05
   4  -7   8   37.73    1.79
   4  -7   8   38.42    1.73
  -3   8  -8    5.87    0.99
  -5  -3  -8    5.78    0.88
   8  -5  -8    4.00    1.12
  -5  -3  -8    4.84    1.03
   3  -8   8    6.22    1.06
  -8   5   8    6.80    1.30
   5   3   8    5.14    0.89
   3  -8   8    5.72    0.87
   5  -5  -8  330.39    8.22
   5  -5  -8  340.70    7.84
   0   5  -8  332.46    7.83
  -5   0  -8  316.88    7.57
   5   0   8  333.74    7.86
  -5   5   8  332.09    7.99
   0  -5   8  329.79    7.72
   0  -5   8  327.16    7.59
   2  -5  -8    7.21    1.03
  -5   3  -8    7.94    0.98
  -3  -2   8    6.54    0.81
   5  -3   8    7.54    0.93
  -1  -5  -8  244.64    6.18
  -1  -5  -8  248.46    6.04
  -5   6  -8  247.59    6.37
  -1  -5  -8  247.69    6.35
  -6   1   8  242.87    6.18
   5  -6   8  230.06    6.07
  -5   9  -8    2.07    1.05
  -4  -5  -8    2.31    0.93
  -4  -5  -8    2.19    0.83
  -4  -5  -8    2.78    1.16
   9  -4  -8    2.64    1.07
   5  -9   8    3.13    0.84
   5  -9   8    2.18    1.03
   5  -9   8    1.04    0.90
  -9   4   8    2.75    1.08
   5  -9   8    1.73    0.67
  -6  -4  -8  116.80    4.08
  10  -6  -8  113.92    4.28
  -6  -4  -8  118.86    3.64
   4 -10   8  116.20    4.26
 -10   6   8  118.36    4.30
   4 -10   8  117.22    3.42
   4 -10   8  112.12    3.95
   7  -6  -8    1.02    0.88
  -6  -1  -8    0.30    0.74
   7  -6  -8   -0.54    0.64
   1  -7   8    0.53    0.66
   1  -7   8   -0.25    0.73
   6   1   8    0.46    0.65
  -7   6   8   -0.02    0.86
  -6   2  -8    2.88    0.77
  -6   2  -8    2.49    0.59
   4  -6  -8    1.85    0.90
  -2  -4   8    2.63    0.78
  -2  -4   8    3.27    0.78
   6  -2   8    3.00    0.77
  -6   5  -8  115.07    3.66
   1  -6  -8  119.03    3.55
   1  -6  -8  114.83    3.72
   6  -5   8  110.73    3.52
  -5  -1   8  117.68    3.32
  -2  -6  -8  101.04    3.34
  -2  -6  -8   96.26    3.25
  -2  -6  -8   95.92    3.38
   8  -2  -8   97.16    3.38
  -6   8  -8   96.96    3.51
   6  -8   8   93.47    3.01
  -8   2   8   92.95    3.32
   6  -8   8   86.79    3.09
   6  -8   8   88.33    3.11
   6  -8   8   97.97    3.47
  11  -5  -8  104.49    4.18
  -5  -6  -8  107.56    4.12
  -5  -6  -8  109.07    3.59
  -5  -6  -8  110.69    3.73
   6 -11   8  105.06    4.20
   6 -11   8  101.74    3.50
   6 -11   8  103.75    3.87
 -11   5   8   98.41    4.07
  12  -7  -8    6.46    1.67
  -7  -5  -8    5.89    1.28
  -7  -5  -8    3.93    1.42
 -12   7   8    7.81    1.78
   5 -12   8    4.02    1.41
   5 -12   8    4.23    1.41
   9  -7  -8  149.88    4.92
  -7  -2  -8  156.38    4.68
   2  -9   8  145.36    4.30
   7   2   8  158.20    4.46
  -9   7   8  154.41    5.03
   2  -9   8  161.27    4.74
  -7   1  -8   20.03    1.38
   6  -7  -8   18.68    1.64
  -1  -6   8   21.30    1.65
   7  -1   8   21.75    1.59
  -1  -6   8   21.34    1.62
  -6   7   8   21.45    1.66
  -7   4  -8  246.19    6.32
   3  -7  -8  234.42    6.55
  -4  -3   8  247.77    6.06
   7  -4   8  238.54    6.30
  -4  -3   8  237.85    6.09
   0  -7  -8    3.58    1.07
   0  -7  -8    5.11    1.10
   0  -7  -8    3.57    0.99
  -7   7  -8    6.24    1.18
   7  -7   8    4.22    0.98
  -7   0   8    3.90    0.94
   7  -7   8    4.94    0.97
  -7   0   8    5.89    1.06
  -3  -7  -8   42.47    2.43
  10  -3  -8   40.47    2.56
  -7  10  -8   40.89    2.64
  -3  -7  -8   43.87    2.40
  -3  -7  -8   43.06    2.60
 -10   3   8   38.78    2.44
   7 -10   8   40.29    2.26
   7 -10   8   40.01    2.62
 -10   3   8   44.66    2.44
   7 -10   8   38.05    2.25
  13  -6  -8    3.81    1.60
  -6  -7  -8    5.15    1.43
  -6  -7  -8   12.28    2.03
   7 -13   8    5.68    1.27
 -13   6   8    8.19    1.85
   7 -13   8    8.69    1.74
 -13   6   8    8.13    1.46
   7 -13   8    8.75    1.79
  -8  -6  -8   39.65    2.72
  14  -8  -8   38.88    3.31
  -8  -6  -8   37.20    3.08
 -14   8   8   35.34    3.38
   6 -14   8   32.08    3.03
   6 -14   8   48.06    3.41
  -8  -3  -8    7.51    1.55
  11  -8  -8    8.45    1.74
   3 -11   8    9.51    1.58
 -11   8   8    9.09    1.80
   3 -11   8   10.36    1.43
   8   3   8   10.07    1.30
   3 -11   8    9.42    1.55
   8  -8  -8   42.96    2.08
   8  -8  -8   48.84    2.58
   8  -8  -8   42.05    2.58
  -8   0  -8   41.01    2.16
   0  -8   8   41.39    2.30
   0  -8   8   40.13    2.19
   8   0   8   43.11    2.22
  -8   8   8   45.58    2.48
  -8   3  -8    9.42    0.91
   5  -8  -8   11.43    1.44
  -8   3  -8    9.54    1.18
   8  -3   8   10.86    1.31
  -3  -5   8   10.03    1.22
  -3  -5   8   11.43    1.30
   2  -8  -8   25.99    2.01
   2  -8  -8   27.11    1.87
  -8   6  -8   29.12    2.03
   2  -8  -8   22.05    1.90
  -6  -2   8   25.93    1.89
   8  -6   8   24.79    1.53
   8  -6   8   25.78    1.91
  -1  -8  -8    7.32    1.39
  -1  -8  -8    8.56    1.40
  -8   9  -8    7.55    1.42
  -1  -8  -8    6.78    1.33
   9  -1  -8    7.29    1.27
   8  -9   8    8.25    1.29
  -9   1   8    6.93    1.33
  -9   1   8    7.98    1.29
   8  -9   8    6.90    1.24
  -4  -8  -8    3.93    1.49
  -4  -8  -8    4.07    1.39
  12  -4  -8    3.61    1.52
  -4  -8  -8    4.45    1.32
   8 -12   8    4.33    1.30
 -12   4   8    6.46    1.40
 -12   4   8    2.78    1.40
   8 -12   8    5.34    1.51
   8 -12   8    5.97    1.33
  15  -7  -8    3.61    1.90
  -7  -8  -8    0.68    1.49
  -7  -8  -8    3.31    1.85
   8 -15   8    2.28    1.60
 -15   7   8    4.03    1.88
   8 -15   8    1.30    1.85
  -9  -7  -8    2.42    1.89
  16  -9  -8    5.32    2.27
  -9  -7  -8   -1.83    1.46
 -16   9   8    2.67    1.96
   7 -16   8    1.85    2.11
   7 -16   8    0.58    1.86
  -9  -4  -8   19.63    1.79
  13  -9  -8   21.28    2.62
  -9  -4  -8   21.12    2.35
   4 -13   8   26.49    2.15
 -13   9   8   17.88    2.52
   4 -13   8   19.39    2.37
   4 -13   8   22.90    2.43
  10  -9  -8   12.12    1.85
  10  -9  -8    9.48    1.60
  -9  -1  -8    9.08    1.46
   9   1   8    9.46    1.38
   1 -10   8    8.41    1.39
   1 -10   8    8.17    1.47
   1 -10   8    6.48    1.42
 -10   9   8    8.11    1.68
  -9   2  -8   12.14    1.21
   7  -9  -8   12.92    1.68
   9  -2   8   12.79    1.52
  -2  -7   8   14.28    1.51
  -2  -7   8   15.35    1.56
   4  -9  -8   19.31    1.92
  -9   5  -8   19.19    1.81
   9  -5   8   20.77    1.86
  -5  -4   8   19.09    1.71
  -5  -4   8   18.28    1.59
   1  -9  -8    2.27    1.17
   1  -9  -8    1.94    1.09
  -9   8  -8   -0.38    0.94
   1  -9  -8    0.93    1.05
  -8  -1   8    1.99    1.05
   9  -8   8    1.80    0.93
   9  -8   8    1.99    1.04
  -2  -9  -8    1.56    1.18
  11  -2  -8    2.21    1.24
  -2  -9  -8    3.55    1.35
  -2  -9  -8    2.07    1.33
 -11   2   8    2.54    1.28
   9 -11   8    1.36    1.20
 -11   2   8    3.52    1.25
   9 -11   8    2.90    1.20
  14  -5  -8    2.02    1.65
  -5  -9  -8    0.78    1.36
  -5  -9  -8    0.60    1.41
  -5  -9  -8    1.42    1.69
   9 -14   8    1.87    1.43
 -14   5   8   -1.01    1.43
   9 -14   8    1.36    1.72
   9 -14   8    0.70    1.29
 -14   5   8   -0.94    1.24
  17  -8  -8    0.72    2.24
  -8  -9  -8    2.10    1.79
  -8  -9  -8   -0.39    1.99
 -17   8   8    4.44    2.30
   9 -17   8   -1.75    1.84
   9 -17   8   -4.18    2.15
 -10  -5  -8   47.77    3.71
  15 -10  -8   45.32    3.86
 -10  -5  -8   46.33    2.99
 -15  10   8   48.78    4.11
   5 -15   8   55.68    3.92
   5 -15   8   56.22    3.89
  12 -10  -8    1.76    1.42
 -10  -2  -8    0.44    1.27
   2 -12   8    1.61    1.15
   2 -12   8   -0.96    1.13
   2 -12   8   -0.44    1.20
  10   2   8   -0.93    0.91
   9 -10  -8   41.88    2.89
 -10   1  -8   43.27    2.38
  -1  -9   8   40.82    2.52
  -1  -9   8   49.64    2.70
  10  -1   8   50.08    2.63
  -1  -9   8   42.07    2.71
 -10   4  -8   36.53    2.27
   6 -10  -8   32.11    2.63
  -4  -6   8   38.86    2.35
  10  -4   8   35.94    2.36
  -4  -6   8   31.10    2.14
   3 -10  -8    4.06    1.25
 -10   7  -8    2.97    1.33
   3 -10  -8    3.78    1.34
   3 -10  -8    5.26    1.28
  -7  -3   8    3.94    1.19
  10  -7   8    4.60    1.23
  -7  -3   8    3.78    1.03
   0 -10  -8   85.29    3.76
   0 -10  -8   90.39    4.02
   0 -10  -8   90.76    3.88
 -10  10  -8   86.51    4.04
  10 -10   8   91.24    3.68
  10 -10   8   88.37    3.74
 -10   0   8   90.29    3.70
  13  -3  -8   21.56    2.42
  -3 -10  -8   23.98    2.43
  -3 -10  -8   22.33    2.50
  -3 -10  -8   24.58    2.44
  10 -13   8   23.13    2.51
 -13   3   8   18.74    2.10
  10 -13   8   24.29    2.42
 -13   3   8   27.50    2.53
  16  -6  -8   76.14    4.77
  -6 -10  -8   78.19    4.67
  -6 -10  -8   73.22    4.14
 -16   6   8   79.96    4.32
  10 -16   8   69.60    4.91
 -11  -3  -8   -0.08    1.46
  14 -11  -8    2.55    1.93
   3 -14   8    1.49    1.59
  11   3   8    1.00    1.25
   3 -14   8   -1.72    1.23
   3 -14   8   -0.92    1.43
 -11   0  -8   87.78    3.69
  11 -11  -8   92.09    4.27
  11 -11  -8   87.76    4.14
   0 -11   8   96.23    4.10
   0 -11   8   90.28    3.78
   0 -11   8   87.34    3.96
  11   0   8   89.56    3.67
 -11   3  -8   24.12    1.76
   8 -11  -8   29.26    2.57
  -3  -8   8   21.64    1.98
  -3  -8   8   24.52    2.13
  11  -3   8   22.66    2.10
 -11   6  -8  119.96    4.34
   5 -11  -8  123.73    4.78
  -6  -5   8  116.24    4.01
  11  -6   8  124.45    4.44
  -6  -5   8  116.80    4.23
   2 -11  -8   18.68    2.22
   2 -11  -8   17.14    2.05
   2 -11  -8   17.98    2.06
 -11   9  -8   18.45    2.24
  11  -9   8   19.32    1.74
  -9  -2   8   17.81    1.98
  11  -9   8   20.08    2.10
  -9  -2   8   17.55    1.76
  12  -1  -8   44.44    3.02
  -1 -11  -8   39.44    3.20
  -1 -11  -8   45.15    3.16
  -1 -11  -8   41.00    3.20
  11 -12   8   42.95    3.08
  11 -12   8   40.39    3.18
 -12   1   8   41.61    2.98
  -4 -11  -8   -0.38    1.90
  15  -4  -8    2.67    1.86
  -4 -11  -8   -1.84    1.40
  -4 -11  -8   -0.54    1.66
  11 -15   8   -0.17    1.71
  11 -15   8   -1.19    1.46
 -15   4   8   -1.25    1.42
 -15   4   8   -0.64    1.49
  16 -12  -8    7.51    2.78
 -12  -4  -8   13.28    2.48
   4 -16   8   12.87    2.77
   4 -16   8    9.61    2.42
  13 -12  -8   26.15    3.03
 -12  -1  -8   26.38    2.54
   1 -13   8   35.02    2.86
  12   1   8   27.91    2.47
   1 -13   8   27.51    2.74
   1 -13   8   28.64    2.74
  10 -12  -8    6.21    1.77
 -12   2  -8    5.20    1.29
  12  -2   8    7.11    1.57
  -2 -10   8    5.08    1.52
  -2 -10   8    6.02    1.48
  -2 -10   8    5.87    1.47
 -12   5  -8    6.56    1.46
   7 -12  -8    6.11    1.74
  12  -5   8    5.33    1.53
  -5  -7   8    8.91    1.44
  -5  -7   8    5.79    1.43
   4 -12  -8    7.51    1.72
 -12   8  -8    9.07    1.81
   4 -12  -8    6.58    1.75
  -8  -4   8    7.19    1.52
  12  -8   8    6.79    1.54
  -8  -4   8    6.72    1.36
   1 -12  -8    6.83    1.75
   1 -12  -8    4.55    1.58
 -12  11  -8    4.59    1.78
   1 -12  -8    6.21    1.73
  12 -11   8    1.20    1.31
 -11  -1   8    2.37    1.17
  12 -11   8    8.23    1.84
 -11  -1   8    7.90    1.67
  -2 -12  -8   35.99    3.09
  -2 -12  -8   35.64    3.24
  -2 -12  -8   36.78    3.47
 -14   2   8   30.43    2.88
 -14   2   8   32.18    2.55
  12 -14   8   34.54    3.09
  12 -14   8   34.42    3.20
 -13  -2  -8    9.63    2.16
   2 -15   8    5.40    2.16
   2 -15   8    5.38    2.10
   2 -15   8    9.61    2.04
 -13   1  -8   17.00    2.11
  12 -13  -8   12.56    2.24
  -1 -12   8   12.55    2.16
  -1 -12   8   17.19    2.29
  13  -1   8   19.27    2.32
  -1 -12   8   16.40    2.24
   9 -13  -8   36.42    3.21
 -13   4  -8   37.00    2.20
  -4  -9   8   36.16    2.82
  -4  -9   8   41.87    2.79
  13  -4   8   42.62    3.04
  -4  -9   8   43.13    2.91
   6 -13  -8    1.20    1.52
 -13   7  -8    2.44    1.50
  -7  -6   8    0.56    1.29
  13  -7   8    2.72    1.40
  -7  -6   8   -0.14    1.20
  -7  -6   8    1.24    0.99
   3 -13  -8   20.83    2.40
   3 -13  -8   23.82    2.56
   3 -13  -8   24.78    2.82
 -13  10  -8   28.92    2.95
 -10  -3   8   28.18    2.63
  13 -10   8   23.24    2.54
 -10  -3   8   26.32    2.27
   0 -13  -8    3.30    1.70
   0 -13  -8    1.23    1.74
   0 -13  -8    1.15    1.73
 -13   0   8    1.50    1.28
  13 -13   8   -0.11    1.75
 -13   0   8    1.66    1.54
  13 -13   8   -2.48    1.36
  -3 -13  -8   19.80    2.78
  -3 -13  -8   16.01    2.76
  -3 -13  -8   13.44    2.85
  13 -16   8   14.43    2.64
 -16   3   8   16.16    2.41
  13 -16   8   13.77    2.85
 -14   0  -8   -0.70    1.51
   0 -14   8    0.23    1.76
   0 -14   8    0.11    1.59
  14   0   8   -1.55    1.45
   0 -14   8   -0.55    1.66
 -14   3  -8   -0.12    1.08
  11 -14  -8    2.22    1.83
  14  -3   8    1.63    1.54
  -3 -11   8    0.52    1.49
  -3 -11   8    0.88    1.45
  -3 -11   8    0.92    1.46
 -14   6  -8    6.49    1.65
   8 -14  -8    5.93    2.03
  -6  -8   8    5.56    1.59
  14  -6   8    3.89    1.73
  -6  -8   8    5.32    1.42
  -6  -8   8    3.00    1.42
 -14   9  -8    4.89    1.79
   5 -14  -8    3.13    1.91
  -9  -5   8    3.29    1.53
  14  -9   8    0.57    1.48
  -9  -5   8    2.03    1.29
   2 -14  -8    8.32    2.01
 -14  12  -8    4.68    2.19
   2 -14  -8    8.40    2.20
   2 -14  -8    5.41    2.17
  14 -12   8    5.38    2.12
 -12  -2   8    4.91    1.45
 -12  -2   8    8.85    2.01
  -1 -14  -8   11.05    2.56
  -1 -14  -8   12.66    2.70
  -1 -14  -8   11.79    2.69
  14 -15   8   12.15    2.48
 -15   1   8   11.44    2.32
  14 -15   8   13.77    2.52
 -15   1   8   12.88    2.06
 -15   2  -8    6.07    1.74
  13 -15  -8    5.43    2.29
  -2 -13   8    8.81    2.11
  -2 -13   8    8.51    2.24
  -2 -13   8    8.24    2.10
  15  -2   8    3.35    1.85
  10 -15  -8   57.91    4.48
  -5 -10   8   65.89    3.62
  15  -5   8   61.69    4.05
  -5 -10   8   62.05    3.73
  -5 -10   8   65.06    3.85
 -15   8  -8    2.40    1.76
   7 -15  -8   -0.32    1.71
  15  -8   8    0.94    1.56
  -8  -7   8    1.98    1.42
  -8  -7   8    3.88    1.77
   4 -15  -8   43.97    3.86
 -15  11  -8   49.52    3.98
   4 -15  -8   50.44    4.00
 -11  -4   8   52.38    3.71
 -11  -4   8   43.69    3.14
  15 -11   8   53.32    4.16
   1 -15  -8    1.63    2.09
   1 -15  -8    0.87    2.00
   1 -15  -8    0.28    2.17
  15 -14   8    2.09    2.48
 -14  -1   8    1.60    1.50
 -14  -1   8   -0.54    1.67
  12 -16  -8    3.13    2.30
  -4 -12   8   -0.77    1.68
  16  -4   8   -3.47    1.77
  -4 -12   8   -0.64    1.75
  -4 -12   8    0.58    1.65
   9 -16  -8    4.39    2.28
 -16   7  -8    5.57    1.86
  -7  -9   8    6.32    1.94
  16  -7   8    6.97    2.13
  -7  -9   8    4.57    1.70
 -16  10  -8   12.43    2.52
   6 -16  -8    7.95    2.51
 -10  -6   8    6.30    2.06
  16 -10   8    7.09    2.33
 -10  -6   8    5.41    1.72
   3 -16  -8    9.10    2.75
   3 -16  -8    6.66    2.50
  16 -13   8    4.59    2.50
 -13  -3   8    4.12    1.80
 -13  -3   8    5.50    2.24
 -17   9  -8   37.69    3.54
   8 -17  -8   31.51    3.98
  -9  -8   8   25.75    2.75
  17  -9   8   29.93    3.69
  -9  -8   8   24.79    3.03
   0   0  -9  859.35   18.76
   0   0  -9  862.72   18.75
   0   0   9  874.86   18.78
   2  -1  -9   60.65    2.02
  -1   2  -9   62.62    2.11
  -2   1   9   60.46    2.05
  -2   1  -9   59.35    1.87
  -2   1  -9   62.77    2.00
  -1  -1   9   61.10    1.99
   2  -1   9   60.39    2.09
  -2   4  -9  903.25   19.73
  -2  -2  -9  892.12   19.09
  -2  -2  -9  904.84   18.83
   2  -4   9  888.17   19.32
   2  -4   9  882.00   18.86
  -4   2   9  895.61   19.75
   0   3  -9  119.72    3.34
  -3   0  -9  115.90    3.15
   3  -3  -9  125.81    3.23
   3   0   9  114.83    3.30
  -3   3   9  119.54    3.33
  -3   3  -9    7.26    0.92
   3  -3   9    5.27    0.78
  -3   0   9    4.68    0.79
  -3  -3  -9   29.11    1.77
  -3   6  -9   34.15    1.83
  -3  -3  -9   33.53    1.56
   3  -6   9   30.50    1.56
   3  -6   9   33.61    1.60
  -6   3   9   31.01    1.84
   3   3   9   32.48    1.56
   3  -6   9   33.06    1.50
  -4  -1  -9   18.51    1.36
   5  -4  -9   19.62    1.50
  -1   5  -9   17.74    1.37
   4   1   9   17.27    1.33
   1  -5   9   18.05    1.20
   1  -5   9   17.55    1.32
  -5   4   9   15.86    1.40
   2  -4  -9    4.60    0.88
  -4   2  -9    5.94    0.85
  -2  -2   9    4.85    0.73
   4  -2   9    5.11    0.86
  -1  -4  -9   43.23    2.02
  -4   5  -9   50.15    2.17
  -1  -4  -9   45.70    1.98
  -1  -4  -9   46.35    1.93
   4  -5   9   44.82    1.87
  -5   1   9   46.11    1.99
   8  -4  -9    0.94    0.99
  -4   8  -9    1.86    0.92
  -4  -4  -9    2.71    0.95
  -4  -4  -9    0.76    0.74
  -4  -4  -9    2.72    0.75
   4  -8   9    0.98    0.64
   4  -8   9    1.40    0.69
   4  -8   9    1.19    0.80
  -8   4   9    2.09    0.97
   4   4   9    2.04    0.70
   7  -5  -9    0.94    0.82
  -2   7  -9    0.26    0.67
  -5  -2  -9    0.39    0.73
   5   2   9   -0.27    0.66
  -7   5   9   -0.75    0.82
   2  -7   9   -0.93    0.66
   2  -7   9   -0.01    0.61
  -5   1  -9  214.43    5.33
   4  -5  -9  228.60    6.02
   5  -1   9  232.33    5.76
  -1  -4   9  227.69    5.58
   1  -5  -9   43.48    2.00
   1  -5  -9   48.14    2.18
  -5   4  -9   43.27    2.03
   5  -4   9   45.55    1.95
  -4  -1   9   44.64    1.84
  -2  -5  -9    2.85    0.93
  -2  -5  -9    4.56    0.91
  -5   7  -9    2.07    0.92
  -2  -5  -9    1.87    0.79
   5  -7   9    2.64    0.76
  -7   2   9    2.86    0.90
   5  -7   9    3.21    0.78
   5  -7   9    1.77    0.80
  -5  -5  -9  179.60    4.96
  -5  -5  -9  172.98    5.32
  10  -5  -9  171.53    5.49
   5 -10   9  178.10    5.56
 -10   5   9  165.79    5.42
   5 -10   9  171.09    4.69
   5 -10   9  174.96    5.09
  -3   9  -9    6.12    1.22
  -6  -3  -9    8.60    1.35
   9  -6  -9    4.79    1.25
   3  -9   9    6.38    1.19
   3  -9   9    5.15    0.96
   6   3   9    6.66    1.02
  -9   6   9    7.73    1.47
  -6   0  -9  192.81    4.96
   0   6  -9  191.56    5.10
   6  -6  -9  197.55    5.11
   6  -6  -9  198.10    5.49
   0  -6   9  186.86    4.95
   0  -6   9  193.38    5.12
  -6   6   9  190.97    5.31
   6   0   9  196.45    5.16
   3  -6  -9  268.64    6.92
  -6   3  -9  260.08    6.53
  -3  -3   9  263.03    6.38
   6  -3   9  255.23    6.58
   0  -6  -9  182.47    4.94
   0  -6  -9  181.12    5.19
   0  -6  -9  181.17    4.99
  -6   6  -9  185.58    5.19
   6  -6   9  175.83    4.99
  -6   0   9  186.14    4.94
  -3  -6  -9  158.47    4.85
  -3  -6  -9  168.61    4.78
  -3  -6  -9  160.43    4.66
   9  -3  -9  168.06    5.00
  -6   9  -9  163.29    5.05
   6  -9   9  151.99    4.55
   6  -9   9  150.40    4.52
   6  -9   9  159.17    4.52
  -9   3   9  153.58    4.87
   6  -9   9  156.66    4.99
  -6  -6  -9    5.47    1.53
  -6  -6  -9    2.79    1.18
  12  -6  -9    3.20    1.52
   6 -12   9    1.81    1.30
 -12   6   9    5.69    1.72
   6 -12   9    3.47    1.39
  -7  -4  -9   14.90    1.86
  -7  -4  -9   16.31    1.48
  11  -7  -9   13.18    1.94
 -11   7   9    9.87    1.79
   4 -11   9   12.70    1.71
   4 -11   9   15.79    1.91
   4 -11   9   13.04    1.36
  -7  -1  -9  324.39    8.03
   8  -7  -9  330.06    8.29
  -8   7   9  330.73    8.57
   1  -8   9  323.51    8.10
   7   1   9  332.97    8.10
   1  -8   9  328.15    7.88
  -7   2  -9    0.33    0.58
  -7   2  -9    1.37    0.77
   5  -7  -9    0.61    0.86
   7  -2   9    1.76    0.79
  -2  -5   9    1.03    0.77
  -2  -5   9   -0.06    0.71
   2  -7  -9   65.34    2.71
   2  -7  -9   68.63    2.64
  -7   5  -9   67.68    2.76
   2  -7  -9   67.13    2.90
   7  -5   9   68.70    2.70
  -5  -2   9   68.36    2.31
  -5  -2   9   66.38    2.59
  -1  -7  -9  126.74    3.95
  -1  -7  -9  122.62    4.08
  -7   8  -9  115.66    4.12
  -1  -7  -9  118.76    4.04
   7  -8   9  116.42    3.85
   7  -8   9  119.59    3.98
  -8   1   9  122.67    3.86
  -4  -7  -9    5.04    1.27
  -4  -7  -9    5.61    1.44
  -4  -7  -9    4.12    1.17
  11  -4  -9    2.61    1.31
   7 -11   9    4.17    1.19
   7 -11   9    4.73    1.11
 -11   4   9    2.54    1.33
 -11   4   9    2.47    1.12
   7 -11   9    4.28    1.36
  14  -7  -9  113.28    5.15
  -7  -7  -9  123.00    4.58
  -7  -7  -9  127.54    5.11
 -14   7   9  121.81    4.29
 -14   7   9  124.68    5.19
   7 -14   9  110.44    4.79
   7 -14   9  123.75    5.34
  13  -8  -9   72.90    3.95
  -8  -5  -9   68.13    3.07
  -8  -5  -9   66.82    3.71
 -13   8   9   62.86    3.81
   5 -13   9   64.72    3.56
   5 -13   9   68.84    3.92
  -8  -2  -9   38.82    2.40
  10  -8  -9   34.34    2.63
   2 -10   9   35.64    2.47
   2 -10   9   38.57    2.17
   2 -10   9   34.43    2.57
 -10   8   9   33.73    2.71
   8   2   9   36.78    2.15
   7  -8  -9    3.82    1.17
  -8   1  -9    3.52    0.90
  -7   8   9    5.16    1.17
  -1  -7   9    5.47    1.11
  -1  -7   9    4.70    1.04
   8  -1   9    4.92    1.07
   4  -8  -9  133.55    4.42
  -8   4  -9  128.51    4.03
  -4  -4   9  132.20    3.94
  -4  -4   9  129.34    4.00
   8  -4   9  125.85    4.11
   1  -8  -9    1.66    1.04
  -8   7  -9    1.47    1.00
   1  -8  -9    2.13    0.96
   1  -8  -9    1.72    0.95
  -7  -1   9    1.51    0.91
   8  -7   9    1.94    0.98
   8  -7   9    3.65    0.89
  -7  -1   9    0.92    0.79
  -2  -8  -9   37.53    2.46
  -2  -8  -9   39.00    2.52
  10  -2  -9   43.29    2.58
  -2  -8  -9   34.02    2.64
  -8  10  -9   40.96    2.79
   8 -10   9   41.18    2.66
   8 -10   9   34.80    2.35
 -10   2   9   34.90    2.47
 -10   2   9   35.87    2.35
  -5  -8  -9    0.09    1.27
  -5  -8  -9   -0.70    1.01
  13  -5  -9   -0.10    1.31
  -5  -8  -9   -0.01    1.36
   8 -13   9    0.20    1.15
   8 -13   9    0.64    1.33
 -13   5   9   -0.31    1.13
   8 -13   9    0.08    1.26
 -13   5   9    0.14    1.37
  16  -8  -9    3.93    2.28
  -8  -8  -9   -2.05    1.68
  -8  -8  -9   -0.88    1.51
   8 -16   9    1.06    1.74
 -16   8   9    4.31    2.11
   8 -16   9    3.99    2.22
  -9  -6  -9   -1.26    1.51
  -9  -6  -9   -0.75    1.27
  15  -9  -9   -1.34    1.69
   6 -15   9    0.04    1.56
   6 -15   9    0.81    1.68
 -15   9   9    1.35    1.92
  -9  -3  -9    3.88    1.43
  12  -9  -9   -1.60    1.27
 -12   9   9    2.79    1.59
   3 -12   9    2.30    1.31
   9   3   9    2.86    1.04
   3 -12   9    2.58    1.36
   3 -12   9    4.36    1.20
   9  -9  -9    0.14    1.12
  -9   0  -9   -0.37    0.91
   9  -9  -9   -0.03    0.79
   0  -9   9    1.27    1.02
   0  -9   9   -0.39    0.97
   9   0   9   -0.73    0.89
  -9   3  -9    2.96    1.04
   6  -9  -9    2.67    1.20
  -9   3  -9    2.98    0.73
   9  -3   9    2.08    0.99
  -3  -6   9    2.76    1.04
  -3  -6   9    1.97    0.94
   3  -9  -9    3.80    1.13
  -9   6  -9    2.97    1.27
   3  -9  -9    3.23    1.17
  -6  -3   9    3.17    1.01
   9  -6   9    2.01    1.05
  -6  -3   9    3.90    1.06
   0  -9  -9   30.02    2.40
  -9   9  -9   31.31    2.53
   0  -9  -9   31.88    2.42
   0  -9  -9   30.82    2.38
   9  -9   9   32.69    2.25
   9  -9   9   31.88    2.32
  -9   0   9   27.42    2.17
  -9   0   9   28.02    1.98
  -3  -9  -9    1.13    1.30
  12  -3  -9   -0.63    1.27
  -3  -9  -9    0.55    1.23
  -3  -9  -9    0.77    1.38
   9 -12   9    2.31    1.35
 -12   3   9    0.89    1.18
   9 -12   9    1.98    1.36
 -12   3   9    0.12    1.20
   9 -12   9   -0.28    1.06
  -6  -9  -9   26.37    2.62
  -6  -9  -9   32.52    3.17
  15  -6  -9   30.91    3.30
   9 -15   9   24.80    2.98
 -15   6   9   29.19    2.97
 -15   6   9   24.91    2.39
   9 -15   9   29.34    2.82
  14 -10  -9   18.56    2.68
 -10  -4  -9   19.62    2.37
   4 -14   9   14.92    2.28
   4 -14   9   18.07    2.39
 -10  -1  -9   41.25    2.71
   1 -11   9   36.37    2.79
  10   1   9   42.62    2.54
   1 -11   9   43.16    2.98
   1 -11   9   42.60    2.57
 -10   2  -9    4.10    0.96
   8 -10  -9    2.55    1.30
  -2  -8   9    4.20    1.21
  -2  -8   9    3.46    1.15
  10  -2   9    3.60    1.23
   5 -10  -9  159.99    5.48
 -10   5  -9  162.10    4.97
  -5  -5   9  162.34    4.97
  10  -5   9  167.95    5.20
  -5  -5   9  161.51    4.83
   2 -10  -9   25.42    2.25
   2 -10  -9   27.52    2.39
   2 -10  -9   25.88    2.21
 -10   8  -9   28.11    2.45
  -8  -2   9   31.95    2.11
  -8  -2   9   23.48    2.09
  10  -8   9   23.54    2.13
  -1 -10  -9  113.27    4.49
  -1 -10  -9  115.41    4.50
 -10  11  -9  102.32    4.63
  -1 -10  -9  104.65    4.28
 -11   1   9  107.85    3.91
 -11   1   9  100.27    4.15
  10 -11   9  111.95    4.28
  10 -11   9  111.21    4.38
  -4 -10  -9   -0.15    1.59
  -4 -10  -9   -0.47    1.30
  14  -4  -9    0.18    1.60
  -4 -10  -9   -0.05    1.37
  10 -14   9   -1.96    1.60
 -14   4   9   -1.48    1.31
  10 -14   9   -2.94    1.30
 -14   4   9    0.54    1.38
 -11  -5  -9   53.81    4.04
   5 -16   9   49.13    3.99
   5 -16   9   59.75    4.48
 -11  -2  -9   34.57    2.86
   2 -13   9   36.37    2.76
   2 -13   9   28.92    2.84
   2 -13   9   25.96    2.69
  11   2   9   35.77    2.56
  10 -11  -9  112.38    4.61
 -11   1  -9   97.47    3.76
  -1 -10   9  110.61    4.15
  11  -1   9  110.77    4.16
  -1 -10   9  105.73    4.26
  -1 -10   9  107.26    4.08
 -11   4  -9   33.09    1.73
   7 -11  -9   25.74    2.51
  -4  -7   9   32.09    2.29
  11  -4   9   31.97    2.48
  -4  -7   9   35.20    2.41
 -11   7  -9   22.18    2.20
   4 -11  -9   17.31    2.15
  -7  -4   9   19.72    1.84
  -7  -4   9   19.61    1.97
  11  -7   9   15.73    1.87
 -11  10  -9    4.80    1.63
   1 -11  -9    7.06    1.61
   1 -11  -9    5.38    1.59
   1 -11  -9    5.79    1.66
  11 -10   9    7.98    1.62
 -10  -1   9    5.91    1.50
 -10  -1   9    5.25    1.30
  11 -10   9    6.23    1.38
  -2 -11  -9   62.01    3.88
  -2 -11  -9   57.57    3.57
  -2 -11  -9   56.97    3.61
 -13   2   9   55.77    3.42
 -13   2   9   53.05    3.12
  11 -13   9   52.36    3.73
  11 -13   9   60.25    3.58
  -5 -11  -9   29.11    3.28
  -5 -11  -9   29.91    3.01
 -16   5   9   31.78    2.86
  11 -16   9   27.41    3.42
  11 -16   9   28.82    2.83
 -16   5   9   26.07    2.90
 -12  -3  -9   -0.87    1.56
   3 -15   9    0.51    1.81
   3 -15   9    1.25    1.79
 -12   0  -9    1.25    1.29
  12 -12  -9    1.82    1.58
  12   0   9    2.81    1.44
   0 -12   9    2.46    1.45
   0 -12   9    1.10    1.40
   0 -12   9    1.15    1.44
 -12   3  -9  104.96    3.59
   9 -12  -9  105.03    4.71
  -3  -9   9   97.42    4.09
  12  -3   9  111.16    4.30
  -3  -9   9  108.43    4.16
  -3  -9   9  109.28    4.26
 -12   6  -9   20.69    2.16
   6 -12  -9   21.33    2.46
  12  -6   9   20.33    2.23
  -6  -6   9   25.24    2.25
  -6  -6   9   18.16    1.84
   3 -12  -9  219.14    6.77
   3 -12  -9  222.71    6.51
 -12   9  -9  214.15    6.97
   3 -12  -9  213.32    7.16
  -9  -3   9  217.78    6.56
  12  -9   9  212.82    6.74
  -9  -3   9  213.73    6.22
   0 -12  -9    5.83    1.79
   0 -12  -9    7.43    1.98
   0 -12  -9    8.18    1.97
  12 -12   9    9.21    1.83
 -12   0   9    7.21    1.76
  12 -12   9    8.53    1.93
 -12   0   9    8.60    1.59
  -3 -12  -9   36.99    3.36
  -3 -12  -9   33.11    3.20
  -3 -12  -9   36.14    3.54
 -15   3   9   39.21    3.17
  12 -15   9   39.71    3.61
  12 -15   9   35.94    3.17
 -15   3   9   37.22    3.05
 -13  -1  -9   73.76    3.98
   1 -14   9   77.50    4.40
   1 -14   9   70.09    3.94
   1 -14   9   69.98    4.32
  13   1   9   77.36    3.97
 -13   2  -9    5.01    1.35
  11 -13  -9    3.28    1.79
  13  -2   9    4.87    1.60
  -2 -11   9    4.06    1.60
  -2 -11   9    0.20    1.43
  -2 -11   9    3.56    1.43
   8 -13  -9   56.73    3.87
  -5  -8   9   61.96    3.25
  -5  -8   9   61.28    3.43
  -5  -8   9   66.34    3.19
  13  -5   9   64.06    3.63
 -13   8  -9    6.61    1.75
   5 -13  -9    7.91    1.99
  -8  -5   9    6.18    1.44
  -8  -5   9    3.86    1.44
  13  -8   9    3.23    1.54
   2 -13  -9    8.59    2.12
   2 -13  -9    9.63    1.94
   2 -13  -9   10.21    2.05
 -13  11  -9    9.44    2.17
  13 -11   9    8.59    1.71
 -11  -2   9    8.39    1.65
 -11  -2   9    8.90    1.87
  13 -11   9    9.52    2.06
  -1 -13  -9   12.67    2.33
  -1 -13  -9   16.22    2.55
  -1 -13  -9   13.94    2.54
  13 -14   9   11.91    2.34
  13 -14   9   18.04    2.65
 -14   1   9   11.98    2.16
 -14   1   9   17.68    2.09
 -14   1  -9   -0.27    1.40
  13 -14  -9    1.70    1.94
  14  -1   9    0.66    1.54
  -1 -13   9    0.75    1.59
  -1 -13   9    3.61    1.81
  -1 -13   9    2.37    1.85
  10 -14  -9    2.92    1.87
  -4 -10   9    4.03    1.62
  -4 -10   9    5.58    1.56
  14  -4   9    4.91    1.71
  -4 -10   9    4.25    1.42
   7 -14  -9   -3.45    1.54
 -14   7  -9   -0.26    1.38
  14  -7   9   -0.90    1.36
  -7  -7   9   -0.20    1.32
  -7  -7   9    2.02    1.21
  -7  -7   9   -0.65    1.22
 -14  10  -9    3.87    1.94
   4 -14  -9    5.07    2.09
   4 -14  -9    5.49    1.81
 -10  -4   9    3.17    1.59
  14 -10   9    5.89    1.93
 -10  -4   9    4.51    1.55
   1 -14  -9    0.08    1.70
   1 -14  -9    2.65    1.87
   1 -14  -9    0.82    1.92
 -13  -1   9    0.09    1.34
 -13  -1   9   -0.19    1.54
  14 -13   9    0.22    1.89
  12 -15  -9    2.97    2.04
  15  -3   9    0.16    1.77
  -3 -12   9   -0.36    1.66
  -3 -12   9    2.02    1.69
  -3 -12   9    2.08    1.78
   9 -15  -9   30.98    3.35
 -15   6  -9   27.20    2.47
  15  -6   9   28.66    3.06
  -6  -9   9   25.85    2.59
  -6  -9   9   28.89    2.82
  -6  -9   9   32.41    2.60
   6 -15  -9   -2.39    1.69
 -15   9  -9   -0.67    1.75
  -9  -6   9    0.78    1.33
  15  -9   9    0.16    1.75
  -9  -6   9    1.47    1.57
 -15  12  -9    1.13    1.97
   3 -15  -9    1.67    1.85
   3 -15  -9    2.16    2.12
 -12  -3   9    0.74    1.47
 -12  -3   9    0.70    1.80
  15 -12   9    0.06    2.00
  11 -16  -9   21.84    3.22
  -5 -11   9   19.85    2.36
  16  -5   9   19.28    2.81
  -5 -11   9   15.35    2.43
  -5 -11   9   21.48    2.72
 -16   8  -9   14.84    2.36
   8 -16  -9   17.93    3.11
  -8  -8   9   12.85    2.34
  16  -8   9   14.63    2.62
  -8  -8   9   13.01    2.10
 -16  11  -9   49.01    4.16
   5 -16  -9   55.40    4.62
 -11  -5   9   56.17    3.50
 -11  -5   9   57.11    3.98
  16 -11   9   53.40    4.41
  -1   0 -10  213.02    5.02
   0   1 -10  208.82    5.22
   1  -1 -10  212.38    5.11
  -1   0 -10  216.53    5.06
   1  -1 -10  218.98    5.12
   0  -1  10  212.15    5.18
  -1   1  10  219.86    5.18
   1   0  10  217.16    5.11
   3  -2 -10  701.41   15.51
  -1   3 -10  704.69   15.57
  -3   2  10  681.95   15.55
   1  -3  10  708.85   15.31
  -2   2 -10   -0.09    0.63
   2  -2  10    0.98    0.62
  -2   0  10   -1.13    0.54
  -3  -2 -10   73.75    2.53
  -2   5 -10   73.29    2.57
  -3  -2 -10   72.77    2.17
  -5   3  10   69.76    2.61
   2  -5  10   70.20    2.37
   2  -5  10   70.82    2.25
   2  -5  10   67.33    2.29
   3   2  10   72.76    2.44
  -3   1 -10   25.78    1.17
  -3   1 -10   23.98    1.33
  -1  -2  10   25.85    1.34
   3  -1  10   21.92    1.40
  -3   4 -10   41.02    1.93
  -1  -3 -10   38.90    1.82
   3  -4  10   33.64    1.64
  -4   1  10   38.86    1.79
  -4  -3 -10   72.28    2.38
  -3   7 -10   72.91    2.77
  -4  -3 -10   74.08    2.76
  -7   4  10   72.99    2.87
   3  -7  10   69.16    2.26
   4   3  10   72.05    2.49
   3  -7  10   73.42    2.38
   3  -7  10   70.13    2.55
   4  -4 -10   67.60    2.23
   0   4 -10   68.89    2.38
  -4   0 -10   64.81    2.22
   0  -4  10   66.11    2.28
   4   0  10   64.28    2.32
  -4   4  10   67.55    2.39
   1  -4 -10   85.67    2.88
  -4   3 -10   81.96    2.71
   4  -3  10   82.32    2.69
  -3  -1  10   83.31    2.62
  -4   6 -10   55.22    2.37
  -2  -4 -10   50.35    2.13
  -2  -4 -10   55.18    2.31
  -2  -4 -10   53.97    2.06
   4  -6  10   48.70    1.87
   4  -6  10   49.59    2.19
  -6   2  10   50.17    2.24
   4  -6  10   45.92    1.98
  -4   9 -10  111.97    3.96
  -5  -4 -10  116.00    3.93
  -5  -4 -10  121.91    3.59
   5   4  10  118.29    3.51
  -9   5  10  115.08    4.12
   4  -9  10  114.31    3.39
   4  -9  10  115.76    3.75
  -1   6 -10  222.81    5.90
   6  -5 -10  224.24    5.89
  -5  -1 -10  229.59    5.77
   1  -6  10  229.73    5.58
   1  -6  10  228.03    5.76
  -6   5  10  232.48    6.10
   5   1  10  234.90    5.88
  -5   2 -10    5.52    0.89
   3  -5 -10    5.15    0.97
   5  -2  10    3.73    0.85
  -5   5 -10  425.37   10.02
   0  -5 -10  421.20    9.60
   0  -5 -10  416.63   10.17
   0  -5 -10  414.00    9.70
  -5   0  10  425.08    9.85
   5  -5  10  407.23    9.77
  -5   8 -10   40.56    2.36
  -3  -5 -10   45.67    2.13
  -3  -5 -10   41.81    2.08
  -3  -5 -10   45.34    2.38
   5  -8  10   43.74    2.04
  -8   3  10   39.88    2.31
   5  -8  10   41.20    2.02
   5  -8  10   38.94    1.95
  11  -6 -10  145.37    5.26
  -6  -5 -10  155.86    5.05
  -6  -5 -10  152.39    4.57
 -11   6  10  154.81    5.28
   5 -11  10  155.35    4.87
   5 -11  10  139.57    5.18
   8  -6 -10  152.41    4.70
  -6  -2 -10  155.26    4.58
  -2   8 -10  154.22    4.65
  -8   6  10  167.54    4.98
   6   2  10  160.39    4.49
   2  -8  10  164.38    4.60
   2  -8  10  157.58    4.29
  -6   1 -10  121.68    3.47
   5  -6 -10  128.09    4.07
  -1  -5  10  126.20    3.66
  -1  -5  10  125.83    3.70
  -5   6  10  126.67    3.74
   6  -1  10  130.22    3.81
  -6   4 -10  137.37    4.09
   2  -6 -10  143.55    4.30
   6  -4  10  132.39    4.01
  -4  -2  10  138.57    3.77
  -6   7 -10    0.68    0.84
  -1  -6 -10    0.49    0.93
  -1  -6 -10   -0.19    0.77
  -1  -6 -10   -0.15    0.82
   6  -7  10   -0.37    0.73
  -7   1  10   -0.30    0.81
  -6  10 -10    4.06    1.37
  -4  -6 -10    5.12    1.07
  10  -4 -10    4.03    1.33
  -4  -6 -10    4.98    1.33
  -4  -6 -10    1.88    1.04
 -10   4  10    3.93    1.32
   6 -10  10    4.08    0.90
   6 -10  10    4.22    1.00
   6 -10  10    5.49    1.26
   6 -10  10    4.03    1.15
  13  -7 -10   85.17    4.40
  -7  -6 -10   97.28    4.28
  -7  -6 -10   89.21    3.69
   6 -13  10   94.99    4.15
   6 -13  10   95.19    4.46
 -13   7  10   97.76    4.43
  -7  -3 -10    5.17    1.28
  10  -7 -10    2.89    1.36
   3 -10  10    3.92    1.00
   7   3  10    5.11    1.03
 -10   7  10    5.25    1.59
   3 -10  10    4.96    1.26
   0   7 -10   15.04    1.39
  -7   0 -10   16.73    1.41
   7  -7 -10   13.15    1.33
   7   0  10   15.77    1.47
   0  -7  10   14.63    1.39
   0  -7  10   15.18    1.47
  -7   7  10   16.51    1.75
  -7   3 -10  346.29    8.25
   4  -7 -10  334.11    8.74
  -3  -4  10  342.27    8.15
  -3  -4  10  338.67    8.13
   7  -3  10  329.10    8.36
   1  -7 -10   54.43    2.47
   1  -7 -10   53.48    2.62
  -7   6 -10   52.85    2.55
   1  -7 -10   56.31    2.54
   7  -6  10   55.59    2.46
  -6  -1  10   52.45    2.21
  -7   9 -10  354.38    9.43
  -2  -7 -10  370.01    9.34
  -2  -7 -10  369.58    9.20
  -2  -7 -10  376.57    8.97
   7  -9  10  360.84    8.99
  -9   2  10  350.18    9.10
   7  -9  10  357.40    9.41
  -5  -7 -10   23.85    2.09
  12  -5 -10   22.96    2.47
  -5  -7 -10   28.53    2.17
  -5  -7 -10   21.52    2.22
 -12   5  10   21.99    2.38
   7 -12  10   25.34    2.51
   7 -12  10   27.81    2.34
   7 -12  10   26.41    2.11
 -12   5  10   27.12    2.19
  15  -8 -10   27.32    3.21
  -8  -7 -10   31.77    2.63
  -8  -7 -10   40.16    3.34
   7 -15  10   27.85    3.11
 -15   8  10   38.14    3.51
   7 -15  10   39.62    3.24
  -8  -4 -10   12.24    1.44
  12  -8 -10   11.80    2.06
  -8  -4 -10   12.17    1.91
   4 -12  10   12.70    1.84
 -12   8  10   14.22    2.18
   4 -12  10   11.84    1.92
   4 -12  10   11.97    1.48
  -8  -1 -10  162.45    4.90
   8   1  10  169.28    4.98
  -9   8  10  176.93    5.48
   1  -9  10  160.41    4.74
   1  -9  10  163.66    5.01
  -8   2 -10   37.61    1.75
   6  -8 -10   33.20    2.35
   8  -2  10   36.02    2.08
  -2  -6  10   35.28    2.07
  -2  -6  10   35.83    2.05
  -8   5 -10   76.69    3.05
   3  -8 -10   71.69    3.18
  -5  -3  10   76.57    2.82
   8  -5  10   77.07    3.04
  -5  -3  10   70.53    2.87
  -8   8 -10    1.25    1.10
   0  -8 -10   -0.71    0.92
   0  -8 -10    1.62    1.12
   0  -8 -10    0.48    1.01
  -8   0  10    0.09    0.86
  -8   0  10    1.27    0.94
   8  -8  10    0.88    0.96
   8  -8  10    1.30    0.87
  -3  -8 -10    1.36    1.32
  -3  -8 -10    1.63    1.17
  -3  -8 -10    0.95    1.10
 -11   3  10    0.75    1.05
   8 -11  10   -0.61    1.08
   8 -11  10    0.99    1.03
   8 -11  10    1.20    1.04
 -11   3  10   -1.09    1.16
  -6  -8 -10    1.52    1.38
  -6  -8 -10    2.50    1.66
  14  -6 -10   -2.11    1.62
   8 -14  10    2.73    1.71
   8 -14  10   -0.99    1.34
 -14   6  10    0.41    1.35
 -14   6  10    1.75    1.63
   8 -14  10    2.52    1.21
  -9  -5 -10    2.53    1.29
  -9  -5 -10    1.49    1.68
  14  -9 -10    2.16    1.90
 -14   9  10    2.30    1.84
   5 -14  10    2.01    1.70
   5 -14  10    0.31    1.51
  -9  -2 -10   15.97    1.91
   9   2  10   12.30    1.59
   2 -11  10   10.27    1.50
   2 -11  10    8.23    1.65
   2 -11  10    9.89    1.64
  -9   1 -10   30.99    1.91
   8  -9 -10   31.72    2.54
   9  -1  10   31.12    2.16
  -1  -8  10   29.14    2.18
  -1  -8  10   30.29    2.13
   5  -9 -10   21.73    2.09
  -9   4 -10   25.36    1.88
   9  -4  10   24.90    2.01
  -4  -5  10   22.45    1.83
  -4  -5  10   25.18    1.87
   2  -9 -10   55.58    2.72
   2  -9 -10   56.98    2.86
   2  -9 -10   53.88    2.98
  -9   7 -10   50.76    2.82
   9  -7  10   53.31    2.32
   9  -7  10   47.91    2.65
  -7  -2  10   56.69    2.73
  -9  10 -10   42.80    3.03
  -1  -9 -10   43.51    2.74
  -1  -9 -10   44.74    2.86
  -1  -9 -10   48.85    2.94
   9 -10  10   42.05    2.71
 -10   1  10   43.27    2.72
 -10   1  10   41.20    2.50
   9 -10  10   42.94    2.65
  -4  -9 -10   13.73    2.16
  -4  -9 -10   12.80    1.94
  -4  -9 -10   10.41    1.73
   9 -13  10   11.27    1.74
   9 -13  10    8.85    1.67
   9 -13  10    9.88    1.91
 -13   4  10   12.74    1.87
 -13   4  10   11.95    1.99
  -7  -9 -10   12.93    2.11
  -7  -9 -10    8.40    2.32
   9 -16  10   16.16    2.49
 -16   7  10   14.21    2.58
   9 -16  10   11.75    2.72
 -10  -6 -10   28.23    3.14
   6 -16  10   30.23    3.42
   6 -16  10   29.11    3.22
 -16  10  10   21.69    3.22
 -10  -3 -10    4.89    1.65
   3 -13  10    4.15    1.38
   3 -13  10    5.21    1.70
   3 -13  10    4.23    1.64
  10   3  10    4.07    1.24
 -10   0 -10   97.44    3.70
   0 -10  10   92.46    3.80
  10   0  10   98.62    3.78
   0 -10  10   99.77    3.70
 -10   3 -10    2.45    0.81
   7 -10 -10    1.57    1.27
  -3  -7  10    2.53    1.09
  -3  -7  10    0.29    0.88
  10  -3  10    0.61    1.07
   4 -10 -10  177.25    5.76
 -10   6 -10  165.78    5.36
  10  -6  10  178.63    5.46
  -6  -4  10  174.54    5.24
  -6  -4  10  170.15    5.08
   1 -10 -10   10.73    1.71
 -10   9 -10    7.01    1.64
   1 -10 -10    6.95    1.50
   1 -10 -10    8.78    1.67
  10  -9  10    6.87    1.31
  -9  -1  10   11.29    1.62
  10  -9  10   10.46    1.62
  -2 -10 -10    6.50    1.73
  -2 -10 -10    5.47    1.60
  -2 -10 -10    8.31    1.87
 -12   2  10   11.18    1.87
 -12   2  10    9.05    1.61
  10 -12  10    9.06    1.79
  10 -12  10   10.24    1.82
  -5 -10 -10   63.73    4.35
  -5 -10 -10   60.69    3.57
  -5 -10 -10   62.54    3.80
  10 -15  10   55.52    3.44
 -15   5  10   57.70    3.48
 -15   5  10   58.34    3.69
  10 -15  10   53.91    3.56
  10 -15  10   62.23    4.40
 -11  -4 -10   83.04    4.38
   4 -15  10   79.09    4.48
   4 -15  10   71.44    4.51
 -11  -1 -10   -0.32    1.25
   1 -12  10   -0.92    1.09
   1 -12  10    0.02    1.31
   1 -12  10   -2.35    1.23
  11   1  10    0.64    1.15
 -11   2 -10   20.25    1.74
   9 -11 -10   19.12    2.28
  11  -2  10   22.39    2.24
  -2  -9  10   18.36    1.96
  -2  -9  10   17.63    1.97
   6 -11 -10   47.14    3.23
 -11   5 -10   52.41    2.82
  -5  -6  10   49.78    2.69
  11  -5  10   54.12    2.96
  -5  -6  10   51.98    2.84
   3 -11 -10  107.13    4.26
   3 -11 -10  104.48    4.49
 -11   8 -10  102.87    4.35
  -8  -3  10  106.21    4.05
  -8  -3  10  108.53    3.85
  11  -8  10  101.75    4.15
 -11  11 -10  125.94    5.17
   0 -11 -10  118.06    4.75
   0 -11 -10  132.25    4.87
   0 -11 -10  115.18    4.96
  11 -11  10  125.31    4.77
 -11   0  10  124.18    4.66
  11 -11  10  121.85    4.67
  -3 -11 -10   86.07    4.35
  -3 -11 -10   90.90    4.37
  -3 -11 -10   93.38    4.79
 -14   3  10   81.66    3.99
  11 -14  10   91.34    4.76
 -14   3  10   90.69    4.17
  11 -14  10   78.59    4.19
 -12  -2 -10   80.46    4.11
   2 -14  10   75.47    4.35
   2 -14  10   78.93    3.88
  12   2  10   83.00    3.75
   2 -14  10   70.45    4.37
 -12   1 -10   20.63    2.02
  11 -12 -10   17.65    2.34
  -1 -11  10   20.09    2.23
  12  -1  10   20.81    2.18
  -1 -11  10   15.87    2.11
  -1 -11  10   18.75    2.16
   8 -12 -10  223.09    7.07
 -12   4 -10  198.18    5.47
  -4  -8  10  196.72    6.08
  -4  -8  10  212.09    6.27
  12  -4  10  208.78    6.50
 -12   7 -10    5.79    1.47
   5 -12 -10    3.55    1.59
  12  -7  10    3.46    1.40
  -7  -5  10    3.88    1.23
  -7  -5  10    2.23    1.24
   2 -12 -10   72.67    3.92
   2 -12 -10   69.54    4.10
   2 -12 -10   79.61    3.82
 -12  10 -10   77.38    4.20
  12 -10  10   78.93    3.92
  12 -10  10   70.78    3.46
 -10  -2  10   75.94    3.40
 -10  -2  10   69.69    3.65
  -1 -12 -10   10.15    2.23
  -1 -12 -10   14.01    2.37
  -1 -12 -10   11.91    2.20
 -13   1  10   13.30    2.12
  12 -13  10    9.00    1.97
  12 -13  10   10.51    2.02
  -4 -12 -10   -0.18    1.78
  -4 -12 -10    1.53    1.79
  -4 -12 -10   -0.14    2.00
  12 -16  10   -0.05    2.02
 -16   4  10   -1.09    1.72
  12 -16  10    0.70    1.77
 -16   4  10   -0.26    1.64
 -13   0 -10   36.90    2.90
   0 -13  10   37.03    3.17
   0 -13  10   41.06    3.20
   0 -13  10   37.72    3.26
  13   0  10   41.41    3.08
  10 -13 -10   10.94    2.09
 -13   3 -10   10.27    1.48
  -3 -10  10   13.97    1.97
  -3 -10  10    9.55    1.87
  -3 -10  10   11.97    1.89
  13  -3  10   11.86    1.93
 -13   6 -10    1.51    1.30
   7 -13 -10   -0.14    1.56
  -6  -7  10   -0.25    1.16
  -6  -7  10   -0.53    1.20
  13  -6  10    2.16    1.41
   4 -13 -10   23.70    2.75
 -13   9 -10   27.04    2.77
  13  -9  10   25.87    2.57
  -9  -4  10   26.21    2.47
  -9  -4  10   22.57    2.15
   1 -13 -10   16.68    2.46
 -13  12 -10   15.68    2.67
   1 -13 -10   19.62    2.72
   1 -13 -10   14.81    2.33
  13 -12  10   19.61    2.60
 -12  -1  10   15.09    1.99
  13 -12  10   17.42    2.11
 -12  -1  10   14.44    2.15
  -2 -13 -10   17.78    2.93
  -2 -13 -10   15.63    2.52
  -2 -13 -10   16.14    2.64
  13 -15  10   12.13    2.41
 -15   2  10   10.68    1.94
  13 -15  10   16.84    2.75
 -15   2  10   12.50    2.29
 -14  -1 -10    1.03    1.74
   1 -15  10    0.58    1.69
   1 -15  10    4.41    2.17
   1 -15  10   -1.45    1.82
  12 -14 -10   23.11    2.96
 -14   2 -10   27.56    2.40
  -2 -12  10   29.89    2.86
  -2 -12  10   28.83    2.73
  14  -2  10   34.70    3.06
  -2 -12  10   27.78    2.90
   9 -14 -10   -0.68    1.72
  -5  -9  10   -0.42    1.23
  -5  -9  10   -0.27    1.28
  14  -5  10   -0.76    1.39
  -5  -9  10   -1.58    1.28
   6 -14 -10   20.96    2.81
 -14   8 -10   21.32    2.57
  14  -8  10   19.59    2.45
  -8  -6  10   21.67    2.40
  -8  -6  10   19.76    2.23
   3 -14 -10    6.55    2.05
 -14  11 -10    3.75    2.03
   3 -14 -10    6.13    2.20
 -11  -3  10    8.46    1.96
 -11  -3  10    6.09    1.53
  14 -11  10    6.36    1.96
   0 -14 -10   10.25    2.47
   0 -14 -10   10.38    2.42
   0 -14 -10   12.97    2.61
 -14   0  10   13.70    2.02
 -14   0  10   10.87    2.28
  14 -14  10    6.89    2.34
  14 -14  10    7.17    2.22
 -15   1 -10   18.73    2.47
  15  -1  10   21.47    2.71
  -1 -14  10   16.55    2.77
  -1 -14  10   19.26    2.79
  -1 -14  10   16.14    2.60
  11 -15 -10   15.94    2.91
  -4 -11  10   20.32    2.62
  -4 -11  10   22.95    2.52
  15  -4  10   21.56    2.84
  -4 -11  10   17.70    2.42
   8 -15 -10    6.88    2.33
 -15   7 -10    8.46    1.96
  -7  -8  10    7.78    1.81
  -7  -8  10    5.47    1.71
  -7  -8  10    5.53    1.49
  15  -7  10    8.26    2.08
 -15  10 -10   47.50    3.87
   5 -15 -10   53.95    4.34
 -10  -5  10   49.76    3.60
  15 -10  10   42.47    3.71
 -10  -5  10   47.45    3.28
   2 -15 -10    2.54    2.13
   2 -15 -10    2.41    2.11
   2 -15 -10    1.58    1.99
 -13  -2  10    0.70    1.76
 -13  -2  10   -1.84    1.36
  15 -13  10   -2.76    1.94
  10 -16 -10   51.67    4.50
  -6 -10  10   60.01    4.06
  16  -6  10   68.16    4.49
  -6 -10  10   74.88    4.07
  -6 -10  10   59.42    3.70
   7 -16 -10   16.25    3.03
 -16   9 -10   21.31    2.81
  16  -9  10   24.32    3.17
  -9  -7  10   18.87    2.32
  -9  -7  10   20.64    2.67
 -16  12 -10   17.50    2.99
   4 -16 -10   15.38    3.04
 -12  -4  10   17.03    2.41
 -12  -4  10   16.63    2.67
  16 -12  10   19.65    3.18
   1   0 -11   80.62    2.46
  -1   1 -11   82.79    2.44
  -1   1 -11   77.40    2.46
   1   0 -11   79.94    2.51
   0   1  11   80.91    2.37
  -1   0  11   81.81    2.50
   1  -1  11   81.50    2.45
   2  -2 -11   59.10    1.98
   0   2 -11   56.59    2.13
   2  -2 -11   56.55    1.94
  -2   2  11   58.46    2.05
  -2   3 -11  643.07   14.30
   2  -3  11  627.94   14.09
  -3   1  11  635.28   14.26
   4  -3 -11  249.75    6.18
  -3  -1 -11  250.65    6.08
  -1   4 -11  255.30    6.32
  -4   3  11  252.54    6.33
   3   1  11  253.63    6.26
   1  -4  11  248.36    5.97
   1  -4  11  254.34    6.02
  -3   2 -11  155.93    3.96
  -3   2 -11  154.85    4.08
   3  -2  11  149.01    4.07
  -2  -1  11  145.48    4.00
  -3   5 -11   67.15    2.47
  -2  -3 -11   60.55    2.35
  -5   2  11   58.50    2.38
   3  -5  11   61.06    2.19
   3  -5  11   56.75    2.01
  -2   6 -11   36.39    1.96
  -4  -2 -11   40.01    1.97
   6  -4 -11   36.15    1.95
   2  -6  11   38.46    1.62
  -6   4  11   38.75    2.04
   4   2  11   35.91    1.82
   2  -6  11   37.08    1.78
   2  -6  11   38.23    1.64
  -4   1 -11   64.52    2.10
  -4   1 -11   61.47    1.94
   4  -1  11   63.39    2.34
  -4   4 -11   61.34    2.40
  -4   0  11   57.77    2.25
   4  -4  11   58.38    2.24
  -3  -4 -11  100.78    3.40
  -3  -4 -11   99.06    3.04
  -4   7 -11   92.18    3.41
   4  -7  11   90.64    3.12
   4  -7  11   96.77    3.00
   3   4  11  105.01    3.09
  -7   3  11  102.34    3.46
   4  -7  11   95.99    3.05
  -5  -3 -11    0.69    0.90
  -5  -3 -11    0.79    0.70
  -3   8 -11    1.07    0.90
  -8   5  11    0.72    0.93
   3  -8  11    1.12    0.68
   5   3  11    1.29    0.78
   3  -8  11    0.84    0.78
   5  -5 -11  230.54    5.76
   0   5 -11  236.10    5.96
  -5   0 -11  219.57    5.63
  -5   5  11  227.57    5.99
   5   0  11  233.05    5.93
   0  -5  11  231.38    5.75
   2  -5 -11    6.23    1.04
  -5   3 -11    7.40    1.06
  -3  -2  11    6.88    0.91
   5  -3  11    9.41    1.13
  -1  -5 -11   98.65    3.16
  -1  -5 -11  102.20    3.34
  -1  -5 -11   95.74    3.30
  -5   6 -11   98.03    3.41
   5  -6  11   99.51    3.17
  -6   1  11   93.76    3.21
  -4  -5 -11    3.38    0.92
  -4  -5 -11    1.07    1.01
  -4  -5 -11    2.53    0.86
  -5   9 -11    1.36    1.04
  -9   4  11    3.66    1.20
   4   5  11    3.23    0.85
   5  -9  11    2.54    0.93
   5  -9  11    1.65    0.73
   5  -9  11    1.23    0.85
  -6  -4 -11   28.73    2.26
  -6  -4 -11   26.65    1.86
   4 -10  11   30.99    2.24
   6   4  11   28.28    1.82
 -10   6  11   35.74    2.60
  -1   7 -11   45.76    2.14
   7  -6 -11   43.60    2.11
  -6  -1 -11   42.73    2.10
   1  -7  11   45.69    2.15
  -7   6  11   45.89    2.37
   1  -7  11   42.82    2.01
   6   1  11   43.23    2.12
   4  -6 -11    3.62    0.99
  -6   2 -11    2.60    0.68
  -6   2 -11    4.01    0.84
  -2  -4  11    2.68    0.81
   6  -2  11    3.08    0.89
  -6   5 -11   14.88    1.48
   1  -6 -11   15.27    1.47
  -5  -1  11   15.70    1.34
   6  -5  11   15.16    1.38
  -2  -6 -11  234.14    6.41
  -2  -6 -11  238.41    6.40
  -6   8 -11  234.53    6.61
  -2  -6 -11  234.56    6.13
   6  -8  11  237.08    5.84
   6  -8  11  228.68    6.29
   6  -8  11  234.82    6.20
  -8   2  11  234.67    6.39
  -5  -6 -11   66.21    2.83
  -5  -6 -11   67.38    2.94
  -5  -6 -11   63.81    3.28
 -11   5  11   64.62    3.37
   6 -11  11   65.84    2.72
   6 -11  11   67.85    3.10
   6 -11  11   68.20    3.46
  -7  -5 -11    0.90    1.29
  -7  -5 -11    1.06    1.03
   5 -12  11    0.94    1.37
   5 -12  11    1.74    1.21
 -12   7  11    4.14    1.59
  -7  -2 -11  299.66    7.74
  -9   7  11  295.52    8.21
   7   2  11  320.60    7.76
   2  -9  11  307.14    7.44
   2  -9  11  293.88    7.71
   6  -7 -11   49.21    2.57
  -7   1 -11   44.16    1.98
  -6   7  11   51.54    2.35
   7  -1  11   48.78    2.26
  -1  -6  11   43.45    2.19
  -1  -6  11   44.50    2.16
   3  -7 -11  603.27   14.75
  -7   4 -11  627.23   14.24
   7  -4  11  612.43   14.21
   0  -7 -11    6.40    1.18
  -7   7 -11    6.58    1.33
   0  -7 -11    7.67    1.28
   0  -7 -11    6.00    1.19
   7  -7  11    7.03    1.18
  -7   0  11    7.32    1.17
  -3  -7 -11  132.78    4.63
  -7  10 -11  130.21    4.79
  -3  -7 -11  132.88    4.35
  -3  -7 -11  137.49    4.43
   7 -10  11  133.57    4.70
 -10   3  11  131.94    4.51
   7 -10  11  133.03    4.15
   7 -10  11  132.99    4.27
  -6  -7 -11   28.29    2.67
  -6  -7 -11   36.92    2.66
   7 -13  11   31.36    2.26
   7 -13  11   29.08    2.79
 -13   6  11   34.57    3.08
 -13   6  11   37.02    2.63
   7 -13  11   34.37    2.70
  -8  -6 -11  148.94    4.98
  -8  -6 -11  155.11    5.74
   6 -14  11  148.56    5.95
   6 -14  11  147.77    5.57
 -14   8  11  150.49    5.95
  -8  -3 -11   24.23    2.19
   8   3  11   16.59    1.70
   3 -11  11   21.46    1.76
 -11   8  11   19.10    2.33
   3 -11  11   17.51    2.08
   3 -11  11   15.70    1.81
  -8   0 -11  124.01    3.91
   8  -8 -11  129.13    3.95
   0  -8  11  127.15    4.12
   0  -8  11  130.10    3.98
   8   0  11  122.75    4.07
  -8   8  11  125.48    4.40
  -8   3 -11   20.15    1.30
  -8   3 -11   21.41    1.63
   5  -8 -11   19.86    1.84
  -3  -5  11   21.83    1.76
   8  -3  11   17.31    1.60
  -3  -5  11   20.15    1.69
   2  -8 -11    3.78    1.23
  -8   6 -11    6.74    1.30
  -6  -2  11    5.96    1.19
   8  -6  11    6.41    1.15
  -6  -2  11    5.81    0.98
  -8   9 -11   91.95    3.86
  -1  -8 -11   93.19    3.57
  -1  -8 -11   90.88    3.69
  -1  -8 -11   93.74    3.68
   8  -9  11   92.01    3.51
  -9   1  11   85.66    3.45
  -9   1  11   90.04    3.45
   8  -9  11   89.27    3.57
  -4  -8 -11   49.38    2.99
  -4  -8 -11   51.87    3.31
  -4  -8 -11   55.46    2.92
 -12   4  11   50.11    3.04
   8 -12  11   53.17    3.40
 -12   4  11   52.35    3.16
   8 -12  11   48.15    2.83
   8 -12  11   54.42    2.81
  -7  -8 -11    9.23    1.89
  -7  -8 -11   11.06    2.33
 -15   7  11    8.59    2.10
   8 -15  11   11.86    2.13
 -15   7  11   10.31    1.88
   8 -15  11    8.75    2.22
  -9  -7 -11   -2.29    1.75
   7 -16  11    2.53    2.08
 -16   9  11    0.99    2.00
   7 -16  11   -1.95    1.65
  -9  -4 -11   10.23    1.89
   4 -13  11   12.35    2.04
 -13   9  11   13.43    2.39
   9   4  11   10.38    1.49
   4 -13  11   10.50    1.61
   4 -13  11   12.67    2.03
  -9  -1 -11    0.23    0.99
   1 -10  11   -0.41    0.95
   9   1  11   -1.74    0.85
   1 -10  11   -0.85    0.96
   7  -9 -11  109.57    4.25
  -9   2 -11  111.24    3.43
  -2  -7  11  113.78    3.79
   9  -2  11  109.15    3.93
  -2  -7  11  106.18    3.76
  -9   5 -11    3.37    1.21
   4  -9 -11    3.08    1.16
  -5  -4  11    3.38    1.10
  -5  -4  11    4.24    1.04
   9  -5  11    3.49    1.11
   1  -9 -11   64.87    3.04
   1  -9 -11   69.25    3.18
  -9   8 -11   64.96    3.23
   1  -9 -11   66.01    3.22
   9  -8  11   58.13    2.96
   9  -8  11   61.32    2.76
  -8  -1  11   60.12    2.58
  -8  -1  11   58.31    2.94
  -2  -9 -11   38.24    2.75
  -2  -9 -11   40.91    3.01
  -2  -9 -11   40.25    2.78
   9 -11  11   34.73    2.62
 -11   2  11   35.99    2.57
 -11   2  11   35.67    2.76
   9 -11  11   41.93    2.87
  -5  -9 -11   18.50    2.26
  -5  -9 -11   16.83    2.53
  -5  -9 -11   15.30    2.03
   9 -14  11   14.34    2.09
 -14   5  11   13.08    2.20
   9 -14  11   14.75    1.98
 -14   5  11   16.96    2.19
   9 -14  11   19.76    2.60
 -10  -5 -11   15.03    2.37
   5 -15  11   12.14    2.37
   5 -15  11   17.15    2.63
 -10  -2 -11   17.94    2.08
   2 -12  11   14.97    1.78
  10   2  11   14.75    1.90
   2 -12  11   17.30    2.13
   2 -12  11   17.44    2.25
 -10   1 -11   27.03    2.03
   9 -10 -11   21.07    2.24
  -1  -9  11   30.31    2.26
  -1  -9  11   25.59    2.21
  10  -1  11   31.17    2.36
 -10   4 -11   16.97    1.68
   6 -10 -11   16.50    2.05
  -4  -6  11   19.71    1.78
  10  -4  11   19.84    2.01
  -4  -6  11   18.48    1.80
   3 -10 -11    1.92    1.29
 -10   7 -11    1.35    1.19
  -7  -3  11    3.87    1.21
  10  -7  11    2.08    1.08
  -7  -3  11    0.76    0.99
   0 -10 -11   52.71    3.16
   0 -10 -11   53.15    3.29
   0 -10 -11   51.90    3.12
 -10  10 -11   47.82    3.33
 -10   0  11   50.86    2.64
  10 -10  11   61.24    3.16
 -10   0  11   53.34    3.08
  10 -10  11   52.59    2.98
  -3 -10 -11   10.27    1.95
  -3 -10 -11   11.76    2.21
  -3 -10 -11   10.90    1.86
  10 -13  11   12.28    1.97
 -13   3  11   10.95    1.93
  10 -13  11   15.49    2.25
 -13   3  11   13.77    2.09
  -6 -10 -11   38.00    3.25
  -6 -10 -11   45.77    3.91
  10 -16  11   41.83    3.34
  10 -16  11   36.92    3.88
 -16   6  11   39.56    3.46
 -11  -3 -11   -1.44    1.43
   3 -14  11    0.72    1.59
  11   3  11   -2.00    1.08
   3 -14  11   -0.68    1.52
   3 -14  11    0.56    1.30
 -11   0 -11   48.82    2.83
   0 -11  11   49.97    2.96
   0 -11  11   50.09    3.20
   0 -11  11   45.98    3.14
  11   0  11   48.22    2.93
 -11   3 -11   52.06    2.42
   8 -11 -11   57.46    3.49
  -3  -8  11   56.16    2.91
  11  -3  11   58.93    3.11
  -3  -8  11   53.22    2.89
   5 -11 -11   46.02    3.24
 -11   6 -11   50.26    2.88
  11  -6  11   55.24    3.01
  -6  -5  11   49.23    2.84
  -6  -5  11   54.19    2.78
   2 -11 -11   85.89    4.23
 -11   9 -11   86.16    4.19
   2 -11 -11   92.52    4.07
   2 -11 -11   94.04    3.98
  -9  -2  11   90.51    3.87
  11  -9  11   87.84    3.93
  11  -9  11   94.73    3.57
  -9  -2  11   93.38    3.65
  -1 -11 -11   -0.16    1.42
  -1 -11 -11    0.96    1.42
  -1 -11 -11    2.07    1.52
 -12   1  11    1.41    1.25
  11 -12  11   -0.02    1.29
 -12   1  11    0.53    1.44
  11 -12  11    3.17    1.50
  -4 -11 -11    6.93    1.95
  -4 -11 -11    8.15    2.34
  -4 -11 -11    7.61    2.07
  11 -15  11    5.10    1.93
 -15   4  11    6.95    1.92
  11 -15  11    8.25    2.23
 -15   4  11    6.04    1.87
 -12  -4 -11   11.60    2.40
   4 -16  11    8.99    2.54
   4 -16  11    9.89    2.59
 -12  -1 -11  122.73    4.81
  12   1  11  121.03    4.63
   1 -13  11  118.99    5.00
   1 -13  11  122.20    4.69
   1 -13  11  117.48    5.10
 -12   2 -11    1.73    1.13
  10 -12 -11    0.84    1.60
  -2 -10  11   -0.95    1.15
  -2 -10  11    0.25    1.22
  -2 -10  11    1.47    1.30
  12  -2  11    1.58    1.29
 -12   5 -11   57.41    3.02
   7 -12 -11   62.80    3.82
  -5  -7  11   60.06    3.07
  12  -5  11   56.04    3.30
  -5  -7  11   63.06    3.24
   4 -12 -11   54.20    3.68
 -12   8 -11   58.05    3.47
  12  -8  11   60.22    3.38
  -8  -4  11   55.62    3.03
  -8  -4  11   58.99    3.26
   1 -12 -11    8.41    1.89
   1 -12 -11   10.63    2.00
 -12  11 -11    8.93    2.18
   1 -12 -11   12.56    2.00
  12 -11  11   13.12    1.87
 -11  -1  11   11.55    1.95
  12 -11  11   11.74    1.98
 -11  -1  11    9.96    1.71
  -2 -12 -11  156.94    6.22
  -2 -12 -11  154.25    5.95
  -2 -12 -11  151.77    6.05
  12 -14  11  155.72    6.26
 -14   2  11  160.12    5.38
 -14   2  11  155.11    5.81
 -13  -2 -11   22.14    2.75
   2 -15  11   23.32    2.95
   2 -15  11   22.65    2.58
   2 -15  11   25.83    3.12
 -13   1 -11    0.47    1.24
  -1 -12  11   -0.72    1.46
  13  -1  11    0.71    1.42
  -1 -12  11    1.19    1.43
  -1 -12  11   -1.71    1.28
   9 -13 -11  113.41    5.10
  -4  -9  11  108.06    4.35
  13  -4  11   99.24    4.48
  -4  -9  11  106.64    4.39
 -13   7 -11   46.24    3.15
   6 -13 -11   46.79    3.62
  13  -7  11   43.44    3.17
  -7  -6  11   40.01    2.94
  -7  -6  11   42.53    2.88
   3 -13 -11   97.73    4.50
 -13  10 -11   94.98    4.71
   3 -13 -11   91.79    4.82
  13 -10  11   96.70    4.52
 -10  -3  11   92.88    3.97
 -10  -3  11   96.04    4.32
   0 -13 -11    1.24    1.72
   0 -13 -11    2.67    1.93
   0 -13 -11    3.45    2.05
 -13   0  11    5.13    1.58
 -13   0  11    3.37    1.74
  13 -13  11    3.93    1.80
  13 -13  11    2.12    1.66
 -14   0 -11   10.04    2.10
   0 -14  11    7.10    2.00
  14   0  11    5.75    1.94
   0 -14  11   12.15    2.43
   0 -14  11   10.59    2.23
  11 -14 -11    0.97    1.96
  -3 -11  11    3.72    1.62
  14  -3  11    7.15    1.95
  -3 -11  11    4.74    1.72
  -3 -11  11    4.34    1.57
 -14   6 -11    1.06    1.36
   8 -14 -11    0.41    1.77
  -6  -8  11    2.20    1.48
  -6  -8  11    3.33    1.30
  14  -6  11    3.66    1.68
  -6  -8  11    2.47    1.48
 -14   9 -11    2.68    1.78
   5 -14 -11    0.68    1.78
  -9  -5  11    1.19    1.34
  -9  -5  11    1.23    1.48
  14  -9  11    0.17    1.48
 -14  12 -11   15.19    2.78
   2 -14 -11   19.99    2.77
   2 -14 -11   20.47    2.80
   2 -14 -11   15.16    2.66
 -12  -2  11   18.78    2.28
 -12  -2  11   18.99    2.54
  14 -12  11   19.40    2.76
  -2 -13  11   13.02    2.52
  -2 -13  11   11.86    2.32
  -2 -13  11   14.59    2.38
  15  -2  11   16.00    2.63
  10 -15 -11   16.93    2.97
  -5 -10  11   24.30    2.72
  -5 -10  11   21.61    2.50
  15  -5  11   20.56    2.61
  -5 -10  11   18.67    2.23
   7 -15 -11    3.72    2.09
 -15   8 -11    5.27    1.89
  -8  -7  11    5.81    1.78
  -8  -7  11    3.37    1.53
  15  -8  11    2.90    1.84
   4 -15 -11   30.51    3.50
 -15  11 -11   26.98    3.04
 -11  -4  11   36.44    3.18
  15 -11  11   28.82    3.25
 -11  -4  11   30.25    2.73
  12 -16 -11    9.81    2.68
  -4 -12  11    5.11    2.07
  16  -4  11    3.47    2.10
  -4 -12  11    5.38    1.94
  -4 -12  11    2.54    1.94
 -16   7 -11    5.37    1.91
   9 -16 -11    6.05    2.46
  -7  -9  11    6.99    1.92
  -7  -9  11    4.93    1.95
  -7  -9  11    3.77    1.70
  16  -7  11    5.85    2.25
   6 -16 -11   -0.89    2.12
 -16  10 -11    0.17    2.13
  16 -10  11    4.22    2.23
 -10  -6  11   -1.17    1.49
 -10  -6  11   -0.19    1.77
   0   0 -12  199.08    4.93
   0   0 -12  202.59    4.91
   0   0  12  197.46    4.95
   2  -1 -12  218.15    5.50
  -1   2 -12  224.26    5.62
   2  -1 -12  229.75    5.54
  -2   1  12  226.02    5.58
  -2   1 -12  165.71    4.08
  -2   1 -12  158.42    4.12
   1   1 -12  156.84    4.24
  -1  -1  12  156.10    4.18
   2  -1  12  158.93    4.31
  -2   4 -12  922.27   20.30
  -4   2  12  920.88   20.30
   2  -4  12  921.51   19.36
   2  -4  12  886.65   19.88
   0   3 -12   16.69    1.33
   3  -3 -12   15.78    1.16
  -3   3  12   18.10    1.34
   3   0  12   15.40    1.34
  -3   3 -12    0.17    0.68
  -3   0  12   -0.58    0.62
   3  -3  12    0.37    0.64
  -3  -3 -12   56.01    2.35
  -3  -3 -12   57.74    2.05
  -3   6 -12   51.06    2.36
   3  -6  12   56.74    2.24
  -6   3  12   56.28    2.46
   3  -6  12   55.08    2.08
   3   3  12   52.41    2.22
   3  -6  12   58.51    2.15
  -4  -1 -12    5.73    0.95
  -1   5 -12    6.68    1.01
   5  -4 -12    7.20    1.03
   1  -5  12    5.16    0.75
   1  -5  12    5.76    0.91
  -5   4  12    4.61    1.01
   4   1  12    4.39    0.91
  -4   2 -12  214.09    5.41
  -4   2 -12  220.07    5.32
   4  -2  12  211.91    5.53
  -2  -2  12  212.00    5.40
  -4   5 -12   45.01    2.22
  -1  -4 -12   42.97    2.09
   4  -5  12   45.60    1.98
  -5   1  12   43.04    2.05
  -4  -4 -12   91.99    3.40
  -4  -4 -12   93.21    2.98
  -4   8 -12   92.31    3.46
   4  -8  12   90.51    3.11
   4  -8  12   92.81    2.98
   4  -8  12   86.06    3.04
   4   4  12   94.19    3.04
  -8   4  12   94.24    3.52
   7  -5 -12   10.75    1.33
  -2   7 -12   12.71    1.34
  -5  -2 -12   12.53    1.36
   2  -7  12   13.78    1.20
   5   2  12   15.26    1.42
   2  -7  12   13.56    1.27
  -7   5  12   11.36    1.41
  -5   1 -12   31.42    1.55
   1   4 -12   32.74    1.77
   5  -1  12   31.54    1.80
  -1  -4  12   32.80    1.73
  -5   4 -12   18.33    1.55
  -4  -1  12   18.07    1.42
   5  -4  12   16.20    1.40
  -5   7 -12   14.10    1.55
  -2  -5 -12   14.54    1.48
  -2  -5 -12   16.21    1.42
   5  -7  12   15.01    1.23
  -7   2  12   13.31    1.42
   5  -7  12   15.13    1.36
  -5  -5 -12   17.90    1.57
  -5  -5 -12   17.56    1.94
 -10   5  12   17.57    2.02
   5 -10  12   16.85    1.47
   5   5  12   18.09    1.47
   5 -10  12   14.08    1.56
  -6  -3 -12    3.70    1.10
   6   3  12    3.97    0.99
   3  -9  12    2.64    1.03
  -9   6  12    5.90    1.38
   3  -9  12    2.50    0.84
   0   6 -12   42.43    2.14
   6  -6 -12   45.40    2.02
  -6   0 -12   42.99    2.02
   6   0  12   48.00    2.24
   0  -6  12   48.44    2.13
  -6   6  12   44.50    2.28
   0  -6  12   44.76    2.13
   3  -6 -12  391.89    9.94
  -6   3 -12  397.98    9.43
   6  -3  12  396.46    9.54
  -6   6 -12   74.98    2.95
   0  -6 -12   74.12    2.89
   0  -6 -12   74.17    2.94
  -6   0  12   72.23    2.76
   6  -6  12   66.28    2.70
  -3  -6 -12  188.63    5.59
  -3  -6 -12  193.43    5.26
  -3  -6 -12  183.48    5.39
  -6   9 -12  179.59    5.74
   6  -9  12  186.40    5.06
   6  -9  12  190.91    5.25
  -9   3  12  177.78    5.56
  -6  -6 -12    5.29    1.56
  -6  -6 -12    9.77    1.48
   6 -12  12    6.61    1.52
   6 -12  12    8.67    1.79
 -12   6  12    8.84    1.84
   6 -12  12    8.01    1.20
  -7  -4 -12   35.99    2.66
   4 -11  12   38.36    2.63
 -11   7  12   37.51    2.92
   4 -11  12   40.11    2.11
   7   4  12   40.60    2.20
  -7  -1 -12  413.62    9.85
   8  -7 -12  400.25   10.00
   1  -8  12  412.61    9.86
   7   1  12  413.30    9.98
  -8   7  12  419.11   10.40
   1  -8  12  404.66    9.60
  -7   2 -12    0.45    0.63
   5  -7 -12   -0.05    0.91
  -2  -5  12    0.12    0.75
  -2  -5  12    0.87    0.82
   7  -2  12    0.38    0.77
   2  -7 -12  100.83    3.69
  -7   5 -12  104.78    3.57
  -5  -2  12   98.34    3.15
   7  -5  12   98.68    3.46
  -7   8 -12  217.33    6.31
  -1  -7 -12  213.73    6.19
  -1  -7 -12  210.70    6.06
  -1  -7 -12  221.82    5.97
   7  -8  12  216.72    6.00
  -8   1  12  213.21    6.00
  -4  -7 -12   16.20    1.79
  -4  -7 -12   17.58    1.76
  -4  -7 -12   16.94    2.05
   7 -11  12   18.26    1.77
   7 -11  12   14.56    1.70
   7 -11  12   15.42    1.97
 -11   4  12   15.95    2.01
  -7  -7 -12  151.40    5.87
  -7  -7 -12  151.41    5.12
 -14   7  12  152.81    5.93
   7 -14  12  152.73    5.52
   7 -14  12  143.04    6.02
 -14   7  12  153.23    5.16
  -8  -5 -12   34.80    2.36
  -8  -5 -12   37.63    3.07
 -13   8  12   34.76    3.19
   5 -13  12   34.28    3.04
   5 -13  12   41.35    3.07
  -8  -2 -12   55.86    2.86
   8   2  12   57.17    2.67
 -10   8  12   55.72    3.22
   2 -10  12   56.93    2.91
   2 -10  12   58.91    2.62
  -8   1 -12   17.01    1.48
  -1  -7  12   15.21    1.51
   8  -1  12   18.23    1.71
  -1  -7  12   14.13    1.54
  -8   4 -12  183.90    5.20
   4  -8 -12  182.40    5.59
   8  -4  12  178.15    5.25
  -4  -4  12  178.15    5.08
  -4  -4  12  178.99    5.14
   1  -8 -12  123.92    4.45
   1  -8 -12  131.99    4.28
  -8   7 -12  120.04    4.33
   1  -8 -12  133.54    4.23
  -7  -1  12  131.01    3.97
   8  -7  12  127.62    4.26
  -8  10 -12   36.80    2.86
  -2  -8 -12   34.35    2.68
  -2  -8 -12   37.06    2.54
  -2  -8 -12   38.88    2.57
 -10   2  12   32.35    2.45
   8 -10  12   32.44    2.57
   8 -10  12   36.62    2.43
  -5  -8 -12   15.64    1.97
  -5  -8 -12   13.34    1.73
  -5  -8 -12   14.81    2.23
 -13   5  12   14.70    2.23
 -13   5  12   14.81    2.09
   8 -13  12   16.53    2.03
   8 -13  12   14.02    1.81
   8 -13  12   14.25    2.16
  -8  -8 -12   -0.41    1.55
  -8  -8 -12   -3.91    1.78
   8 -16  12   -0.68    2.01
   8 -16  12    0.46    1.82
 -16   8  12    2.38    2.12
  -9  -6 -12    5.49    2.06
   6 -15  12    6.08    2.03
 -15   9  12    5.78    2.28
   6 -15  12    7.72    2.10
  -9  -3 -12   59.90    3.32
   3 -12  12   59.81    3.34
   3 -12  12   56.11    2.79
   3 -12  12   54.50    3.43
   9   3  12   59.45    2.89
  -9   0 -12    1.15    0.95
   9  -9 -12    0.45    0.82
   9   0  12   -0.78    0.94
   0  -9  12    0.02    0.88
   0  -9  12   -0.70    0.93
   6  -9 -12   74.21    3.47
  -9   3 -12   71.40    2.51
  -3  -6  12   69.58    2.91
   9  -3  12   71.15    3.12
  -3  -6  12   69.13    2.98
  -9   6 -12   48.06    2.73
   3  -9 -12   45.96    2.93
  -6  -3  12   51.52    2.50
  -6  -3  12   49.60    2.61
   9  -6  12   47.06    2.64
   0  -9 -12   22.76    2.13
   0  -9 -12   20.29    2.10
  -9   9 -12   25.08    2.43
   0  -9 -12   21.09    2.12
  -9   0  12   21.82    1.90
   9  -9  12   24.94    2.17
   9  -9  12   21.54    1.91
  -9   0  12   22.50    2.08
  -3  -9 -12   39.98    2.80
  -3  -9 -12   37.25    2.83
  -3  -9 -12   33.11    2.89
 -12   3  12   38.59    2.74
 -12   3  12   40.57    2.94
   9 -12  12   35.20    2.89
   9 -12  12   40.36    2.77
   9 -12  12   32.49    2.48
  -6  -9 -12    5.59    2.10
  -6  -9 -12    8.47    1.92
 -15   6  12   10.75    2.27
 -15   6  12   11.71    2.09
   9 -15  12    8.41    2.31
   9 -15  12    9.74    2.01
 -10  -4 -12   22.18    2.58
   4 -14  12   26.69    2.92
   4 -14  12   24.13    2.66
 -10  -1 -12   11.81    1.70
   1 -11  12   14.01    1.90
  10   1  12    9.86    1.63
   1 -11  12   14.02    1.70
 -10   2 -12    8.75    1.27
   8 -10 -12    7.31    1.64
  -2  -8  12    5.33    1.28
  -2  -8  12    6.39    1.36
  10  -2  12    4.42    1.37
   5 -10 -12   35.92    2.88
 -10   5 -12   38.78    2.45
  -5  -5  12   43.90    2.45
  -5  -5  12   38.24    2.46
  10  -5  12   39.83    2.58
   2 -10 -12    1.83    1.35
 -10   8 -12   -1.22    1.10
  10  -8  12   -0.97    1.03
  10  -8  12    0.42    0.91
  -8  -2  12    0.39    1.10
 -10  11 -12   30.84    2.82
  -1 -10 -12   28.89    2.51
  -1 -10 -12   30.50    2.67
  -1 -10 -12   27.47    2.49
 -11   1  12   25.94    2.25
  10 -11  12   34.65    2.84
  10 -11  12   30.09    2.49
 -11   1  12   30.27    2.56
  -4 -10 -12   -1.06    1.35
  -4 -10 -12   -0.97    1.65
  -4 -10 -12    0.48    1.44
 -14   4  12    0.68    1.38
  10 -14  12    0.15    1.40
 -14   4  12    1.75    1.44
  10 -14  12   -0.70    1.28
  10 -14  12   -0.20    1.67
 -11  -5 -12   12.24    2.51
   5 -16  12    8.60    2.44
   5 -16  12    8.35    2.48
 -11  -2 -12   25.44    2.55
   2 -13  12   22.42    2.48
   2 -13  12   18.71    2.41
  11   2  12   23.22    2.32
   2 -13  12   17.17    2.08
 -11   1 -12   40.70    2.53
  -1 -10  12   40.65    2.79
  11  -1  12   39.03    2.78
  -1 -10  12   36.51    2.65
   7 -11 -12   52.24    3.38
  -4  -7  12   55.63    2.96
  11  -4  12   52.32    3.07
  -4  -7  12   52.73    2.80
 -11   7 -12    1.07    1.29
   4 -11 -12   -0.60    1.30
  11  -7  12   -0.37    1.08
  -7  -4  12   -0.17    1.10
  -7  -4  12   -1.39    0.96
   1 -11 -12    4.52    1.57
 -11  10 -12    3.38    1.56
   1 -11 -12    3.64    1.54
   1 -11 -12    2.14    1.51
  11 -10  12    5.80    1.36
  11 -10  12    4.87    1.49
 -10  -1  12    5.37    1.56
  -2 -11 -12   71.76    3.99
  -2 -11 -12   78.76    4.30
  -2 -11 -12   66.50    3.87
 -13   2  12   65.41    3.56
  11 -13  12   74.20    4.11
 -13   2  12   65.86    3.82
  11 -13  12   68.92    3.90
  -5 -11 -12    9.15    2.28
  -5 -11 -12   13.35    2.72
  11 -16  12   11.29    2.83
 -16   5  12   15.94    2.40
 -16   5  12   15.83    2.43
 -12  -3 -12    2.51    1.86
   3 -15  12    1.24    1.85
   3 -15  12    2.49    1.91
 -12   0 -12   21.80    2.28
  12   0  12   20.93    2.30
   0 -12  12   21.59    2.31
   0 -12  12   17.53    2.31
   0 -12  12   20.64    2.46
   9 -12 -12  110.16    5.00
 -12   3 -12  108.53    3.78
  12  -3  12  113.97    4.57
  -3  -9  12  124.85    4.50
  -3  -9  12  117.76    4.42
   6 -12 -12   11.77    2.04
 -12   6 -12   13.87    1.93
  -6  -6  12   17.10    1.90
  12  -6  12   12.63    1.93
  -6  -6  12   14.15    1.87
 -12   9 -12  237.83    7.62
   3 -12 -12  243.73    7.87
  12  -9  12  239.43    7.44
  -9  -3  12  247.58    7.00
  -9  -3  12  250.76    7.26
   0 -12 -12    9.80    2.12
   0 -12 -12    9.15    2.05
   0 -12 -12   12.36    2.24
 -12   0  12   10.04    2.04
  12 -12  12    8.71    1.81
  12 -12  12   11.23    2.06
  -3 -12 -12   74.65    4.74
  -3 -12 -12   72.18    4.33
  -3 -12 -12   66.16    4.18
  12 -15  12   66.37    4.24
 -15   3  12   70.76    4.02
  12 -15  12   66.09    4.66
 -15   3  12   61.16    4.07
 -13  -1 -12  106.89    4.77
   1 -14  12  106.34    4.62
  13   1  12   99.69    4.52
   1 -14  12  107.01    5.14
   1 -14  12  103.58    5.08
 -13   2 -12   29.61    2.39
  11 -13 -12   32.15    3.18
  13  -2  12   28.46    2.63
  -2 -11  12   31.59    2.82
  -2 -11  12   32.23    2.83
  -2 -11  12   29.56    2.75
   8 -13 -12   97.58    4.85
  13  -5  12  102.01    4.55
  -5  -8  12   92.14    4.00
  -5  -8  12  102.86    4.26
 -13   8 -12    0.02    1.35
   5 -13 -12   -0.90    1.52
  -8  -5  12   -0.79    1.30
  13  -8  12    1.48    1.43
  -8  -5  12    0.99    1.18
 -13  11 -12   -0.82    1.73
   2 -13 -12    0.79    1.68
   2 -13 -12    0.40    1.68
  13 -11  12    1.57    1.58
 -11  -2  12    0.06    1.44
 -11  -2  12   -0.60    1.35
  -1 -13 -12   11.72    2.42
  -1 -13 -12   13.00    2.46
  -1 -13 -12    9.30    2.44
 -14   1  12   11.14    2.25
 -14   1  12   17.79    2.28
  13 -14  12   15.41    2.43
  13 -14  12   13.73    2.45
 -14   1 -12    4.70    1.67
  -1 -13  12    3.00    1.86
  -1 -13  12    5.45    1.86
  14  -1  12    7.57    1.90
  -1 -13  12    4.82    1.98
  10 -14 -12   -1.80    1.71
  14  -4  12    0.58    1.60
  -4 -10  12   -1.06    1.40
  -4 -10  12    0.63    1.40
  -4 -10  12    0.73    1.38
 -14   7 -12   43.88    3.31
   7 -14 -12   49.73    4.03
  -7  -7  12   42.41    3.26
  14  -7  12   47.99    3.54
  -7  -7  12   42.96    3.10
   4 -14 -12    1.26    1.81
 -14  10 -12    1.31    1.77
  14 -10  12    0.69    1.59
 -10  -4  12    0.17    1.34
 -10  -4  12    1.72    1.48
   1 -14 -12   32.92    3.52
   1 -14 -12   29.74    3.17
   1 -14 -12   25.54    3.13
  14 -13  12   29.75    3.20
 -13  -1  12   27.88    3.05
 -13  -1  12   28.40    2.62
  12 -15 -12   11.61    2.62
  15  -3  12   17.71    2.56
  -3 -12  12   15.91    2.59
  -3 -12  12   19.34    2.49
  -3 -12  12   15.13    2.45
   9 -15 -12   17.46    2.93
  15  -6  12   22.58    2.81
  -6  -9  12   17.29    2.17
  -6  -9  12   22.73    2.58
  -6  -9  12   15.40    2.24
   6 -15 -12    0.37    1.91
 -15   9 -12    7.26    2.15
  15  -9  12    5.06    1.90
  -9  -6  12    4.61    1.66
  -9  -6  12    3.45    1.74
   3 -15 -12    8.69    2.48
 -15  12 -12    8.57    2.47
 -12  -3  12    8.13    2.18
 -12  -3  12    9.26    1.89
  15 -12  12    9.89    2.46
  11 -16 -12   -1.16    2.16
  -5 -11  12    0.07    1.57
  16  -5  12    0.32    1.98
  -5 -11  12   -0.88    1.78
  -5 -11  12    1.77    1.75
 -16   8 -12   14.11    2.38
   8 -16 -12   16.79    3.10
  16  -8  12   21.68    3.05
  -8  -8  12   16.72    2.32
  -8  -8  12   14.40    2.42
 -16  11 -12   18.30    2.98
   5 -16 -12   15.36    2.95
  16 -11  12   19.94    3.03
 -11  -5  12   15.38    2.56
 -11  -5  12   19.38    2.56
   0   1 -13   51.26    2.04
   1  -1 -13   54.55    1.95
   1  -1 -13   53.75    1.91
  -1   0 -13   56.04    1.82
  -1   0 -13   52.16    1.88
  -1   1  13   49.17    1.96
   1   0  13   53.52    1.92
   0  -1  13   55.32    2.00
  -1   3 -13  357.81    8.50
   3  -2 -13  356.55    8.38
  -3   2  13  350.61    8.47
  -2   2 -13   -0.99    0.63
   2   0 -13    1.40    0.69
  -2   2 -13    0.51    0.54
  -2   0  13    0.11    0.62
   2  -2  13    0.14    0.68
  -3  -2 -13    9.06    1.13
   5  -3 -13    7.71    1.08
  -2   5 -13    8.72    1.14
   2  -5  13    7.91    0.97
   3   2  13    7.57    1.10
   2  -5  13   10.12    1.02
  -5   3  13    8.06    1.20
  -3   1 -13  191.93    4.73
  -3   1 -13  196.33    4.83
   1   2 -13  190.41    5.04
   3  -1  13  193.60    5.10
  -1  -2  13  185.43    4.92
  -3   4 -13   90.13    3.09
   3  -4  13   91.22    2.93
  -4   1  13   92.87    3.00
  -4  -3 -13  203.78    5.07
  -3   7 -13  201.30    5.72
  -4  -3 -13  201.69    5.54
  -7   4  13  209.29    5.82
   3  -7  13  201.12    5.24
   3  -7  13  202.47    5.29
   4   3  13  206.67    5.44
   3  -7  13  203.68    5.02
   0   4 -13    7.98    1.05
   4  -4 -13    7.15    0.94
   0  -4  13    7.07    0.93
  -4   4  13    6.11    1.03
   4   0  13    7.44    1.09
  -4   3 -13  177.48    4.76
   4  -3  13  169.84    4.71
  -3  -1  13  176.39    4.69
  -4   6 -13  177.34    5.14
  -2  -4 -13  180.96    4.99
   4  -6  13  173.80    4.80
  -6   2  13  176.85    5.03
   4  -6  13  176.25    4.47
  -5  -4 -13  104.57    3.80
  -5  -4 -13  103.93    3.27
  -4   9 -13   89.02    3.74
   4  -9  13  102.83    3.55
  -9   5  13   95.98    3.90
   4  -9  13  101.50    3.27
   5   4  13  106.51    3.44
  -1   6 -13   24.23    1.74
   6  -5 -13   22.31    1.59
  -5  -1 -13   22.52    1.60
   5   1  13   22.18    1.68
   1  -6  13   22.10    1.61
  -6   5  13   21.97    1.74
   1  -6  13   20.97    1.31
  -5   2 -13   28.21    1.38
  -5   2 -13   25.74    1.58
   5  -2  13   24.68    1.70
  -5   5 -13   69.64    2.84
  -5   0  13   76.98    2.74
   5  -5  13   69.83    2.70
  -5   8 -13   15.34    1.77
  -3  -5 -13   19.17    1.55
  -3  -5 -13   18.22    1.79
  -8   3  13   21.70    2.05
   5  -8  13   18.86    1.62
   5  -8  13   18.07    1.48
   5  -8  13   16.41    1.48
   3   5  13   20.70    1.55
  -6  -5 -13   31.83    2.13
  -6  -5 -13   31.91    2.56
 -11   6  13   27.82    2.61
   5 -11  13   29.53    2.30
   6   5  13   31.40    1.99
   8  -6 -13   85.12    3.34
  -2   8 -13   88.84    3.39
  -6  -2 -13   84.49    3.25
   6   2  13   88.10    3.21
  -8   6  13   84.27    3.45
   2  -8  13   89.53    3.21
   2  -8  13   93.78    2.98
   1   5 -13   53.40    2.30
  -6   1 -13   54.72    2.13
   6  -1  13   54.32    2.40
  -1  -5  13   51.68    2.27
  -5   6  13   50.92    2.37
  -6   4 -13  112.35    3.69
   6  -4  13  114.23    3.69
  -4  -2  13  116.77    3.48
  -1  -6 -13    4.20    1.03
  -1  -6 -13    3.52    1.11
  -1  -6 -13    5.94    1.20
  -6   7 -13    5.71    1.26
  -7   1  13    3.93    1.09
   6  -7  13    3.59    0.98
  -4  -6 -13    2.60    1.24
  -4  -6 -13    3.85    1.19
  -6  10 -13    4.32    1.39
 -10   4  13    3.30    1.31
   6 -10  13    4.44    1.15
   6 -10  13    4.27    1.08
  -7  -6 -13   80.46    3.52
  -7  -6 -13   84.47    4.17
   6 -13  13   82.58    4.31
   6 -13  13   84.39    3.94
 -13   7  13   80.36    4.30
  -7  -3 -13    8.05    1.52
   3 -10  13    8.22    1.18
   7   3  13   10.33    1.42
   3 -10  13    7.34    1.39
 -10   7  13    9.41    1.82
   0   7 -13   19.46    1.70
  -7   0 -13   19.74    1.65
   0  -7  13   19.62    1.68
   0  -7  13   19.80    1.62
  -7   7  13   21.53    1.98
   7   0  13   22.54    1.79
  -7   3 -13  286.17    6.99
   4  -7 -13  267.12    7.47
  -3  -4  13  275.65    6.91
   7  -3  13  263.11    7.09
  -7   6 -13   58.68    2.80
   1  -7 -13   66.33    2.94
   7  -6  13   60.19    2.70
  -6  -1  13   62.34    2.55
  -2  -7 -13  266.38    7.32
  -2  -7 -13  271.00    7.09
  -7   9 -13  261.64    7.57
  -2  -7 -13  276.64    7.41
  -9   2  13  267.28    7.30
   7  -9  13  262.65    7.11
  -5  -7 -13   29.89    2.33
  -5  -7 -13   28.42    2.61
   7 -12  13   28.58    2.69
   7 -12  13   30.04    2.39
 -12   5  13   32.90    2.97
   7 -12  13   29.70    2.23
  -8  -7 -13   30.72    2.56
  -8  -7 -13   33.67    3.30
   7 -15  13   27.69    3.22
 -15   8  13   27.68    3.20
   7 -15  13   28.16    2.90
  -8  -4 -13   54.68    3.27
   8   4  13   50.82    2.63
   4 -12  13   46.83    2.47
   4 -12  13   51.50    3.37
   4 -12  13   51.62    3.09
 -12   8  13   46.05    3.40
  -8  -1 -13  153.47    4.72
   1  -9  13  151.83    4.53
   1  -9  13  149.71    4.77
   8   1  13  148.46    4.73
  -8   2 -13  146.74    4.18
  -2  -6  13  154.18    4.55
  -2  -6  13  152.01    4.58
   8  -2  13  154.15    4.74
  -8   5 -13   31.65    2.15
   3  -8 -13   27.06    2.24
   8  -5  13   35.70    2.16
   0  -8 -13   15.61    1.77
  -8   8 -13   14.75    1.79
   0  -8 -13   14.35    1.68
   0  -8 -13   14.41    1.75
   8  -8  13   15.07    1.68
  -8   0  13   14.32    1.63
  -3  -8 -13   23.09    2.10
  -3  -8 -13   25.41    2.24
  -3  -8 -13   25.64    2.43
   8 -11  13   24.37    2.29
 -11   3  13   27.15    2.50
   8 -11  13   26.37    2.20
  -6  -8 -13   -0.55    1.61
  -6  -8 -13   -0.67    1.32
   8 -14  13   -1.66    1.37
 -14   6  13   -0.84    1.40
   8 -14  13   -0.06    1.08
   8 -14  13    0.63    1.63
 -14   6  13   -1.02    1.54
  -9  -5 -13    1.07    1.67
   5 -14  13   -0.90    1.51
   5 -14  13   -0.15    1.56
  -9  -2 -13   40.88    2.80
   2 -11  13   45.89    2.94
   2 -11  13   44.83    2.51
   9   2  13   44.00    2.65
  -9   1 -13   87.19    3.15
  -1  -8  13   83.43    3.41
  -1  -8  13   91.37    3.39
   9  -1  13   82.49    3.40
   5  -9 -13    8.03    1.59
  -9   4 -13   11.04    1.43
   9  -4  13   11.93    1.58
  -4  -5  13   11.86    1.49
  -4  -5  13   11.39    1.41
  -9   7 -13  139.86    4.83
   2  -9 -13  137.92    4.92
  -7  -2  13  140.88    4.19
   9  -7  13  143.69    4.73
  -7  -2  13  141.88    4.65
  -1  -9 -13    1.81    1.29
  -1  -9 -13    1.21    1.22
  -9  10 -13    2.67    1.53
  -1  -9 -13    3.37    1.42
   9 -10  13    2.98    1.29
   9 -10  13    2.37    1.26
 -10   1  13    3.56    1.30
 -10   1  13    2.66    1.40
  -4  -9 -13   69.88    3.58
  -4  -9 -13   74.10    4.08
  -4  -9 -13   61.53    3.42
 -13   4  13   62.91    3.61
   9 -13  13   67.19    3.40
   9 -13  13   61.90    3.90
 -13   4  13   66.53    3.64
   9 -13  13   60.90    3.30
  -7  -9 -13    6.71    2.39
  -7  -9 -13    8.20    2.00
   9 -16  13   11.11    2.29
   9 -16  13    5.85    2.47
 -16   7  13   11.63    2.48
 -10  -6 -13    0.29    2.05
   6 -16  13    1.10    2.02
   6 -16  13   -2.07    1.98
 -10  -3 -13   38.68    3.11
   3 -13  13   41.12    3.36
   3 -13  13   35.28    2.63
  10   3  13   37.41    2.68
   3 -13  13   33.01    2.87
 -10   0 -13    9.48    1.55
   0 -10  13   14.81    1.76
   0 -10  13   17.05    1.94
  10   0  13   15.89    1.87
 -10   3 -13   40.65    2.05
   7 -10 -13   45.87    3.09
  -3  -7  13   40.19    2.54
  -3  -7  13   39.06    2.47
  10  -3  13   41.06    2.64
   4 -10 -13   19.64    2.17
 -10   6 -13   26.79    2.31
  10  -6  13   30.88    2.37
  -6  -4  13   26.99    2.24
  -6  -4  13   26.64    2.11
 -10   9 -13   15.21    2.13
   1 -10 -13   11.66    1.81
   1 -10 -13   15.94    2.02
   1 -10 -13   17.89    2.10
  10  -9  13   18.14    1.77
  -9  -1  13   17.33    1.70
  10  -9  13   15.51    1.94
  -9  -1  13   16.81    1.97
  -2 -10 -13   10.12    1.91
  -2 -10 -13    9.67    1.85
  -2 -10 -13   10.58    1.85
 -12   2  13    6.94    1.78
 -12   2  13    9.76    1.83
  10 -12  13    8.88    1.74
  10 -12  13   12.17    1.95
  -5 -10 -13    7.58    1.97
  -5 -10 -13    5.52    2.21
  10 -15  13    4.09    1.71
  10 -15  13    3.21    2.15
 -15   5  13    5.11    1.80
  10 -15  13    5.05    1.70
 -15   5  13    5.66    1.97
 -11  -4 -13   18.78    2.65
   4 -15  13   19.87    2.92
   4 -15  13   15.25    2.63
 -11  -1 -13    1.85    1.43
  11   1  13    3.27    1.40
   1 -12  13    1.16    1.44
   1 -12  13    1.29    1.34
   1 -12  13    2.87    1.32
 -11   2 -13    2.99    1.12
   9 -11 -13    0.65    1.38
  -2  -9  13    2.91    1.26
  -2  -9  13    1.43    1.18
  11  -2  13    2.74    1.32
   6 -11 -13    0.30    1.32
 -11   5 -13    1.99    1.22
  -5  -6  13   -0.82    0.99
  11  -5  13    1.74    1.25
  -5  -6  13    0.82    1.02
 -11   8 -13   27.91    2.59
   3 -11 -13   27.81    2.67
  -8  -3  13   32.14    2.42
  11  -8  13   28.02    2.56
  -8  -3  13   29.20    2.43
 -11  11 -13    9.29    2.08
   0 -11 -13    7.92    1.80
   0 -11 -13   10.43    2.02
   0 -11 -13    9.14    1.91
 -11   0  13    6.37    1.42
  11 -11  13   12.06    1.85
  11 -11  13   12.01    1.90
 -11   0  13    6.33    1.69
  -3 -11 -13   57.03    3.78
  -3 -11 -13   59.72    3.81
  -3 -11 -13   61.48    4.26
 -14   3  13   60.53    3.76
 -14   3  13   54.28    3.75
  11 -14  13   59.03    4.12
  11 -14  13   66.47    3.87
 -12  -2 -13   49.40    3.66
  12   2  13   48.35    3.17
   2 -14  13   46.62    3.80
   2 -14  13   59.81    3.41
   2 -14  13   49.53    3.84
 -12   1 -13   16.36    1.95
  -1 -11  13   16.25    2.05
  -1 -11  13   16.23    2.12
  -1 -11  13   13.45    1.97
  12  -1  13   11.71    1.94
   8 -12 -13  152.78    5.82
 -12   4 -13  148.13    4.39
  -4  -8  13  148.67    5.10
  12  -4  13  153.02    5.44
  -4  -8  13  149.65    5.14
   5 -12 -13    2.73    1.58
 -12   7 -13   -0.66    1.33
  -7  -5  13    1.64    1.17
  12  -7  13    1.87    1.33
  -7  -5  13    4.43    1.48
   2 -12 -13   40.95    3.35
 -12  10 -13   45.38    3.60
  12 -10  13   44.67    2.86
 -10  -2  13   44.38    3.00
 -10  -2  13   52.09    3.32
  12 -10  13   46.32    3.30
  -1 -12 -13    7.92    2.18
  -1 -12 -13   12.27    2.25
  -1 -12 -13    8.25    2.19
  12 -13  13   14.17    2.17
  12 -13  13   14.92    2.36
 -13   1  13    8.22    2.03
 -13   1  13   12.37    1.89
 -13   0 -13   41.20    3.21
  13   0  13   40.92    3.21
   0 -13  13   42.76    3.32
   0 -13  13   47.17    3.56
   0 -13  13   39.91    3.35
 -13   3 -13    7.48    1.35
  10 -13 -13    7.54    2.14
  13  -3  13    6.80    1.84
  -3 -10  13    5.41    1.68
  -3 -10  13    7.99    1.75
   7 -13 -13    7.79    2.15
 -13   6 -13   10.13    1.78
  13  -6  13    9.07    1.82
  -6  -7  13    5.20    1.51
  -6  -7  13    9.74    1.88
 -13   9 -13   47.44    3.55
   4 -13 -13   39.09    3.48
  -9  -4  13   51.02    3.36
  13  -9  13   46.14    3.37
  -9  -4  13   43.93    3.01
   1 -13 -13   68.97    4.20
   1 -13 -13   65.22    4.32
   1 -13 -13   68.79    4.06
 -13  12 -13   61.45    4.46
 -12  -1  13   70.40    3.70
  13 -12  13   73.14    3.93
 -12  -1  13   66.88    4.01
  13 -12  13   56.68    3.91
  -2 -13 -13   14.27    2.70
  -2 -13 -13   15.38    2.94
  -2 -13 -13   18.03    2.85
 -15   2  13   17.60    2.73
  13 -15  13   17.60    2.72
  13 -15  13   18.62    2.82
 -14   2 -13   60.77    3.40
  14  -2  13   67.31    4.03
  -2 -12  13   63.55    3.92
  -2 -12  13   66.12    3.88
  -2 -12  13   61.34    4.01
   9 -14 -13   -0.23    1.74
  14  -5  13    0.53    1.53
  -5  -9  13    2.44    1.50
  -5  -9  13    3.14    1.55
   6 -14 -13   72.58    4.53
 -14   8 -13   63.26    3.90
  -8  -6  13   68.03    3.69
  14  -8  13   78.52    4.24
  -8  -6  13   70.76    3.88
 -14  11 -13   14.85    2.68
   3 -14 -13   12.66    2.51
 -11  -3  13   13.99    2.27
 -11  -3  13   11.50    2.03
  14 -11  13   17.95    2.54
   0 -14 -13   17.96    3.12
   0 -14 -13   18.65    2.96
   0 -14 -13   17.77    2.87
 -14   0  13   20.28    2.79
 -14   0  13   15.25    2.30
  14 -14  13   18.17    2.84
  11 -15 -13   21.26    3.18
  -4 -11  13   17.25    2.47
  -4 -11  13   17.14    2.51
  15  -4  13   18.63    2.73
  -4 -11  13   16.56    2.29
   8 -15 -13   32.53    3.54
 -15   7 -13   36.92    2.98
  15  -7  13   33.30    3.29
  -7  -8  13   36.41    3.06
  -7  -8  13   31.24    2.58
  -7  -8  13   38.08    3.21
 -15  10 -13    4.74    2.02
   5 -15 -13    7.83    2.48
 -10  -5  13    5.43    1.84
  15 -10  13    3.49    1.97
 -10  -5  13    5.32    1.93
   2 -15 -13    6.74    2.41
 -15  13 -13    3.65    2.56
 -13  -2  13    6.89    2.15
  15 -13  13    8.34    2.45
 -13  -2  13    4.72    1.99
  10 -16 -13    2.44    2.36
  16  -6  13    2.13    1.91
  -6 -10  13    0.05    1.80
  -6 -10  13    0.86    1.57
  -6 -10  13    3.16    1.83
 -16   9 -13    7.16    2.21
   7 -16 -13    6.26    2.36
  -9  -7  13    5.96    1.90
  16  -9  13    6.91    2.48
  -9  -7  13    5.79    2.10
  -1   1 -14   -1.11    0.52
  -1   1 -14    0.18    0.64
   0  -1 -14   -0.37    0.53
   1   0 -14   -0.26    0.61
   1   0 -14   -0.61    0.59
   0   1  14   -0.39    0.56
   1  -1  14    0.00    0.56
  -1   0  14    0.69    0.62
   0   2 -14   21.78    1.53
   2  -2 -14   20.74    1.37
   2  -2 -14   20.67    1.33
  -2   2  14   20.79    1.42
   2   0  14   21.24    1.31
   0  -2  14   21.52    1.41
  -2   3 -14  258.15    6.50
  -3   1  14  257.11    6.45
   2  -3  14  257.76    6.44
  -1   4 -14  273.68    6.82
   4  -3 -14  268.04    6.64
   1  -4  14  274.85    6.59
  -4   3  14  261.88    6.77
   3   1  14  266.17    6.78
   1  -4  14  262.12    6.36
   2   1 -14  246.31    6.23
  -3   2 -14  254.51    6.09
  -3   2 -14  246.07    6.16
  -2  -1  14  244.35    6.19
   3  -2  14  242.20    6.27
  -3   5 -14   19.93    1.62
  -5   2  14   14.04    1.43
   3  -5  14   19.80    1.27
   3  -5  14   21.86    1.46
   6  -4 -14   76.86    2.91
  -2   6 -14   82.82    3.10
  -4  -2 -14   79.78    2.95
  -6   4  14   76.36    3.07
   2  -6  14   83.04    2.78
   2  -6  14   85.26    2.67
   4   2  14   87.98    2.98
   1   3 -14  162.01    4.50
   4  -1  14  155.58    4.49
  -4   4 -14    0.45    0.77
   4  -4  14   -0.40    0.62
  -4   0  14    0.39    0.75
  -4   7 -14  169.01    5.09
  -3  -4 -14  166.41    4.89
   4  -7  14  164.43    4.89
   3   4  14  172.78    4.75
   4  -7  14  163.06    4.44
  -7   3  14  161.89    5.00
   4  -7  14  171.77    4.66
  -3   8 -14   23.41    1.98
  -5  -3 -14   23.08    1.96
   3  -8  14   25.00    1.85
  -8   5  14   19.62    1.94
   3  -8  14   21.21    1.52
   3  -8  14   25.39    1.57
   5   3  14   24.43    1.86
   0   5 -14    3.72    0.91
  -5   0 -14    3.97    0.88
   0  -5  14    5.41    0.96
   0  -5  14    3.87    0.79
  -5   5  14    4.32    1.02
   5   0  14    7.04    1.08
  -5   3 -14    1.99    0.65
  -5   3 -14    2.92    0.91
  -3  -2  14    1.45    0.74
   5  -3  14    2.76    0.87
  -5   6 -14   -0.46    0.84
  -1  -5 -14    0.24    0.86
  -6   1  14   -0.17    0.81
   5  -6  14    0.67    0.77
  -5   9 -14   12.08    1.72
  -4  -5 -14   12.07    1.39
  -4  -5 -14    9.56    1.57
   5  -9  14   14.79    1.43
   4   5  14   12.24    1.34
   5  -9  14   12.77    1.44
  -9   4  14   17.91    2.05
  -6  -4 -14    0.43    1.11
 -10   6  14    1.81    1.25
   6   4  14    1.64    0.95
   4 -10  14   -0.61    0.96
  -6  -1 -14   46.77    2.24
  -1   7 -14   41.34    2.31
   7  -6 -14   40.99    2.10
   1  -7  14   44.73    2.16
   1  -7  14   46.68    2.27
   6   1  14   43.94    2.32
  -7   6  14   43.95    2.41
  -6   2 -14   12.80    1.26
   6  -2  14   12.02    1.37
  -6   5 -14   11.83    1.42
   6  -5  14    6.21    1.11
  -5  -1  14    8.58    1.18
  -2  -6 -14  123.14    4.23
  -6   8 -14  120.55    4.36
  -2  -6 -14  123.49    3.94
  -8   2  14  124.72    4.22
   6  -8  14  126.10    3.98
  -5  -6 -14    0.96    1.24
  -5  -6 -14    0.48    1.03
 -11   5  14    1.34    1.30
   6 -11  14    0.38    1.12
   6 -11  14    0.30    0.94
   5   6  14    1.20    0.88
  -7  -5 -14   11.24    1.48
  -7  -5 -14   10.70    1.91
   5 -12  14   10.57    1.82
   7   5  14    8.31    1.32
 -12   7  14    8.03    1.89
   5 -12  14    9.87    1.87
  -7  -2 -14  149.82    4.73
  -9   7  14  146.07    5.03
   7   2  14  151.74    4.63
   2  -9  14  148.59    4.37
   2  -9  14  152.10    4.68
  -7   1 -14   20.25    1.56
   1   6 -14   22.05    1.75
  -1  -6  14   19.54    1.67
  -1  -6  14   21.10    1.71
  -6   7  14   22.20    1.93
   7  -1  14   19.88    1.75
  -7   4 -14  273.46    7.11
   7  -4  14  272.75    7.20
  -7   7 -14    0.69    1.09
   0  -7 -14    0.48    1.02
  -7   0  14    1.64    0.90
   7  -7  14    1.08    0.89
  -3  -7 -14   30.09    2.31
  -3  -7 -14   26.93    2.38
  -7  10 -14   23.94    2.43
 -10   3  14   31.59    2.44
   7 -10  14   25.44    2.08
  -6  -7 -14   23.53    2.20
  -6  -7 -14   19.82    2.48
   7 -13  14   20.72    2.52
   7 -13  14   27.89    2.54
   7 -13  14   26.38    2.07
 -13   6  14   23.80    2.59
  -8  -6 -14   69.74    4.17
  -8  -6 -14   60.57    3.19
 -14   8  14   73.68    4.39
   6 -14  14   70.45    3.91
   6 -14  14   67.29    4.22
  -8  -3 -14   43.33    2.88
   8   3  14   47.98    2.55
   3 -11  14   44.77    2.38
   3 -11  14   41.85    2.89
   8  -8 -14   37.26    2.05
  -8   0 -14   39.73    2.23
   0  -8  14   39.48    2.38
   8   0  14   41.97    2.39
   0  -8  14   38.51    2.26
  -8   3 -14    2.60    0.96
  -3  -5  14    1.50    0.94
   8  -3  14    1.79    0.96
  -3  -5  14    1.37    0.97
  -8   6 -14   16.72    1.81
   2  -8 -14   21.48    2.05
   8  -6  14   18.40    1.75
  -6  -2  14   22.65    1.73
  -1  -8 -14   37.35    2.54
  -1  -8 -14   44.96    2.77
  -8   9 -14   34.76    2.78
  -1  -8 -14   34.54    2.54
   8  -9  14   36.70    2.43
  -9   1  14   31.80    2.42
  -4  -8 -14   97.90    4.35
  -4  -8 -14   90.28    3.86
   8 -12  14   93.31    3.78
 -12   4  14   98.36    4.21
   8 -12  14   92.67    4.32
   8 -12  14   93.10    3.75
  -7  -8 -14    5.59    2.16
  -7  -8 -14    8.04    1.87
 -15   7  14    8.71    2.47
 -15   7  14    7.28    1.89
   8 -15  14    6.61    2.22
   8 -15  14   10.00    2.18
  -9  -7 -14    6.90    2.43
 -16   9  14    7.62    2.56
   7 -16  14    7.74    2.30
   7 -16  14    8.46    2.67
  -9  -4 -14   31.86    2.89
   4 -13  14   27.08    2.85
   4 -13  14   32.03    2.85
   9   4  14   29.54    2.33
  -9  -1 -14   10.96    1.61
   1 -10  14    6.50    1.29
   9   1  14   10.10    1.50
   1 -10  14    8.67    1.49
  -9   2 -14  162.13    4.57
  -2  -7  14  156.10    4.91
  -2  -7  14  156.57    4.86
   9  -2  14  166.53    5.13
  -9   5 -14   10.86    1.51
   4  -9 -14   15.28    1.85
  -5  -4  14   12.57    1.51
   9  -5  14   11.87    1.55
  -5  -4  14   14.21    1.66
  -9   8 -14  104.10    4.19
   1  -9 -14   98.36    4.14
   9  -8  14  106.79    4.01
  -8  -1  14  101.27    3.59
  -2  -9 -14   16.90    2.01
  -2  -9 -14   15.36    2.09
  -9  11 -14   16.59    2.27
  -2  -9 -14   11.31    1.81
   9 -11  14   13.78    1.92
   9 -11  14   16.16    1.91
 -11   2  14   12.35    1.90
 -11   2  14   15.54    2.02
  -5  -9 -14    7.12    2.12
  -5  -9 -14    7.70    1.78
   9 -14  14    5.51    2.01
 -14   5  14    7.78    1.93
 -14   5  14    6.77    1.92
   9 -14  14    7.67    1.82
   9 -14  14    5.84    1.67
 -10  -5 -14   -0.45    1.76
   5 -15  14    2.36    1.86
   5 -15  14   -0.58    1.84
 -10  -2 -14   30.80    2.63
   2 -12  14   28.61    2.35
   2 -12  14   29.09    2.61
   2 -12  14   32.13    2.84
  10   2  14   27.71    2.42
 -10   1 -14    7.33    1.34
  -1  -9  14    6.28    1.36
  -1  -9  14    4.67    1.31
  10  -1  14    4.49    1.42
 -10   4 -14   -0.32    0.94
   6 -10 -14    2.75    1.39
  10  -4  14    1.46    1.12
  -4  -6  14    2.72    1.12
  -4  -6  14    1.99    1.13
   3 -10 -14   27.46    2.42
 -10   7 -14   28.54    2.50
  -7  -3  14   25.15    2.21
  10  -7  14   26.74    2.28
  -7  -3  14   30.98    2.27
   0 -10 -14    0.89    1.30
 -10  10 -14    0.37    1.31
   0 -10 -14   -0.70    1.34
   0 -10 -14   -0.61    1.25
 -10   0  14   -0.30    1.03
  10 -10  14    0.51    1.21
  10 -10  14    0.56    1.16
 -10   0  14   -1.36    1.12
  -3 -10 -14    0.31    1.59
  -3 -10 -14   -0.17    1.39
  -3 -10 -14    0.11    1.41
 -13   3  14    0.57    1.57
  10 -13  14   -2.31    1.43
 -13   3  14   -1.38    1.38
  10 -13  14   -0.87    1.35
  -6 -10 -14    1.56    1.69
  -6 -10 -14   -1.04    2.14
 -16   6  14    1.67    1.72
  10 -16  14    0.13    2.28
 -16   6  14    3.22    2.10
 -11  -3 -14    1.50    1.60
  11   3  14    0.15    1.27
   3 -14  14   -2.16    1.56
   3 -14  14   -1.08    1.51
 -11   0 -14    2.23    1.24
  11   0  14    4.48    1.51
   0 -11  14    5.19    1.48
   0 -11  14    2.73    1.41
   8 -11 -14   41.13    3.31
 -11   3 -14   45.29    2.29
  11  -3  14   47.45    2.96
  -3  -8  14   42.61    2.83
  -3  -8  14   43.00    2.73
   5 -11 -14    0.26    1.38
 -11   6 -14    0.47    1.25
  -6  -5  14    0.18    1.16
  -6  -5  14    1.19    1.08
  11  -6  14    0.21    1.13
 -11   9 -14   89.46    4.32
   2 -11 -14   89.71    4.33
  -9  -2  14   89.89    3.80
  -9  -2  14   98.47    4.14
  11  -9  14   94.00    3.66
  11  -9  14   85.70    4.05
  -1 -11 -14   13.63    2.17
  -1 -11 -14   13.24    2.35
  -1 -11 -14   15.77    2.29
 -12   1  14   10.90    1.83
  11 -12  14   14.16    2.05
  11 -12  14   17.72    2.24
 -12   1  14   17.46    2.37
  -4 -11 -14   19.34    2.42
  -4 -11 -14   17.11    2.79
  -4 -11 -14   14.32    2.45
 -15   4  14   15.74    2.47
  11 -15  14   11.72    2.28
 -15   4  14   15.76    2.62
  11 -15  14   13.96    2.65
 -12  -1 -14   55.30    3.60
   1 -13  14   58.70    3.87
  12   1  14   58.61    3.51
   1 -13  14   64.91    3.52
   1 -13  14   67.03    3.93
 -12   2 -14    0.55    1.04
  -2 -10  14    0.93    1.34
  12  -2  14   -0.75    1.31
  -2 -10  14    2.02    1.41
   7 -12 -14   23.64    2.66
  12  -5  14   26.94    2.56
  -5  -7  14   22.32    2.32
  -5  -7  14   24.04    2.28
 -12   8 -14   47.33    3.27
   4 -12 -14   43.18    3.50
  12  -8  14   48.22    3.23
  -8  -4  14   41.16    2.85
  -8  -4  14   42.71    3.06
 -12  11 -14   -1.19    1.59
   1 -12 -14    1.29    1.59
  12 -11  14    1.52    1.62
  12 -11  14    2.81    1.41
 -11  -1  14    1.89    1.46
 -11  -1  14    2.63    1.65
  -2 -12 -14   69.59    4.29
  -2 -12 -14   64.28    4.19
  -2 -12 -14   71.55    4.63
 -14   2  14   74.30    4.24
  12 -14  14   71.51    4.41
 -14   2  14   68.48    3.79
 -13  -2 -14    9.03    2.18
   2 -15  14    4.69    2.36
 -13   1 -14   13.39    1.88
  -1 -12  14    7.80    1.88
  13  -1  14   14.80    2.35
  -1 -12  14    7.21    1.98
  -1 -12  14   13.69    2.10
   9 -13 -14   73.94    4.45
  -4  -9  14   73.25    3.78
  -4  -9  14   72.29    3.66
  13  -4  14   72.62    3.96
 -13   7 -14   43.30    3.15
   6 -13 -14   41.47    3.52
  13  -7  14   45.29    3.31
  -7  -6  14   48.75    3.26
  -7  -6  14   42.50    2.95
   3 -13 -14   26.71    3.02
 -13  10 -14   21.62    2.81
 -10  -3  14   26.80    2.69
  13 -10  14   29.83    2.98
 -10  -3  14   29.54    2.64
   0 -13 -14    1.82    1.77
   0 -13 -14    2.97    1.89
   0 -13 -14    6.71    2.20
 -13   0  14    4.13    1.81
 -13   0  14    4.25    1.87
  13 -13  14    3.64    1.82
  13 -13  14    2.12    1.90
 -14   0 -14   18.83    2.50
   0 -14  14   19.08    2.88
  14   0  14   19.66    2.64
   0 -14  14   18.16    2.51
   0 -14  14   16.00    2.60
  14  -3  14   42.41    3.54
  -3 -11  14   38.12    3.16
  -3 -11  14   39.86    3.27
  -3 -11  14   33.23    3.08
   8 -14 -14    8.07    2.27
  -6  -8  14   10.56    1.98
  -6  -8  14   10.01    1.96
  14  -6  14   10.21    2.24
   5 -14 -14    1.09    1.79
 -14   9 -14   -1.60    1.51
  -9  -5  14   -0.35    1.39
  14  -9  14    0.78    1.63
  -9  -5  14    1.50    1.51
   2 -14 -14   49.08    4.11
 -14  12 -14   49.95    4.20
 -12  -2  14   51.17    3.51
 -12  -2  14   50.34    3.91
  14 -12  14   58.97    4.08
  -2 -13  14   16.85    2.68
  -2 -13  14   20.37    2.74
  15  -2  14   26.93    3.16
  10 -15 -14    1.69    2.14
  15  -5  14    1.53    1.92
  -5 -10  14    2.49    1.70
  -5 -10  14    1.70    1.75
  -5 -10  14    2.90    1.64
   7 -15 -14   25.09    3.25
 -15   8 -14   24.43    2.85
  -8  -7  14   19.41    2.61
  -8  -7  14   23.72    2.63
  15  -8  14   21.36    2.87
   4 -15 -14    0.83    2.07
 -15  11 -14   -0.39    1.95
 -11  -4  14    3.31    1.78
 -11  -4  14   -1.15    1.46
  15 -11  14   -0.84    1.90
   9 -16 -14   -1.63    2.16
  -7  -9  14   -0.19    1.79
  -7  -9  14    0.99    1.50
  16  -7  14    1.47    2.08
  -7  -9  14    0.12    1.59
   6 -16 -14    7.06    2.69
 -16  10 -14    5.75    2.38
 -10  -6  14   10.28    2.30
  16 -10  14    6.37    2.41
 -10  -6  14    6.04    2.01
   0   0 -15    4.87    0.82
   0   0 -15    2.95    0.69
   0   0  15    3.08    0.76
  -1   2 -15   64.19    2.46
   2  -1 -15   64.78    2.38
   2  -1 -15   65.62    2.33
  -2   1  15   66.53    2.42
  -2   1 -15   23.41    1.49
  -2   1 -15   26.95    1.41
   1   1 -15   26.70    1.65
  -1  -1  15   24.42    1.52
  -1   2  15   28.14    1.50
  -2   4 -15  169.35    4.76
   4  -2 -15  170.91    4.69
  -4   2  15  160.80    4.68
   2  -4  15  167.46    4.60
   2  -4  15  170.82    4.28
   3  -3 -15    4.34    0.78
   0   3 -15    3.36    0.85
   3  -3 -15    3.22    0.77
  -3   3  15    3.97    0.92
   3   0  15    2.30    0.90
  -3   3 -15    6.54    1.05
   3  -3  15    7.59    1.05
  -3   0  15    6.32    1.00
  -3   6 -15  104.92    3.63
  -3  -3 -15   96.51    3.42
   3  -6  15   98.38    3.09
   3  -6  15  101.29    3.23
   3   3  15  105.90    3.45
  -6   3  15  103.33    3.56
  -1   5 -15    2.93    0.87
   5  -4 -15    1.97    0.79
   1  -5  15    2.07    0.75
   4   1  15    2.92    0.88
   1  -5  15    3.67    0.84
  -5   4  15    3.60    0.93
  -4   2 -15  233.12    5.65
   2   2 -15  219.53    5.86
  -4   2 -15  228.25    5.75
   4  -2  15  222.70    5.92
  -2  -2  15  217.24    5.76
  -4   5 -15    7.27    1.21
   4  -5  15    7.08    1.06
  -5   1  15    8.24    1.25
  -4   8 -15  100.83    3.84
  -4  -4 -15   98.91    3.67
  -8   4  15   97.15    3.79
   4  -8  15  101.31    3.29
   4  -8  15   99.49    3.31
   4   4  15  100.56    3.43
  -2   7 -15    5.89    1.19
  -5  -2 -15    4.55    1.12
   7  -5 -15    4.70    1.10
   2  -7  15    4.79    1.02
   5   2  15    6.29    1.18
   2  -7  15    5.09    0.91
  -7   5  15    5.27    1.20
   1   4 -15    6.19    1.05
   5  -1  15    5.23    1.02
  -4   5  15    5.12    1.08
  -5   4 -15    5.67    1.05
   5  -4  15    6.61    1.14
  -4  -1  15    7.24    1.06
  -5   7 -15    9.44    1.41
  -2  -5 -15    7.19    1.27
  -7   2  15   10.14    1.41
   5  -7  15    6.90    1.10
  -5  -5 -15    6.36    1.21
  -5  -5 -15    5.68    1.44
   5 -10  15    7.01    1.34
   5   5  15    7.97    1.28
 -10   5  15    5.01    1.49
   5 -10  15    6.83    1.22
  -6  -3 -15    6.44    1.38
   3  -9  15    6.56    1.27
   6   3  15    7.45    1.32
   3  -9  15    5.51    1.03
  -9   6  15    6.54    1.50
  -6   0 -15   35.80    1.93
   0   6 -15   33.32    2.06
   6   0  15   34.73    2.13
   0  -6  15   32.98    2.00
  -6   6  15   33.61    2.16
  -6   3 -15   50.58    2.00
  -6   3 -15   49.65    2.25
   6  -3  15   44.58    2.32
  -6   6 -15   11.04    1.46
  -6   0  15   13.06    1.44
   6  -6  15    8.63    1.20
  -6   9 -15   77.57    3.70
  -3  -6 -15   79.54    3.12
  -3  -6 -15   81.01    3.47
   6  -9  15   86.28    3.02
   6  -9  15   80.56    3.15
   3   6  15   81.26    3.02
  -9   3  15   72.90    3.34
  -6  -6 -15   25.99    2.62
  -6  -6 -15   26.94    2.10
   6 -12  15   23.99    2.53
 -12   6  15   26.51    2.75
   6 -12  15   23.54    1.89
   6 -12  15   23.70    2.26
  -7  -4 -15    3.19    1.44
   7   4  15    5.63    1.22
   4 -11  15    4.23    1.37
 -11   7  15    2.95    1.57
   4 -11  15    5.63    1.14
   8  -7 -15   59.11    2.68
  -7  -1 -15   56.33    2.68
   1  -8  15   63.62    2.79
   7   1  15   63.32    2.84
  -8   7  15   58.37    2.97
   1  -8  15   65.37    2.65
  -2  -5  15    2.55    0.96
   7  -2  15    1.60    0.98
  -7   5 -15   24.26    1.97
  -5  -2  15   27.37    1.79
   7  -5  15   24.86    1.92
  -1  -7 -15   22.89    2.11
  -7   8 -15   22.32    2.12
  -8   1  15   24.92    2.17
   7  -8  15   26.90    2.04
  -4  -7 -15    5.23    1.38
  -4  -7 -15    5.50    1.65
   7 -11  15    6.31    1.32
 -11   4  15    4.39    1.52
   7 -11  15    7.57    1.40
  -7  -7 -15   14.14    2.38
  -7  -7 -15   14.61    1.97
   7 -14  15   14.11    2.45
   7 -14  15   15.33    2.31
 -14   7  15   21.08    2.71
  -8  -5 -15    5.54    1.87
   5 -13  15    2.62    1.64
   5 -13  15    3.51    1.61
   8   5  15    5.50    1.29
 -13   8  15    3.42    1.81
  -8  -2 -15    2.05    1.21
   2 -10  15    1.65    1.15
   2 -10  15    2.90    1.05
   8   2  15    0.44    1.00
  -8   1 -15   53.69    2.40
  -1  -7  15   52.98    2.58
   8  -1  15   49.69    2.64
  -1  -7  15   49.76    2.58
  -8   4 -15   55.68    2.66
   8  -4  15   62.28    2.79
  -4  -4  15   53.36    2.60
  -8   7 -15  135.73    4.73
   1  -8 -15  131.81    4.74
   8  -7  15  139.84    4.54
  -7  -1  15  134.19    4.27
  -8  10 -15   10.35    1.90
  -2  -8 -15    8.79    1.53
  -2  -8 -15    9.77    1.71
 -10   2  15   10.55    1.72
   8 -10  15    7.83    1.57
  -5  -8 -15   13.84    2.28
  -5  -8 -15   15.00    2.00
 -13   5  15   12.33    2.13
   8 -13  15   15.23    1.90
   8 -13  15   22.28    2.58
   8 -13  15   16.96    2.14
  -8  -8 -15   15.97    2.87
   8 -16  15   15.22    2.53
   8 -16  15   12.42    2.81
 -16   8  15   16.14    2.95
  -9  -6 -15   11.83    2.42
   6 -15  15   12.32    2.48
   6 -15  15   13.78    2.34
  -9  -3 -15   84.56    3.94
   3 -12  15   78.88    3.31
   3 -12  15   85.17    3.98
   9   3  15   77.83    3.52
  -9   0 -15    9.56    1.39
   0  -9  15    7.18    1.41
   9   0  15   11.81    1.65
   0  -9  15    7.58    1.46
   9  -3  15   40.31    2.54
  -3  -6  15   45.06    2.57
  -3  -6  15   44.33    2.53
   3  -9 -15   50.91    3.16
  -9   6 -15   61.47    3.04
   9  -6  15   56.55    2.91
  -6  -3  15   56.57    2.89
   0  -9 -15    0.96    1.26
  -9   9 -15   -1.58    1.22
   0  -9 -15   -0.56    1.18
  -9   0  15   -1.59    1.02
   9  -9  15   -0.53    1.11
  -3  -9 -15   65.01    3.49
  -3  -9 -15   58.02    3.64
 -12   3  15   54.98    3.40
 -12   3  15   62.63    3.46
   9 -12  15   58.69    3.32
   9 -12  15   60.75    3.67
  -6  -9 -15    2.98    1.68
  -6  -9 -15    5.28    2.12
 -15   6  15    6.49    2.24
   9 -15  15    0.97    1.67
   9 -15  15    3.86    2.21
 -15   6  15    6.54    1.90
 -10  -4 -15    2.39    1.66
   4 -14  15   -1.08    1.53
   4 -14  15   -0.71    1.65
 -10  -1 -15    8.08    1.50
  10   1  15    4.77    1.42
   1 -11  15    4.46    1.35
   1 -11  15    8.48    1.66
 -10   2 -15   43.12    2.33
  10  -2  15   47.42    2.86
  -2  -8  15   40.18    2.68
  -2  -8  15   50.24    2.80
   5 -10 -15    9.39    1.77
 -10   5 -15    6.73    1.41
  -5  -5  15    6.02    1.38
  -5  -5  15    7.82    1.44
  10  -5  15    8.10    1.56
 -10   8 -15    5.44    1.57
   2 -10 -15    8.73    1.79
  -8  -2  15    6.47    1.24
  -8  -2  15    6.04    1.49
  10  -8  15    5.25    1.48
  -1 -10 -15    4.42    1.62
  -1 -10 -15    6.36    1.72
 -10  11 -15    5.43    1.92
  -1 -10 -15    5.72    1.57
 -11   1  15    3.05    1.45
  10 -11  15    4.60    1.48
  10 -11  15    3.24    1.49
 -11   1  15    3.74    1.61
  -4 -10 -15   -1.61    1.47
  -4 -10 -15   -0.33    1.79
 -14   4  15   -0.44    1.63
 -14   4  15    0.35    1.64
  10 -14  15    0.11    1.68
  10 -14  15   -2.05    1.40
 -11  -2 -15   -1.14    1.33
   2 -13  15    0.95    1.55
   2 -13  15    0.50    1.55
  11   2  15   -0.19    1.35
   2 -13  15    0.45    1.23
 -11   1 -15   12.24    1.64
  -1 -10  15    8.50    1.71
  11  -1  15   11.37    1.86
  -1 -10  15    8.37    1.58
   7 -11 -15   47.41    3.46
  -4  -7  15   43.91    2.90
  11  -4  15   47.40    3.03
  -4  -7  15   50.52    2.84
   4 -11 -15   20.23    2.37
 -11   7 -15   22.94    2.36
  11  -7  15   20.23    2.25
  -7  -4  15   20.71    2.14
  -7  -4  15   17.66    1.95
   1 -11 -15   22.51    2.54
 -11  10 -15   26.76    2.78
 -10  -1  15   30.93    2.77
  11 -10  15   34.56    2.65
 -10  -1  15   31.93    2.30
  11 -10  15   32.51    2.81
  -2 -11 -15   19.86    2.49
  -2 -11 -15   20.38    2.62
  -2 -11 -15   20.54    2.71
  11 -13  15   18.23    2.34
  11 -13  15   19.76    2.52
 -13   2  15   17.81    2.48
 -13   2  15   20.10    2.48
 -12  -3 -15    0.31    1.77
   3 -15  15   -0.60    1.88
   3 -15  15    1.01    2.06
 -12   0 -15   23.02    2.40
   0 -12  15   26.64    2.81
   0 -12  15   22.09    2.36
   0 -12  15   25.62    2.68
  12   0  15   23.66    2.52
 -12   3 -15    5.77    1.20
  12  -3  15    5.13    1.69
  -3  -9  15    4.68    1.46
  -3  -9  15    4.44    1.48
 -12   6 -15   -1.43    1.13
   6 -12 -15   -1.39    1.50
  -6  -6  15    0.05    1.17
  12  -6  15   -1.44    1.21
  -6  -6  15    0.40    1.26
   3 -12 -15   44.69    3.58
 -12   9 -15   49.93    3.69
  -9  -3  15   58.37    3.27
  -9  -3  15   51.06    3.40
  12  -9  15   50.38    3.47
   0 -12 -15    2.65    1.84
 -12  12 -15   -0.43    1.76
   0 -12 -15    2.00    1.70
  12 -12  15   -0.32    1.42
 -12   0  15   -1.26    1.59
  12 -12  15   -1.05    1.50
  -3 -12 -15    8.87    2.51
  -3 -12 -15    5.16    2.07
  -3 -12 -15    3.40    2.03
  12 -15  15    5.40    2.17
  12 -15  15    4.30    2.06
 -15   3  15    6.83    2.21
 -15   3  15    7.01    2.13
 -13  -1 -15   25.16    2.83
   1 -14  15   22.72    2.61
   1 -14  15   24.46    2.86
   1 -14  15   22.44    2.90
  13   1  15   23.05    2.54
 -13   2 -15   19.90    2.03
  -2 -11  15   19.21    2.31
  13  -2  15   20.91    2.53
  -2 -11  15   14.72    2.20
   8 -13 -15   20.84    2.71
  -5  -8  15   20.60    2.27
  13  -5  15   22.33    2.66
  -5  -8  15   22.76    2.45
 -13   8 -15    5.93    1.80
   5 -13 -15    5.63    1.93
  -8  -5  15    5.74    1.71
  -8  -5  15    2.58    1.47
  13  -8  15    4.60    1.72
   2 -13 -15    6.87    2.05
 -13  11 -15    5.43    2.12
  13 -11  15    8.30    2.07
 -11  -2  15    7.77    1.84
 -11  -2  15    8.83    2.11
  -1 -13 -15   -1.33    2.08
  -1 -13 -15    4.05    2.01
  -1 -13 -15    0.05    1.95
  13 -14  15   -0.23    1.96
  13 -14  15    0.09    1.86
 -14   1  15    0.18    2.02
 -14   1 -15   18.95    2.28
  -1 -13  15   16.09    2.41
  14  -1  15   17.93    2.45
  -1 -13  15   18.23    2.62
  -1 -13  15   19.08    2.69
  14  -4  15    3.27    1.80
  -4 -10  15    3.30    1.61
  -4 -10  15    0.32    1.54
   7 -14 -15   56.69    4.24
 -14   7 -15   56.92    3.66
  -7  -7  15   60.36    3.74
  -7  -7  15   59.33    3.58
  14  -7  15   62.90    4.01
 -14  10 -15    0.06    1.84
   4 -14 -15    1.90    1.88
  14 -10  15    3.00    1.88
 -10  -4  15    1.31    1.50
 -10  -4  15    4.05    1.81
   1 -14 -15   31.52    3.50
 -13  -1  15   42.39    3.61
  14 -13  15   34.46    3.55
 -13  -1  15   38.71    3.23
  -3 -12  15   28.17    3.09
  -3 -12  15   24.68    2.88
  -3 -12  15   28.82    2.99
  15  -3  15   25.41    3.05
   9 -15 -15    2.30    2.22
  -6  -9  15   -0.52    1.53
  -6  -9  15   -0.36    1.54
  15  -6  15   -1.37    1.74
   6 -15 -15   -2.51    1.99
 -15   9 -15   -2.11    1.79
  15  -9  15   -0.13    1.84
  -9  -6  15    1.39    1.61
  -9  -6  15    0.28    1.52
 -15  12 -15    2.17    2.23
   3 -15 -15    6.62    2.39
  15 -12  15    0.18    2.10
 -12  -3  15    2.66    2.04
 -12  -3  15    2.10    1.80
 -16   8 -15   -0.20    1.82
   8 -16 -15    0.22    2.37
  -8  -8  15   -0.78    1.77
  16  -8  15    0.34    2.03
  -8  -8  15   -0.93    1.64
   0   1 -16   13.33    1.23
   0   1 -16   12.55    1.14
  -1   0 -16   13.65    1.12
  -1   0 -16   15.38    1.16
   1  -1 -16   16.39    1.27
   1  -1 -16   13.24    1.09
   0  -1  16   11.98    1.15
   1   0  16   14.31    1.19
  -1   1  16   12.35    1.18
   3  -2 -16    2.68    0.79
  -1   3 -16    2.33    0.84
   3  -2 -16    3.37    0.82
  -3   2  16    4.29    0.88
  -2   2 -16   20.86    1.38
  -2   2 -16   19.91    1.58
   2   0 -16   24.09    1.62
  -2   0  16   21.24    1.54
   2  -2  16   22.89    1.66
  -2   5 -16    4.64    1.12
   5  -3 -16    5.50    1.04
  -5   3  16    6.87    1.18
   2  -5  16    6.75    0.98
   3   2  16    5.52    1.12
   2  -5  16    6.17    0.92
  -3   1 -16   87.92    2.79
  -3   1 -16   91.89    2.73
   1   2 -16   89.48    3.07
  -2   3  16   91.53    2.95
   3  -1  16   85.77    3.10
  -1  -2  16   86.82    2.93
  -3   4 -16   -0.85    0.78
   3  -4  16    0.30    0.72
  -4   1  16   -1.11    0.71
   3  -4  16    0.62    0.58
  -3   7 -16   67.37    3.00
  -4  -3 -16   59.46    2.79
   4   3  16   70.98    2.78
  -7   4  16   69.06    3.01
   3  -7  16   64.27    2.55
   3  -7  16   64.12    2.51
   4  -4 -16    2.50    0.77
   4  -4 -16    0.80    0.69
   0   4 -16    2.26    0.78
  -4   4  16    2.45    0.90
   4   0  16    3.80    0.97
  -4   3 -16   54.61    2.37
  -4   3 -16   54.22    2.15
  -3  -1  16   49.72    2.26
   4  -3  16   56.03    2.39
  -4   6 -16   31.83    2.23
   4  -6  16   33.64    1.64
   4  -6  16   32.71    1.89
  -6   2  16   28.59    2.04
  -4   9 -16   -0.13    1.09
  -5  -4 -16   -0.53    0.97
   4  -9  16    0.32    0.80
   4  -9  16   -0.63    0.75
  -9   5  16    0.13    1.15
   5   4  16    0.12    0.92
   4  -9  16    1.02    0.99
   6  -5 -16    6.31    1.10
  -1   6 -16    7.13    1.17
   1  -6  16    8.31    1.11
   1  -6  16    5.79    0.95
   5   1  16    8.70    1.27
  -6   5  16    7.45    1.30
  -5   2 -16   24.86    1.42
  -5   2 -16   25.96    1.70
   2   3 -16   27.00    1.79
   5  -2  16   26.24    1.81
  -5   5 -16   27.46    2.07
   5  -5  16   25.12    1.84
  -5   0  16   29.41    1.90
  -3  -5 -16   59.10    2.86
  -5   8 -16   52.92    2.98
   3   5  16   55.03    2.58
   5  -8  16   56.63    2.35
  -8   3  16   55.67    2.84
   5  -8  16   57.89    2.55
  -6  -5 -16   18.15    2.06
  -6  -5 -16   19.12    1.74
   5 -11  16   15.06    1.85
 -11   6  16   18.60    2.40
   5 -11  16   16.19    1.65
   6   5  16   18.97    1.80
  -2   8 -16    0.71    0.97
  -6  -2 -16    1.14    1.02
   2  -8  16    0.54    0.86
  -8   6  16    1.42    1.06
   6   2  16    1.51    0.99
   2  -8  16    2.19    0.94
   1   5 -16    6.22    1.12
  -5   6  16    3.97    1.08
  -1  -5  16    3.06    0.96
   6  -1  16    7.64    1.23
  -6   4 -16    3.01    1.09
  -4  -2  16    5.96    1.08
   6  -4  16    4.28    1.05
  -6   7 -16   13.58    1.68
  -7   1  16   15.06    1.69
   6  -7  16   13.27    1.47
  -6  10 -16   25.87    2.48
  -4  -6 -16   22.71    2.19
 -10   4  16   22.86    2.37
   4   6  16   22.39    1.81
   6 -10  16   21.57    1.87
   6 -10  16   19.59    1.82
  -7  -6 -16   -0.27    1.14
  -7  -6 -16    2.94    1.73
   6 -13  16    1.49    1.46
   6 -13  16    1.00    1.58
 -13   7  16    1.71    1.68
  -7  -3 -16    2.75    1.24
   3 -10  16    4.52    1.08
   7   3  16    3.27    1.13
 -10   7  16    1.94    1.40
   3 -10  16    3.51    1.27
   0   7 -16    1.88    0.98
  -7   0 -16    3.62    1.06
   7   0  16    4.46    1.19
   0  -7  16    4.47    1.11
   0  -7  16    4.28    1.07
  -7   3 -16    0.73    0.89
  -7   3 -16   -0.04    0.53
   7  -3  16    0.47    0.94
  -7   6 -16    0.17    1.03
   7  -6  16    1.72    0.95
  -6  -1  16    1.19    0.92
  -2  -7 -16    1.01    1.17
  -7   9 -16   -0.92    1.04
   2   7  16   -0.62    0.95
   7  -9  16   -0.78    0.97
  -9   2  16    1.21    1.17
  -5  -7 -16   10.33    1.67
  -5  -7 -16    6.88    1.75
   7 -12  16   11.48    1.63
 -12   5  16    8.33    1.89
   7 -12  16    9.22    1.66
  -8  -7 -16    1.75    2.00
 -15   8  16    3.15    2.03
   7 -15  16   -1.66    1.88
   7 -15  16    0.09    1.82
  -8  -4 -16   24.63    2.55
   4 -12  16   29.96    2.20
   4 -12  16   30.08    2.58
   8   4  16   30.61    2.36
  -8  -1 -16    0.62    1.02
   1  -9  16    0.43    0.99
   1  -9  16    0.04    0.97
   8   1  16    1.42    1.12
  -2  -6  16   49.08    2.62
  -2  -6  16   54.26    2.65
   8  -2  16   48.49    2.64
  -8   5 -16    5.18    1.22
   8  -5  16    5.06    1.23
  -8   8 -16   21.41    2.24
   8  -8  16   24.48    2.10
  -8   0  16   23.40    2.00
  -3  -8 -16   24.10    2.49
  -3  -8 -16   27.55    2.33
 -11   3  16   33.87    2.86
   8 -11  16   28.19    2.40
  -6  -8 -16    8.36    2.16
  -6  -8 -16    7.69    1.72
 -14   6  16    6.16    2.11
   8 -14  16    6.37    1.99
   8 -14  16    4.10    1.74
  -9  -5 -16    0.08    1.69
   5 -14  16   -0.83    1.67
   5 -14  16   -1.23    1.64
  -9  -2 -16   18.02    2.06
   2 -11  16   14.86    1.71
   9   2  16   19.05    1.94
   2 -11  16   18.69    2.08
  -9   1 -16   42.37    2.34
   9  -1  16   40.81    2.66
  -1  -8  16   42.66    2.63
  -1  -8  16   43.95    2.59
  -9   4 -16   -0.23    0.99
  -4  -5  16    0.39    0.95
   9  -4  16    1.96    1.15
  -4  -5  16    0.07    1.04
   2  -9 -16   76.23    3.67
  -9   7 -16   73.14    3.51
   9  -7  16   71.35    3.34
  -7  -2  16   71.46    2.96
  -9  10 -16   -0.73    1.38
  -1  -9 -16    2.30    1.43
 -10   1  16    0.17    1.21
   9 -10  16    1.82    1.36
  -4  -9 -16   29.12    3.00
  -4  -9 -16   33.47    2.77
   9 -13  16   34.47    3.07
 -13   4  16   37.34    3.12
   9 -13  16   33.90    2.74
 -13   4  16   31.85    2.96
   9 -13  16   34.04    2.59
 -10  -3 -16   34.59    3.03
   3 -13  16   30.68    3.14
   3 -13  16   32.74    2.92
   3 -13  16   33.29    2.60
  10   3  16   28.14    2.49
 -10   0 -16   21.62    2.06
   0 -10  16   20.91    2.23
   0 -10  16   22.53    2.11
  10   0  16   21.98    2.22
  -3  -7  16   38.57    2.56
  -3  -7  16   36.09    2.46
  10  -3  16   31.80    2.56
 -10   6 -16    6.23    1.54
   4 -10 -16    8.34    1.78
  -6  -4  16    5.51    1.47
  10  -6  16    8.38    1.61
  -6  -4  16    6.99    1.44
 -10   9 -16   -1.23    1.30
   1 -10 -16   -1.14    1.24
  -9  -1  16    0.97    1.08
  -9  -1  16   -0.53    1.23
  10  -9  16   -1.35    1.24
  -2 -10 -16    2.60    1.75
  -2 -10 -16   -0.48    1.38
  10 -12  16    2.24    1.49
  10 -12  16    2.73    1.56
 -12   2  16    4.25    1.62
 -12   2  16    2.47    1.59
  -5 -10 -16    7.89    2.47
  -5 -10 -16   12.17    2.22
 -15   5  16    9.49    2.18
 -15   5  16    9.61    2.23
  10 -15  16   12.66    2.11
  10 -15  16    9.78    2.58
 -11  -4 -16    5.05    2.01
   4 -15  16    4.60    2.24
   4 -15  16    4.69    2.05
 -11  -1 -16    2.39    1.37
   1 -12  16    1.86    1.42
  11   1  16    0.08    1.33
   1 -12  16    3.25    1.60
 -11   2 -16    0.16    0.92
  -2  -9  16   -0.06    1.24
  -2  -9  16    0.42    1.16
  11  -2  16    1.28    1.35
   6 -11 -16   26.61    2.73
 -11   5 -16   32.49    2.45
  -5  -6  16   28.48    2.37
  11  -5  16   35.95    2.81
  -5  -6  16   32.05    2.55
 -11   8 -16    1.63    1.50
   3 -11 -16    2.84    1.65
  -8  -3  16    2.34    1.40
  -8  -3  16    2.93    1.33
  11  -8  16    5.87    1.68
 -11  11 -16   22.95    2.81
   0 -11 -16   19.73    2.50
  11 -11  16   17.50    2.10
  11 -11  16   19.54    2.40
 -11   0  16   23.47    2.63
 -11   0  16   18.79    2.11
  -3 -11 -16    1.46    1.73
  -3 -11 -16    1.09    1.91
  11 -14  16    0.12    1.64
 -14   3  16   -1.56    1.64
  11 -14  16   -0.25    1.64
 -14   3  16    0.03    1.72
 -12  -2 -16    2.13    1.73
   2 -14  16    2.77    1.77
  12   2  16    1.45    1.53
   2 -14  16    1.24    1.94
   2 -14  16    0.30    1.52
 -12   1 -16   -0.35    1.12
  -1 -11  16    2.93    1.44
  -1 -11  16    1.25    1.44
  12  -1  16    0.81    1.42
  -4  -8  16    1.24    1.35
  -4  -8  16    0.66    1.27
  12  -4  16    3.33    1.58
 -12   7 -16    0.46    1.38
   5 -12 -16    0.29    1.57
  -7  -5  16   -0.50    1.27
  -7  -5  16    1.25    1.34
  12  -7  16    0.30    1.41
 -12  10 -16   -0.45    1.67
   2 -12 -16    0.05    1.54
  12 -10  16   -0.60    1.47
 -10  -2  16    2.26    1.55
  12 -10  16   -0.04    1.25
 -10  -2  16    0.10    1.31
  -1 -12 -16    1.15    1.80
  -1 -12 -16   -0.46    1.81
 -13   1  16   -1.17    1.39
  12 -13  16    1.79    1.69
  12 -13  16    2.37    1.72
 -13   1  16    0.42    1.73
 -13   0 -16    0.24    1.32
   0 -13  16   -0.43    1.45
   0 -13  16   -2.12    1.66
  13   0  16   -0.74    1.47
   0 -13  16   -1.82    1.53
  -3 -10  16    2.66    1.51
  -3 -10  16    2.27    1.44
  13  -3  16    2.47    1.73
   7 -13 -16    8.10    2.20
  -6  -7  16    7.72    1.69
  13  -6  16    5.89    1.78
  -6  -7  16    3.55    1.63
 -13   9 -16   -1.92    1.54
   4 -13 -16    0.36    1.74
  -9  -4  16   -1.74    1.47
  13  -9  16   -1.60    1.39
  -9  -4  16   -1.65    1.36
 -13  12 -16   23.75    3.16
   1 -13 -16   28.75    3.17
 -12  -1  16   28.52    2.99
 -12  -1  16   31.17    2.85
  13 -12  16   28.32    2.77
  13 -12  16   35.29    3.35
  -2 -12  16   30.42    2.95
  -2 -12  16   23.55    2.77
  14  -2  16   34.35    3.29
  -2 -12  16   30.35    3.08
  -5  -9  16    0.40    1.50
  -5  -9  16    0.88    1.43
  14  -5  16   -0.16    1.65
   6 -14 -16   29.63    3.32
 -14   8 -16   32.51    2.97
  -8  -6  16   32.43    2.92
  14  -8  16   37.33    3.40
  -8  -6  16   33.99    2.89
   3 -14 -16   15.57    2.70
 -14  11 -16   10.80    2.46
  14 -11  16    8.32    2.24
 -11  -3  16    8.15    2.01
 -11  -3  16   11.24    2.25
  -4 -11  16    3.18    1.71
  -4 -11  16   -1.50    1.64
  15  -4  16    0.22    1.83
  -4 -11  16   -3.39    1.41
   8 -15 -16   20.04    3.07
  15  -7  16   20.23    2.88
  -7  -8  16   18.15    2.43
  -7  -8  16   21.28    2.66
 -15  10 -16   12.92    2.53
   5 -15 -16    3.69    2.31
  15 -10  16   11.81    2.72
 -10  -5  16    6.50    2.09
 -10  -5  16   14.48    2.32
   1   0 -17   78.49    2.71
  -1   1 -17   76.48    2.56
  -1   1 -17   73.11    2.65
   1   0 -17   79.75    2.67
   0  -1 -17   76.50    2.45
   0  -1 -17   78.37    2.43
  -1   0  17   76.61    2.69
   1  -1  17   73.53    2.62
   0   1  17   73.39    2.59
   0   2 -17    7.63    1.11
   2  -2 -17    8.81    1.00
   2  -2 -17    9.38    1.04
  -2   2  17    8.08    1.03
   2   0  17    7.01    0.95
   0  -2  17    6.91    1.01
   3  -1 -17    6.61    1.04
  -2   3 -17    5.51    1.04
   3  -1 -17    6.12    1.00
   2  -3  17    3.88    0.97
  -3   1  17    5.24    1.04
   4  -3 -17    0.94    0.70
   4  -3 -17    0.09    0.67
  -1   4 -17    0.49    0.78
  -4   3  17    1.46    0.83
   1  -4  17   -0.50    0.69
   3   1  17   -0.99    0.74
  -3   2 -17   19.62    1.51
   2   1 -17   22.34    1.68
  -3   2 -17   18.66    1.35
   3  -2  17   19.48    1.63
  -2  -1  17   17.72    1.49
  -3   5 -17    1.71    0.90
   3  -5  17    1.72    0.83
  -5   2  17    2.14    0.90
   3  -5  17    1.04    0.69
   6  -4 -17    0.47    0.73
  -2   6 -17    0.97    0.92
   4   2  17    0.90    0.91
   2  -6  17   -0.59    0.70
   2  -6  17    1.30    0.78
  -6   4  17    1.51    0.95
   1   3 -17   -0.16    0.75
   4  -1  17   -0.28    0.76
  -3   4  17    0.85    0.77
  -4   4 -17   16.16    1.57
   4  -4  17   16.66    1.49
  -4   0  17   14.20    1.44
  -4   7 -17    1.29    1.11
   4  -7  17    1.39    0.74
   3   4  17    1.87    0.99
  -7   3  17    1.67    0.98
   4  -7  17    0.44    0.80
  -5  -3 -17    8.19    1.40
  -3   8 -17    8.63    1.55
   3  -8  17    6.39    1.07
   5   3  17    6.29    1.25
  -8   5  17    7.04    1.53
   3  -8  17    5.85    1.09
   3  -8  17    8.26    1.18
   5  -5 -17   77.24    2.69
   0   5 -17   76.05    3.00
   5   0  17   79.54    3.10
  -5   5  17   78.35    3.05
   0  -5  17   75.96    2.85
  -5   3 -17    1.46    0.65
  -5   3 -17    1.87    0.92
   5  -3  17    1.58    0.83
  -3  -2  17    1.79    0.88
  -5   6 -17   57.90    2.85
  -6   1  17   60.26    2.77
   5  -6  17   56.21    2.61
  -4  -5 -17   13.31    1.81
  -5   9 -17   11.86    1.86
   5  -9  17   13.36    1.48
  -9   4  17   10.76    1.73
   5  -9  17   15.26    1.51
   4   5  17   12.43    1.47
  -6  -4 -17   14.89    1.92
   4 -10  17   12.46    1.37
 -10   6  17   15.17    2.15
   6   4  17   13.59    1.73
   4 -10  17   13.25    1.64
   7  -6 -17    3.03    0.90
  -6  -1 -17    3.15    1.08
  -1   7 -17    3.24    1.06
   1  -7  17    4.92    0.92
   1  -7  17    3.75    0.99
   6   1  17    4.15    1.18
  -7   6  17    5.35    1.30
   2   4 -17    1.88    0.87
   6  -2  17    1.09    0.89
  -6   5 -17   54.30    2.76
   6  -5  17   55.01    2.67
  -5  -1  17   65.22    2.69
  -6   8 -17    3.74    1.34
  -8   2  17    3.74    1.26
   6  -8  17    6.87    1.25
  -5  -6 -17   66.17    3.51
   5   6  17   65.89    2.99
 -11   5  17   68.03    3.66
   6 -11  17   64.51    3.01
   6 -11  17   68.88    3.24
  -7  -5 -17    1.99    1.46
   5 -12  17    3.08    1.44
 -12   7  17    3.73    1.81
   7   5  17    3.87    1.29
  -7  -2 -17   16.87    1.89
   2  -9  17   12.87    1.47
   2  -9  17   13.40    1.63
   7   2  17   19.83    1.95
   1   6 -17   -0.01    0.86
   7  -1  17   -0.05    0.94
  -1  -6  17   -0.06    0.86
  -7   4 -17   18.61    1.69
  -7   4 -17   15.14    1.41
   7  -4  17   14.01    1.61
  -7   7 -17   -1.61    1.05
   7  -7  17    0.81    0.97
  -7   0  17    0.61    0.96
  -7  10 -17   29.13    2.71
  -3  -7 -17   23.94    2.35
   7 -10  17   27.25    2.25
   3   7  17   30.90    2.11
 -10   3  17   26.02    2.39
  -6  -7 -17    2.53    1.67
  -6  -7 -17    2.34    1.38
   7 -13  17    2.46    1.22
   7 -13  17    0.97    1.52
   7 -13  17    1.28    1.53
 -13   6  17    4.18    1.85
  -8  -6 -17    2.14    1.76
 -14   8  17    2.19    2.18
   6 -14  17    1.89    1.66
   6 -14  17    2.23    1.88
  -8  -3 -17    2.57    1.35
   3 -11  17    5.47    1.24
   3 -11  17    6.10    1.48
   8   3  17    3.02    1.29
  -8   0 -17    0.76    0.92
   0  -8  17   -0.70    0.91
   8   0  17    0.62    1.08
   0  -8  17   -0.04    0.96
   8  -3  17    1.08    0.99
  -3  -5  17    1.05    0.93
  -8   6 -17    6.43    1.45
  -6  -2  17    8.84    1.32
   8  -6  17    8.00    1.42
  -8   9 -17   -0.11    1.33
  -9   1  17   -0.52    1.09
   8  -9  17    0.09    1.08
  -4  -8 -17    0.10    1.39
   8 -12  17    0.41    1.29
   8 -12  17    0.13    1.24
   8 -12  17    2.98    1.62
 -12   4  17    0.64    1.48
  -7  -8 -17    4.38    2.14
  -7  -8 -17    0.53    1.47
   8 -15  17    0.83    2.16
 -15   7  17    1.40    1.97
   8 -15  17   -2.27    1.59
  -9  -4 -17    4.90    1.74
   9   4  17   -1.17    1.18
   4 -13  17    1.46    1.48
   4 -13  17   -0.02    1.52
  -9  -1 -17    4.26    1.35
   1 -10  17    4.75    1.37
   9   1  17    7.82    1.62
   1 -10  17    8.01    1.46
  -2  -7  17    1.63    1.07
   9  -2  17    1.36    1.08
  -2  -7  17   -0.91    0.97
  -9   5 -17    9.91    1.56
   9  -5  17    4.21    1.27
  -5  -4  17   10.25    1.48
  -9   8 -17   -0.05    1.29
   9  -8  17   -0.21    1.14
  -8  -1  17    0.27    1.01
  -9  11 -17   -0.20    1.58
  -2  -9 -17    1.35    1.47
 -11   2  17   -1.28    1.35
   9 -11  17    0.07    1.32
  -5  -9 -17    3.34    1.92
  -5  -9 -17    1.49    1.44
 -14   5  17    4.18    1.93
   9 -14  17    1.93    1.74
   9 -14  17    3.30    1.46
 -14   5  17    0.15    1.68
 -10  -5 -17   13.81    2.51
   5 -15  17   15.41    2.58
   5 -15  17   13.12    2.72
 -10  -2 -17   -0.82    1.31
   2 -12  17   -1.03    1.38
   2 -12  17    0.20    1.15
  10   2  17    0.08    1.25
 -10   1 -17    8.78    1.47
  10  -1  17    8.56    1.59
  -1  -9  17    8.91    1.62
  -1  -9  17    7.61    1.62
  -4  -6  17    9.87    1.64
  10  -4  17   10.42    1.65
  -4  -6  17   10.63    1.70
 -10   7 -17    1.71    1.38
  -7  -3  17    1.67    1.33
  10  -7  17    2.35    1.27
 -10  10 -17   38.01    3.22
 -10   0  17   39.25    2.75
  10 -10  17   42.32    3.05
 -10   0  17   37.71    2.98
  -3 -10 -17    1.70    1.81
 -13   3  17    2.81    1.74
  10 -13  17   -0.92    1.58
  10 -13  17   -0.42    1.46
 -13   3  17    0.89    1.68
 -11  -3 -17   -0.42    1.50
   3 -14  17    2.03    1.92
   3 -14  17    2.62    1.82
  11   3  17   -0.30    1.31
 -11   0 -17   41.76    2.84
   0 -11  17   44.51    3.14
   0 -11  17   37.73    2.82
  11   0  17   33.25    2.87
  11  -3  17    4.66    1.59
  -3  -8  17    3.54    1.36
  -3  -8  17    6.18    1.56
 -11   6 -17   48.08    2.97
  -6  -5  17   45.61    2.84
  11  -6  17   40.88    2.99
  -6  -5  17   39.48    2.96
 -11   9 -17   -3.30    1.31
   2 -11 -17   -1.31    1.44
  11  -9  17   -0.62    1.12
  -9  -2  17    1.78    1.47
  -9  -2  17   -1.04    1.03
  11  -9  17   -0.99    1.35
 -12   1  17   11.65    2.26
 -12   1  17   11.39    1.96
  11 -12  17   13.99    2.05
  11 -12  17   15.19    2.32
  -4 -11 -17   10.30    2.67
  11 -15  17    8.48    2.11
 -15   4  17   10.99    2.37
 -15   4  17    5.42    2.21
  11 -15  17    7.50    2.43
 -12  -1 -17    3.54    1.66
  12   1  17    0.82    1.49
   1 -13  17    2.21    1.72
   1 -13  17    2.01    1.76
   1 -13  17    2.51    1.47
 -12   2 -17    1.00    1.06
  12  -2  17    3.81    1.53
  -2 -10  17   -0.62    1.33
  -2 -10  17   -1.34    1.29
  -5  -7  17    0.77    1.35
  -5  -7  17    2.82    1.29
  12  -5  17    1.49    1.48
 -12   8 -17    2.33    1.64
   4 -12 -17    3.67    1.76
  12  -8  17    3.91    1.64
  -8  -4  17    2.68    1.51
  -8  -4  17    3.27    1.52
   1 -12 -17    8.99    2.12
 -12  11 -17    9.00    2.23
  12 -11  17    8.00    2.05
 -11  -1  17    5.20    1.86
  12 -11  17    3.74    1.60
  -2 -12 -17    4.64    2.24
  12 -14  17    3.56    1.96
  12 -14  17    4.78    1.99
 -14   2  17    4.11    1.84
 -14   2  17    2.76    2.08
 -13   1 -17    0.56    1.33
  -1 -12  17    0.45    1.48
  13  -1  17   -3.13    1.47
  -1 -12  17   -0.40    1.57
  13  -4  17    0.28    1.53
  -4  -9  17   -2.18    1.26
  -4  -9  17    2.11    1.48
   6 -13 -17    4.30    1.86
 -13   7 -17    1.96    1.56
  -7  -6  17    1.89    1.60
  13  -7  17    1.91    1.67
  -7  -6  17    2.70    1.57
 -13  10 -17    4.66    2.08
   3 -13 -17    3.42    2.04
 -10  -3  17    3.77    1.85
 -10  -3  17    7.67    1.91
  13 -10  17    2.53    1.69
   0 -13 -17    2.44    1.93
  13 -13  17    2.69    1.85
  13 -13  17    3.06    1.93
 -13   0  17    1.26    1.83
  -3 -11  17    4.06    1.75
  14  -3  17   -2.08    1.65
  -3 -11  17    1.13    1.65
  -6  -8  17   -2.89    1.32
  14  -6  17   -1.41    1.59
  -6  -8  17   -0.23    1.53
 -14   9 -17    3.75    1.85
   5 -14 -17    1.57    1.99
  -9  -5  17    2.95    1.63
  -9  -5  17    0.62    1.58
  14  -9  17    5.99    2.19
 -14  12 -17   -3.26    1.95
   2 -14 -17    2.25    2.12
 -12  -2  17    0.07    1.88
 -12  -2  17    5.10    2.00
  14 -12  17    2.35    2.08
  -5 -10  17   19.95    2.69
  -5 -10  17   16.49    2.53
  15  -5  17   17.96    2.81
   7 -15 -17    2.79    2.25
 -15   8 -17    7.88    2.19
  -8  -7  17    2.26    1.72
  15  -8  17    6.86    2.36
  -8  -7  17    6.58    2.04
   4 -15 -17   13.76    3.00
 -15  11 -17    4.47    2.28
 -11  -4  17   11.14    2.50
  15 -11  17   13.73    2.71
 -11  -4  17   12.81    2.37
   0   0 -18   37.82    1.78
   0   0 -18   36.15    1.83
   0   0  18   34.89    1.81
   2  -1 -18   21.11    1.60
  -1   2 -18   21.14    1.63
   2  -1 -18   20.82    1.51
  -2   1  18   20.33    1.62
   1   1  18   18.75    1.48
  -2   1 -18   39.57    1.78
  -2   1 -18   42.56    1.95
   1   1 -18   38.27    2.07
  -1   2  18   41.04    1.96
  -1  -1  18   41.24    1.97
   4  -2 -18   85.78    3.06
  -2   4 -18   90.94    3.27
   4  -2 -18   82.44    3.04
  -4   2  18   89.60    3.16
   2  -4  18   87.71    3.09
   0   3 -18    3.77    0.97
   3  -3 -18    3.56    0.83
   3   0  18    3.05    1.04
  -3   3  18    4.89    0.95
  -3   3 -18    1.28    0.71
  -3   3 -18    1.32    0.85
   3   0 -18    0.03    0.78
   3  -3  18   -1.07    0.71
  -3   0  18    0.61    0.76
  -3   6 -18    7.22    1.31
   3   3  18    5.44    1.22
  -6   3  18    7.59    1.31
   3  -6  18    5.99    0.97
   3  -6  18    4.86    1.02
  -1   5 -18   13.58    1.47
   5  -4 -18   11.92    1.30
   4   1  18    9.55    1.37
  -5   4  18   12.29    1.48
   1  -5  18   11.94    1.29
   1  -5  18   14.45    1.38
   2   2 -18   13.52    1.40
  -4   2 -18   16.04    1.41
  -4   2 -18   13.29    1.22
  -2  -2  18   14.80    1.43
   4  -2  18   14.25    1.50
  -4   5 -18    4.66    1.14
   4  -5  18    4.81    1.03
  -5   1  18    5.65    1.21
  -4   8 -18    3.36    1.35
   4   4  18    6.25    1.25
   4  -8  18    6.00    1.17
  -8   4  18    4.93    1.35
   4  -8  18    5.87    1.14
  -2   7 -18    4.39    1.19
   2  -7  18    5.22    1.08
   2  -7  18    4.35    0.90
  -7   5  18    4.96    1.31
   5   2  18    7.55    1.31
   1   4 -18   16.13    1.61
   5  -1  18   15.72    1.64
  -4   5  18   14.73    1.55
  -5   4 -18   33.38    1.85
  -5   4 -18   32.42    2.13
  -4  -1  18   36.39    2.11
   5  -4  18   33.24    2.08
  -5   7 -18   -0.32    1.05
  -7   2  18    0.49    1.00
   5  -7  18   -1.56    0.84
  -5  -5 -18   19.49    2.17
 -10   5  18   14.79    2.19
   5   5  18   17.33    1.79
   5 -10  18   16.56    1.77
   5 -10  18   15.81    1.63
  -6  -3 -18   13.26    1.75
  -9   6  18   11.02    1.86
   3  -9  18   13.76    1.62
   3  -9  18   13.60    1.42
   6   3  18   14.53    1.73
   3  -9  18   12.21    1.36
   0   6 -18   43.73    2.43
   0  -6  18   40.59    1.97
   6   0  18   39.30    2.38
   0  -6  18   38.91    2.24
  -6   3 -18   14.32    1.28
  -6   3 -18   14.39    1.46
   6  -3  18   14.06    1.63
  -6   6 -18   28.02    2.19
  -6   0  18   23.58    2.01
   6  -6  18   20.68    1.87
  -3  -6 -18    1.76    1.27
  -6   9 -18    2.37    1.37
   6  -9  18    1.60    1.08
  -9   3  18    6.67    1.57
   3   6  18    3.07    1.16
  -6  -6 -18    9.74    1.91
   6   6  18    9.81    1.55
 -12   6  18    9.82    2.14
   6 -12  18   10.16    1.53
   6 -12  18   13.86    1.88
  -7  -4 -18    6.59    1.59
   4 -11  18    4.64    1.44
   4 -11  18    5.73    1.19
   7   4  18    3.72    1.33
  -7  -1 -18   30.96    2.24
   1  -8  18   35.11    2.21
   1  -8  18   28.39    2.23
   7   1  18   30.62    2.38
   2   5 -18    2.37    1.00
  -2  -5  18   -0.21    0.90
   7  -2  18    0.30    0.98
  -7   5 -18   24.01    2.03
   7  -5  18   24.73    2.10
  -5  -2  18   27.90    1.98
  -7   8 -18   20.44    2.17
  -8   1  18   16.62    1.91
   7  -8  18   20.97    1.92
  -4  -7 -18    1.35    1.46
   7 -11  18    2.80    1.26
   4   7  18    1.91    1.08
   7 -11  18    3.10    1.29
 -11   4  18    2.97    1.55
  -7  -7 -18   37.36    3.43
   7 -14  18   33.10    3.35
   7 -14  18   35.27    3.03
 -14   7  18   30.66    3.33
  -8  -5 -18    7.31    1.89
   8   5  18    2.83    1.32
   5 -13  18    1.67    1.64
  -8  -2 -18   14.87    1.89
   2 -10  18   10.25    1.53
   2 -10  18   12.36    1.69
   8   2  18    9.55    1.69
  -1  -7  18    2.70    1.16
   8  -1  18    2.19    1.16
  -1  -7  18    1.95    1.10
  -8   4 -18   20.45    1.86
   8  -4  18   21.93    2.05
  -8   7 -18   26.86    2.34
  -7  -1  18   26.54    2.13
   8  -7  18   22.55    2.09
  -8  10 -18   11.44    1.98
 -10   2  18   12.53    2.04
   2   8  18    9.52    1.50
   8 -10  18   10.61    1.80
  -5  -8 -18    1.35    1.66
   8 -13  18   -0.94    1.28
 -13   5  18    1.87    1.64
   8 -13  18   -1.77    1.37
   8 -13  18   -1.12    1.58
  -9  -6 -18   -0.88    1.94
   6 -15  18    0.31    1.78
   6 -15  18    2.79    2.10
  -9  -3 -18    6.20    1.82
   3 -12  18    3.22    1.31
   3 -12  18    5.09    1.71
   9   3  18    5.00    1.42
  -9   0 -18    1.16    1.03
   9   0  18   -1.48    1.14
   0  -9  18   -0.92    0.98
   0  -9  18    0.44    1.17
   9  -3  18    7.30    1.51
  -3  -6  18    7.67    1.47
  -3  -6  18    6.76    1.47
  -9   6 -18    0.70    1.17
   9  -6  18    0.26    1.08
  -9   9 -18    6.59    1.66
  -9   0  18    3.04    1.37
   9  -9  18    7.26    1.63
  -3  -9 -18    1.48    1.72
 -12   3  18    0.87    1.58
   9 -12  18    3.01    1.50
   9 -12  18    2.11    1.70
  -6  -9 -18    2.14    2.17
 -15   6  18    1.48    1.88
 -15   6  18    2.28    2.09
   9 -15  18    1.01    2.17
 -10  -4 -18    3.72    1.77
   4 -14  18    3.82    2.04
   4 -14  18    2.21    1.76
  10   4  18    1.00    1.40
 -10  -1 -18   28.17    2.56
   1 -11  18   26.33    2.27
   1 -11  18   25.50    2.46
  10   1  18   22.27    2.27
  -2  -8  18    1.07    1.24
  -2  -8  18   -0.07    1.14
  10  -2  18   -0.51    1.12
 -10   5 -18   34.61    2.46
  -5  -5  18   26.03    2.27
  10  -5  18   29.93    2.53
  -5  -5  18   32.39    2.58
 -10   8 -18   -2.13    1.29
  -8  -2  18    0.95    1.11
  -8  -2  18   -0.01    1.30
  10  -8  18    1.99    1.38
 -10  11 -18   23.00    2.82
 -11   1  18   19.74    2.31
  10 -11  18   19.84    2.23
 -11   1  18   16.39    2.26
  10 -11  18   22.68    2.43
  -4 -10 -18    2.04    1.97
 -14   4  18   -0.29    1.73
  10 -14  18    1.04    1.93
 -14   4  18    0.29    1.86
  10 -14  18    3.34    1.75
 -11  -2 -18    2.62    1.76
  11   2  18    2.54    1.56
   2 -13  18    2.44    1.28
   2 -13  18    0.84    1.57
 -11   1 -18   12.92    1.76
  -1 -10  18   13.42    1.93
  11  -1  18   15.04    2.11
  -1 -10  18   13.66    1.99
  -4  -7  18   -0.03    1.20
  11  -4  18    0.24    1.28
  -4  -7  18   -2.66    1.04
 -11   7 -18   -1.11    1.40
  -7  -4  18   -0.60    1.21
  11  -7  18   -0.86    1.29
  -7  -4  18   -1.31    1.10
 -11  10 -18    4.00    1.80
  11 -10  18    9.69    1.71
 -10  -1  18   10.78    2.10
  11 -10  18    9.97    2.01
 -10  -1  18    6.20    1.51
  -2 -11 -18   16.47    2.76
  11 -13  18   11.94    2.27
 -13   2  18    9.83    2.05
 -13   2  18   11.08    2.42
  11 -13  18   13.36    2.23
 -12   0 -18    0.84    1.31
  12   0  18   -0.31    1.54
   0 -12  18   -0.72    1.36
   0 -12  18    3.96    1.60
  -3  -9  18   16.99    2.15
  -3  -9  18   17.32    2.21
  12  -3  18   18.69    2.43
 -12   6 -18   24.90    2.28
  -6  -6  18   24.47    2.48
  12  -6  18   26.37    2.69
  -6  -6  18   28.01    2.54
 -12   9 -18   33.28    3.16
  -9  -3  18   35.59    3.10
  -9  -3  18   42.47    3.22
  12  -9  18   38.94    3.28
 -12  12 -18    7.42    2.37
 -12   0  18    6.39    1.78
 -12   0  18    8.34    2.19
  12 -12  18    6.84    1.94
  12 -12  18    8.71    2.22
 -13   2 -18    2.18    1.45
  -2 -11  18    2.23    1.61
  13  -2  18    2.65    1.79
  -2 -11  18    2.19    1.60
  -5  -8  18   21.45    2.51
  13  -5  18   22.96    2.74
  -5  -8  18   22.26    2.46
 -13   8 -18   -0.03    1.55
  13  -8  18    2.94    1.74
  -8  -5  18   -2.56    1.33
  -8  -5  18   -1.56    1.35
   2 -13 -18   -1.12    1.83
 -13  11 -18    1.29    1.98
 -11  -2  18    1.14    1.61
 -11  -2  18    0.34    1.83
  13 -11  18   -2.42    1.56
  -4 -10  18    2.76    1.71
  -4 -10  18   -0.17    1.58
  14  -4  18   -1.03    1.76
 -14   7 -18   -0.76    1.56
  -7  -7  18    0.62    1.59
  -7  -7  18    1.23    1.67
  14  -7  18    2.29    1.91
 -14  10 -18   -1.05    1.88
   4 -14 -18   -0.36    1.93
  14 -10  18   -0.03    1.92
 -10  -4  18   -0.15    1.58
 -10  -4  18   -1.18    1.71
  -6  -9  18    2.09    1.81
  -6  -9  18    1.70    1.86
  15  -6  18    0.01    2.00
   6 -15 -18    6.09    2.51
 -15   9 -18    0.91    2.02
  -9  -6  18    3.27    2.04
  -9  -6  18    6.76    2.04
  15  -9  18    7.68    2.38
   0   1 -19    3.75    0.89
  -1   0 -19    2.36    0.80
   1  -1 -19    3.04    0.84
   0   1 -19    4.49    0.98
   1  -1 -19    4.26    0.86
  -1   0 -19    4.15    0.80
   0  -1  19    3.77    0.89
   1   0  19    4.29    0.86
  -1   1  19    2.66    0.84
   3  -2 -19  209.17    5.43
  -1   3 -19  198.27    5.61
   3  -2 -19  192.29    5.35
  -3   2  19  203.27    5.57
  -2   2 -19    2.02    0.93
   2   0 -19    2.89    0.91
  -2   2 -19    1.89    0.73
  -2   0  19    2.99    0.89
  -2   5 -19   21.05    1.85
   5  -3 -19   17.94    1.67
  -5   3  19   22.54    1.92
   2  -5  19   18.92    1.48
   3   2  19   19.98    1.82
   2  -5  19   20.83    1.67
  -3   1 -19   43.47    1.96
   1   2 -19   37.25    2.13
  -3   1 -19   43.38    1.80
  -2   3  19   41.23    2.06
   3  -1  19   42.01    2.33
  -1  -2  19   45.06    2.13
  -3   4 -19   69.78    2.94
   4  -1 -19   71.36    2.83
  -4   1  19   67.06    2.85
   3  -4  19   65.46    2.76
  -3   7 -19   40.79    2.64
   3  -7  19   41.65    2.21
  -7   4  19   45.69    2.67
   3  -7  19   44.47    2.21
   4   3  19   43.61    2.50
   4  -4 -19   -0.95    0.62
   0   4 -19   -1.34    0.79
  -4   4  19    0.28    0.85
   4   0  19   -0.73    0.83
  -4   3 -19   48.01    2.12
  -4   3 -19   41.42    2.28
   3   1 -19   45.08    2.31
   4  -3  19   48.97    2.43
  -3  -1  19   44.17    2.25
  -4   6 -19    8.78    1.49
  -6   2  19   10.31    1.52
   4  -6  19    6.92    1.20
  -5  -4 -19   11.62    1.79
  -4   9 -19    8.81    1.73
   5   4  19   12.43    1.62
  -9   5  19   12.99    1.99
   4  -9  19   11.77    1.52
   4  -9  19   10.24    1.39
   4  -9  19   11.51    1.34
  -1   6 -19   18.08    1.78
   6  -5 -19   18.82    1.69
   5   1  19   19.83    1.84
   1  -6  19   17.84    1.52
   1  -6  19   17.24    1.56
  -6   5  19   19.39    1.97
   2   3 -19    4.93    1.12
  -5   2 -19    6.09    1.04
   5  -2  19    5.66    1.22
  -5   5 -19   -0.94    0.92
  -5   0  19   -1.39    0.80
   5  -5  19   -0.86    0.85
  -5   8 -19    9.94    1.67
   5  -8  19    6.20    1.13
   5  -8  19    5.64    1.29
  -8   3  19    6.95    1.50
   3   5  19    7.26    1.34
  -6  -5 -19    0.36    1.31
   5 -11  19   -0.81    1.24
 -11   6  19    1.43    1.51
   5 -11  19   -0.53    1.06
   6   5  19    2.71    1.29
  -2   8 -19   79.98    3.63
   2  -8  19   83.20    3.28
   6   2  19   86.26    3.53
   2  -8  19   80.23    3.06
   2  -8  19   80.66    2.96
   1   5 -19    2.03    1.00
  -1  -5  19    1.44    0.94
   6  -1  19    2.00    0.97
  -6   4 -19   53.34    2.62
  -6   4 -19   51.92    2.34
   6  -4  19   55.37    2.73
  -4  -2  19   55.34    2.55
  -6   7 -19   17.29    1.98
  -7   1  19   15.90    1.84
   6  -7  19   17.90    1.78
  -4  -6 -19   -0.91    1.20
  -6  10 -19    2.33    1.48
 -10   4  19   -1.93    1.21
   4   6  19   -0.06    1.06
   6 -10  19    0.72    1.05
   6 -10  19   -2.55    0.93
  -7  -6 -19   57.80    3.82
   6 -13  19   52.32    3.53
   7   6  19   55.39    3.02
 -13   7  19   41.04    3.66
  -7  -3 -19    7.15    1.58
   7   3  19    8.66    1.58
   3 -10  19    7.16    1.48
   3 -10  19    9.88    1.39
   0   7 -19    8.02    1.50
   7   0  19    9.70    1.57
   0  -7  19   10.63    1.47
  -7   3 -19  154.12    4.51
  -7   3 -19  141.23    4.19
   3   4 -19  152.04    4.78
   7  -3  19  146.01    4.89
  -7   6 -19   43.39    2.75
  -6  -1  19   41.84    2.45
   7  -6  19   42.02    2.53
  -7   9 -19  148.82    5.41
  -9   2  19  152.59    5.22
   7  -9  19  148.04    4.97
   2   7  19  147.11    4.76
  -5  -7 -19    8.00    1.97
   5   7  19   11.59    1.70
 -12   5  19   12.18    2.09
   7 -12  19   12.56    1.84
   7 -12  19   15.16    1.91
  -8  -7 -19   34.89    3.60
   7 -15  19   37.44    3.37
   7 -15  19   35.52    3.71
  -8  -4 -19    5.66    1.75
   4 -12  19    3.61    1.54
   8   4  19    2.89    1.39
  -8  -1 -19   58.09    3.02
   1  -9  19   61.83    2.95
   8   1  19   63.13    3.22
   1  -9  19   57.73    3.06
   8  -2  19   27.15    2.36
  -2  -6  19   25.28    2.11
  -8   5 -19   19.68    1.97
   8  -5  19   16.06    1.84
  -8   8 -19    0.84    1.27
  -8   0  19    1.21    1.19
   8  -8  19    1.59    1.20
  -3  -8 -19   -0.99    1.51
 -11   3  19   -0.31    1.41
   3   8  19    1.45    1.05
   8 -11  19    0.12    1.35
  -6  -8 -19    9.98    2.35
   8 -14  19    7.83    2.01
   8 -14  19    7.37    2.24
 -14   6  19   13.09    2.48
  -9  -5 -19    4.02    2.02
   5 -14  19   -0.21    1.65
   5 -14  19    0.74    1.86
  -9  -2 -19    9.39    1.76
   2 -11  19    7.33    1.53
   9   2  19    5.84    1.61
   2 -11  19    7.11    1.66
  -1  -8  19    2.31    1.28
  -1  -8  19    1.00    1.21
   9  -1  19    2.89    1.33
   9  -4  19   -0.89    1.08
  -4  -5  19    0.59    1.03
  -9   7 -19   11.41    1.79
  -7  -2  19   13.03    1.63
   9  -7  19   12.01    1.82
  -9  10 -19    1.15    1.66
   9 -10  19    0.85    1.38
 -10   1  19   -0.64    1.31
  -4  -9 -19    7.99    2.14
   9 -13  19   10.14    2.21
 -13   4  19   13.05    2.44
   9 -13  19   10.07    1.98
 -10  -3 -19    2.22    1.63
   3 -13  19    3.22    1.67
  10   3  19    5.79    1.65
 -10   0 -19    1.35    1.24
  10   0  19    1.30    1.34
   0 -10  19    3.16    1.40
   0 -10  19    3.22    1.36
  -3  -7  19    1.88    1.36
  10  -3  19    4.01    1.49
  -3  -7  19    2.26    1.31
 -10   6 -19    1.08    1.36
  -6  -4  19    0.36    1.26
  10  -6  19    0.73    1.24
  -6  -4  19   -0.91    1.11
 -10   9 -19    2.05    1.61
  -9  -1  19    2.85    1.34
  10  -9  19    2.85    1.59
  10 -12  19    0.35    1.48
 -12   2  19    1.24    1.65
  10 -12  19   -0.52    1.47
  -5 -10 -19    2.55    2.31
 -15   5  19    5.11    2.10
  10 -15  19    6.59    2.47
 -15   5  19   -1.38    1.86
 -11  -1 -19    2.65    1.58
   1 -12  19    3.17    1.64
  11   1  19    1.95    1.64
   1 -12  19    1.92    1.36
  -2  -9  19    4.69    1.52
  -2  -9  19    4.31    1.56
  11  -2  19    7.36    1.71
  -5  -6  19    2.45    1.46
  -5  -6  19   -0.34    1.18
  11  -5  19    1.47    1.32
 -11   8 -19   45.89    3.44
  -8  -3  19   42.30    3.30
  11  -8  19   45.64    3.30
  -8  -3  19   47.85    3.12
 -11  11 -19    6.90    2.13
  11 -11  19    5.09    1.76
 -11   0  19    7.41    2.06
 -11   0  19    3.33    1.52
  11 -11  19    4.88    1.61
  -3 -11 -19   24.40    3.34
 -14   3  19   26.80    3.09
 -14   3  19   29.21    3.28
  11 -14  19   27.02    2.87
  11 -14  19   23.56    3.01
 -12  -2 -19   53.40    3.90
   2 -14  19   56.79    4.25
  12   2  19   58.92    3.80
   2 -14  19   55.81    4.35
 -12   1 -19    0.18    1.24
  12  -1  19    2.98    1.71
  -1 -11  19    1.14    1.55
  -1 -11  19    0.49    1.41
  -4  -8  19   77.80    3.94
  12  -4  19   79.28    4.18
  -4  -8  19   74.81    3.82
 -12   7 -19    1.27    1.47
  -7  -5  19   -0.06    1.47
  -7  -5  19    1.69    1.33
  12  -7  19    1.53    1.52
 -12  10 -19   21.13    2.73
  12 -10  19   22.53    2.67
 -10  -2  19   28.81    3.01
  12 -10  19   21.79    2.22
 -13   1  19    4.76    2.04
 -13   1  19    7.46    2.02
  12 -13  19    2.86    1.97
  12 -13  19    5.46    1.96
 -13   0 -19   16.41    2.35
  13   0  19   15.67    2.50
   0 -13  19    9.69    2.35
   0 -13  19   14.86    2.27
   0 -13  19   17.11    2.68
  -3 -10  19    5.44    1.82
  13  -3  19    3.51    1.87
  -3 -10  19    5.08    1.74
  13  -6  19    0.00    1.56
  -6  -7  19    1.18    1.57
  -6  -7  19    1.89    1.44
 -13   9 -19   39.43    3.40
  13  -9  19   36.94    3.38
  -9  -4  19   33.45    3.05
  -9  -4  19   36.49    3.09
 -13  12 -19    8.43    2.51
 -12  -1  19   12.65    2.36
  13 -12  19   13.57    2.45
 -12  -1  19   16.64    2.70
  -2 -12  19    8.76    2.16
  14  -2  19    9.62    2.35
  -2 -12  19    8.75    2.32
  -5  -9  19    0.46    1.56
  -5  -9  19    3.22    1.84
  14  -5  19    4.22    2.07
 -14   8 -19   22.79    2.66
  14  -8  19   25.88    3.10
  -8  -6  19   25.00    2.60
  -8  -6  19   20.53    2.71
 -14  11 -19   -0.35    2.08
 -11  -3  19    3.61    2.02
  14 -11  19   -0.53    1.94
 -11  -3  19    1.09    1.74
  -7  -8  19    2.30    1.92
  -7  -8  19   -0.52    1.85
  15  -7  19    0.78    2.12
 -15  10 -19    2.66    2.13
 -10  -5  19    5.11    2.17
  15 -10  19    2.75    2.24
 -10  -5  19    5.28    2.06
  -1   1 -20    0.30    0.63
  -1   1 -20    1.23    0.83
   0  -1 -20    0.70    0.68
   0  -1 -20    0.91    0.63
   1   0 -20    0.62    0.77
   1   0 -20    0.32    0.71
   0   1  20    1.93    0.74
  -1   0  20    0.19    0.75
   1  -1  20    0.06    0.69
   2  -2 -20   -0.03    0.72
   0   2 -20   -0.09    0.80
   2  -2 -20   -0.38    0.62
   0  -2  20   -0.04    0.76
   2   0  20    0.47    0.72
  -2   2  20   -0.60    0.82
  -2   3 -20  107.61    3.69
   3  -1 -20  106.68    3.57
   3  -1 -20  109.25    3.64
   2  -3  20  110.57    3.75
  -3   1  20  106.44    3.66
   4  -3 -20   92.89    3.23
  -1   4 -20   99.50    3.60
   4  -3 -20   99.92    3.32
   3   1  20   95.36    3.58
  -4   3  20   89.68    3.41
   2   1 -20  198.36    5.58
  -3   2 -20  200.41    5.34
  -3   2 -20  191.36    5.39
  -2  -1  20  197.27    5.50
   3  -2  20  199.91    5.68
  -3   5 -20    7.57    1.38
  -5   2  20    8.40    1.43
   3  -5  20   10.52    1.37
   3  -5  20    7.61    1.03
  -2   6 -20   71.65    3.24
   2  -6  20   76.57    2.89
   2  -6  20   72.26    2.84
   4   2  20   71.72    3.18
  -6   4  20   72.32    3.18
   1   3 -20   51.17    2.55
   4  -1  20   55.10    2.70
  -3   4  20   54.37    2.47
  -4   4 -20    6.13    1.24
   4   0 -20    7.79    1.34
  -4   0  20   10.05    1.36
   4  -4  20   10.04    1.41
  -4   7 -20   82.27    3.70
   4  -7  20   88.00    3.32
   4  -7  20   82.18    2.96
   3   4  20   86.53    3.52
  -7   3  20   90.58    3.67
  -3   8 -20   32.74    2.63
   3  -8  20   35.50    2.16
  -8   5  20   28.68    2.55
   3  -8  20   32.31    2.23
   5   3  20   37.99    2.49
   0   5 -20    3.04    1.19
   0  -5  20    3.61    1.00
  -5   5  20    3.13    1.17
   5   0  20    4.30    1.19
  -5   3 -20    5.17    0.91
   3   2 -20    4.89    1.12
  -5   3 -20    4.24    1.05
   5  -3  20    4.46    1.16
  -3  -2  20    2.96    1.00
  -5   6 -20   12.02    1.63
  -6   1  20   11.88    1.64
   5  -6  20   10.48    1.52
  -5   9 -20    0.22    1.26
   5  -9  20   -0.47    1.03
   5  -9  20    0.37    0.93
  -9   4  20    0.04    1.16
   4   5  20   -1.61    0.99
  -6  -4 -20    0.03    1.30
   4 -10  20    0.81    0.95
 -10   6  20   -0.07    1.40
   4 -10  20    1.34    1.13
   4 -10  20    1.21    1.04
   6   4  20    0.27    1.23
  -1   7 -20   11.30    1.65
   1  -7  20   12.69    1.35
   6   1  20   11.41    1.64
   1  -7  20   13.98    1.64
   2   4 -20   17.65    1.79
   6  -2  20   16.56    1.84
  -6   5 -20    1.42    1.08
  -5  -1  20    0.93    0.98
   6  -5  20    1.42    0.99
  -6   8 -20   53.15    3.24
   6  -8  20   52.52    2.79
  -8   2  20   51.87    3.06
  -5  -6 -20   10.94    1.99
   6 -11  20   10.43    1.68
   5   6  20   12.14    1.78
 -11   5  20   10.28    1.91
   6 -11  20    9.40    1.60
  -7  -5 -20   -1.22    1.36
   5 -12  20   -1.06    1.25
   7   5  20    0.97    1.33
   7   2  20  126.09    4.58
   2  -9  20  119.37    4.28
   2  -9  20  124.85    4.11
   1   6 -20   27.42    2.28
   7  -1  20   31.58    2.47
  -1  -6  20   26.36    2.13
  -7   4 -20  151.34    4.76
   7  -4  20  151.45    5.01
  -7   7 -20    1.62    1.36
  -7   0  20    1.22    1.17
   7  -7  20    0.93    1.08
  -7  10 -20   15.54    2.20
   7 -10  20   21.92    2.10
   3   7  20   18.47    1.87
 -10   3  20   16.67    2.28
  -6  -7 -20    3.25    1.92
   7 -13  20    3.72    1.66
   7 -13  20    5.10    1.51
 -13   6  20    3.85    1.72
  -8  -6 -20   41.29    3.65
   6 -14  20   47.26    3.49
   6 -14  20   38.07    3.62
  -8  -3 -20   23.32    2.46
   8   3  20   26.40    2.44
   3 -11  20   26.77    2.10
   3 -11  20   24.31    2.32
   0  -8  20   14.57    1.81
   0  -8  20   20.04    1.97
   8   0  20   17.56    2.11
   3   5 -20    1.96    1.08
  -3  -5  20   -0.69    0.93
   8  -3  20    1.14    1.08
  -8   6 -20   22.24    2.19
  -6  -2  20   24.57    2.07
   8  -6  20   22.34    2.22
  -8   9 -20   32.61    2.88
   8  -9  20   27.99    2.45
  -9   1  20   28.96    2.57
  -4  -8 -20   67.55    4.11
 -12   4  20   71.87    4.07
   8 -12  20   67.64    3.68
   4   8  20   68.57    3.24
  -7  -8 -20   16.62    2.94
   8 -15  20   12.55    2.86
 -15   7  20   13.31    2.65
  -9  -4 -20   35.50    3.05
   4 -13  20   33.91    2.98
   9   4  20   37.15    2.91
   1 -10  20    0.64    1.22
   9   1  20   -0.12    1.28
   1 -10  20    1.54    1.25
   9  -2  20  119.66    4.59
  -2  -7  20  118.51    4.40
  -2  -7  20  126.86    4.52
  -9   5 -20    1.51    1.19
   9  -5  20    2.06    1.21
  -9   8 -20   94.02    4.32
   9  -8  20   91.74    4.02
  -8  -1  20   95.35    3.81
  -9  11 -20    3.62    1.87
   2   9  20    2.01    1.23
 -11   2  20    3.28    1.64
   9 -11  20    3.83    1.61
  -5  -9 -20   28.41    3.26
   9 -14  20   30.56    2.68
   9 -14  20   26.04    3.14
 -14   5  20   19.99    2.82
 -10  -2 -20   26.26    2.67
  10   2  20   21.28    2.45
   2 -12  20   22.56    2.19
   2 -12  20   21.90    2.44
  10  -1  20    6.85    1.62
  -1  -9  20    6.89    1.56
  -1  -9  20    3.74    1.47
  10  -4  20   23.89    2.46
  -4  -6  20   23.77    2.30
  -4  -6  20   23.04    2.38
 -10   7 -20    4.19    1.51
  10  -7  20    0.65    1.27
 -10  10 -20    1.72    1.72
  10 -10  20    7.52    1.80
 -10   0  20    4.75    1.58
  10 -13  20   -0.68    1.76
 -13   3  20   -1.24    1.68
 -13   3  20    3.83    1.85
  10 -13  20   -0.88    1.60
 -11  -3 -20    7.52    2.24
  11   3  20    6.68    1.83
   3 -14  20    6.40    2.29
   3 -14  20    3.10    1.93
  11   0  20    4.07    1.58
   0 -11  20    2.28    1.49
   0 -11  20    2.85    1.37
  11  -3  20   21.29    2.47
  -3  -8  20   20.11    2.20
  -3  -8  20   19.42    2.29
 -11   6 -20    1.03    1.34
  -6  -5  20    1.09    1.24
  -6  -5  20    1.99    1.45
  11  -6  20    2.34    1.45
 -11   9 -20   13.44    2.23
  -9  -2  20   15.20    1.85
  -9  -2  20   20.31    2.58
  11  -9  20   16.13    2.34
 -11  12 -20   -1.42    1.85
 -12   1  20    0.16    1.52
  11 -12  20   -1.47    1.63
  11 -12  20   -0.12    1.60
 -12   1  20    2.09    1.88
 -12  -1 -20   36.59    3.20
  12   1  20   34.07    3.18
   1 -13  20   32.48    3.26
   1 -13  20   37.93    3.11
  12  -2  20   -0.08    1.57
  -2 -10  20    1.24    1.46
  -2 -10  20   -0.23    1.30
  -5  -7  20    2.26    1.58
  12  -5  20    5.50    1.83
  -5  -7  20    4.37    1.60
 -12   8 -20   14.38    2.37
  -8  -4  20   14.78    2.26
  12  -8  20   16.85    2.41
  -8  -4  20   11.91    2.01
 -12  11 -20   16.74    2.70
 -11  -1  20   14.29    2.04
  12 -11  20   13.07    2.34
 -11  -1  20   14.96    2.57
  12 -11  20   12.36    2.10
  -1 -12  20    8.37    2.05
  13  -1  20    9.95    2.31
  -1 -12  20    7.93    2.12
  -4  -9  20   47.88    3.57
  13  -4  20   55.80    4.21
  -4  -9  20   53.20    3.66
 -13   7 -20   22.67    2.42
  -7  -6  20   19.26    2.41
  13  -7  20   23.35    2.80
  -7  -6  20   24.45    2.69
 -13  10 -20   32.90    3.47
  13 -10  20   31.16    3.16
 -10  -3  20   29.37    3.12
 -10  -3  20   30.44    2.94
  13 -13  20    9.34    2.37
 -13   0  20   11.04    2.13
 -13   0  20   13.81    2.79
  -3 -11  20   32.40    3.19
  14  -3  20   29.27    3.30
  -3 -11  20   21.89    2.77
  14  -6  20    6.00    2.16
  -6  -8  20    7.75    1.98
  -6  -8  20    9.04    2.15
 -14   9 -20    8.75    2.26
  -9  -5  20    7.30    2.23
  14  -9  20    6.37    2.24
  -9  -5  20    5.67    1.97
 -15   8 -20   14.81    2.54
  -8  -7  20   13.02    2.46
  -8  -7  20   11.15    2.51
  15  -8  20    7.62    2.52
   0   0 -21    4.47    0.89
   0   0 -21    4.13    1.00
   0   0  21    5.17    1.01
  -1   2 -21   90.83    3.15
   2  -1 -21   86.32    3.11
   2  -1 -21   88.57    3.06
  -1   2 -21   84.22    3.20
   1   1  21   86.00    3.03
  -2   1  21   81.66    3.15
  -2   1 -21   64.49    2.44
  -2   1 -21   63.26    2.55
   1   1 -21   67.85    2.79
  -1   2  21   68.55    2.70
  -1  -1  21   64.58    2.68
  -2   4 -21  171.70    5.20
   4  -2 -21  171.03    5.03
   4  -2 -21  161.89    4.95
  -4   2  21  172.55    5.19
   2  -4  21  178.42    5.13
   3  -3 -21   -0.05    0.66
   0   3 -21    1.80    1.02
  -3   3  21    1.65    0.82
   3   0  21   -0.24    0.98
   3   0 -21   13.15    1.54
  -3   3 -21   16.37    1.53
  -3   3 -21   18.17    1.68
   3  -3  21   15.94    1.71
  -3   0  21   14.96    1.59
  -3   6 -21  142.51    4.77
   3  -6  21  143.73    4.12
  -6   3  21  131.60    4.60
   3  -6  21  134.73    4.37
   3   3  21  141.00    4.66
  -1   5 -21    5.16    1.25
   5  -4 -21    2.80    1.01
   5  -4 -21    5.43    1.03
   1  -5  21    5.43    1.14
   1  -5  21    3.28    0.97
   4   1  21    4.55    1.20
  -5   4  21    5.26    1.23
   2   2 -21  329.75    8.51
  -4   2 -21  335.80    8.24
  -4   2 -21  332.26    8.12
  -2  -2  21  320.18    8.35
   4  -2  21  330.14    8.58
  -4   5 -21   32.03    2.35
   4  -5  21   32.12    2.18
  -5   1  21   30.15    2.27
  -4   8 -21   94.64    4.06
   4   4  21   96.61    3.77
   4  -8  21   94.27    3.40
   4  -8  21   96.57    3.62
  -8   4  21   93.08    4.01
  -2   7 -21   52.77    3.01
   2  -7  21   49.90    2.47
   2  -7  21   50.34    2.57
   5   2  21   53.96    2.86
  -7   5  21   46.35    3.13
   1   4 -21    0.88    0.93
   5  -1  21   -0.29    0.95
   4   1 -21    0.39    0.94
  -5   4 -21    2.16    1.02
   5  -4  21   -0.31    0.93
  -4  -1  21   -0.16    0.88
  -5   7 -21    2.01    1.21
   5  -7  21    0.46    1.10
  -7   2  21   -0.20    1.11
   5 -10  21    1.30    1.09
   5 -10  21    0.41    1.09
 -10   5  21    1.54    1.34
   5   5  21    0.92    1.19
   3  -9  21   21.62    1.83
   3  -9  21   25.06    1.94
   3  -9  21   20.87    1.93
   6   3  21   25.55    2.32
   0   6 -21    1.82    1.14
   0  -6  21    2.53    1.02
   6   0  21    3.49    1.19
   0  -6  21    0.40    0.92
   3   3 -21   76.51    3.30
  -6   3 -21   81.06    3.13
  -6   3 -21   83.55    2.89
   6  -3  21   77.51    3.38
  -6   6 -21    5.49    1.36
   6  -6  21    3.54    1.23
  -6   0  21    5.07    1.30
  -6   9 -21   69.63    3.84
   6  -9  21   78.42    3.41
  -9   3  21   67.66    3.66
   3   6  21   72.08    3.31
  -6  -6 -21    7.89    2.07
   6 -12  21    7.21    1.68
 -12   6  21    9.38    2.14
   6   6  21    8.98    1.76
   6 -12  21    7.64    1.63
   7   4  21    3.50    1.51
   4 -11  21    6.15    1.44
   4 -11  21    5.94    1.24
   1  -8  21  109.43    3.58
   1  -8  21  104.84    3.97
   1  -8  21  112.90    3.87
   7   1  21  105.11    4.24
   2   5 -21   -0.62    0.91
   7  -2  21    0.46    1.10
  -2  -5  21   -0.97    0.95
  -7   5 -21   20.88    2.03
  -5  -2  21   19.37    1.89
   7  -5  21   17.44    1.96
  -7   8 -21   32.86    2.75
   7  -8  21   37.40    2.64
  -8   1  21   37.12    2.70
 -11   4  21   59.86    3.61
   7 -11  21   49.28    3.18
   4   7  21   50.89    2.88
  -7  -7 -21   60.19    4.45
   7 -14  21   55.64    3.80
   7 -14  21   60.14    4.41
  -8  -5 -21    4.16    1.93
   8   5  21    4.38    1.51
   5 -13  21    1.12    1.56
   8   2  21    4.37    1.53
   2 -10  21    8.87    1.63
   2 -10  21    7.57    1.49
  -1  -7  21   68.06    3.23
   8  -1  21   65.37    3.46
  -8   4 -21   78.40    3.31
   4   4 -21   82.00    3.56
   8  -4  21   80.51    3.64
  -8   7 -21  154.92    5.44
   8  -7  21  154.88    5.29
  -7  -1  21  160.98    5.13
  -8  10 -21   28.54    2.82
 -10   2  21   24.86    2.51
   8 -10  21   24.84    2.41
   2   8  21   21.09    2.10
   8 -13  21   24.93    2.45
 -13   5  21   17.49    2.56
  -9  -3 -21  126.16    5.03
   3 -12  21  115.78    4.82
   3 -12  21  125.11    4.70
   9   3  21  121.41    4.78
   9   0  21   12.75    1.95
   0  -9  21    8.55    1.61
   0  -9  21    9.24    1.65
   9  -3  21  138.98    5.01
  -3  -6  21  131.15    4.68
  -9   6 -21   24.24    2.24
   9  -6  21   28.15    2.53
  -9   9 -21    8.35    2.01
  -9   0  21    7.13    1.75
   9  -9  21    5.56    1.61
   9 -12  21   70.38    3.93
 -12   3  21   66.63    4.06
 -10  -4 -21    1.02    1.87
   4 -14  21    1.47    1.69
  10   4  21    0.50    1.42
   1 -11  21   13.57    1.94
  10   1  21    9.15    1.87
   1 -11  21   11.90    2.03
  10  -2  21   22.59    2.53
  -2  -8  21   17.66    2.16
  -2  -8  21   17.66    2.07
 -10   5 -21    1.09    1.27
  10  -5  21    3.11    1.39
  -5  -5  21    0.94    1.41
  -5  -5  21    1.08    1.24
 -10   8 -21   17.75    2.30
  10  -8  21   17.13    2.21
  -8  -2  21   13.21    1.81
 -10  11 -21    1.99    1.85
   1  10  21    0.16    1.35
  10 -11  21    0.21    1.67
 -11   1  21   -1.95    1.41
  10 -14  21   -1.78    1.78
 -14   4  21   -4.36    1.79
  10 -14  21    3.03    1.73
 -14   4  21   -2.56    1.79
 -11  -2 -21    5.66    1.85
   2 -13  21    1.97    1.86
  11   2  21    1.72    1.72
  11  -1  21    1.48    1.44
  -1 -10  21   -2.45    1.21
  -1 -10  21    1.34    1.36
  11  -4  21   15.85    2.18
  -4  -7  21   15.49    2.18
  -4  -7  21   15.96    2.07
 -11   7 -21    7.61    1.91
  -7  -4  21   10.32    1.86
  11  -7  21    8.98    1.93
  -7  -4  21   13.26    2.20
 -11  10 -21    3.10    1.93
  11 -10  21    2.66    1.73
 -10  -1  21    6.36    1.72
 -10  -1  21    2.46    1.81
 -13   2  21   29.80    3.21
  11 -13  21   23.10    2.80
 -13   2  21   25.45    3.14
  11 -13  21   24.23    2.91
   0 -12  21    1.87    1.71
  12   0  21    6.16    2.02
   0 -12  21    5.23    1.68
  12  -3  21   47.54    3.82
  -3  -9  21   47.28    3.45
  -3  -9  21   52.95    3.51
  -6  -6  21   13.41    2.09
  -6  -6  21   12.78    2.09
  12  -6  21   16.63    2.52
 -12   9 -21   88.49    4.80
  -9  -3  21  101.50    4.58
  -9  -3  21  100.67    4.82
  12  -9  21  101.50    4.84
 -12  12 -21    9.30    2.50
  12 -12  21   12.08    2.06
  12 -12  21    9.70    2.34
 -12   0  21    8.51    1.89
 -12   0  21    9.53    2.34
  13  -2  21   37.93    3.53
  -2 -11  21   42.36    3.38
  -2 -11  21   40.37    3.43
  -5  -8  21   32.09    3.08
  -5  -8  21   28.49    2.85
  13  -5  21   26.08    2.90
 -13   8 -21   13.03    2.39
  -8  -5  21   11.40    2.22
  13  -8  21   12.98    2.45
  -8  -5  21   10.70    2.19
 -13  11 -21    2.24    2.26
 -11  -2  21    0.04    1.93
 -11  -2  21    2.77    1.92
  13 -11  21    0.73    1.95
  -4 -10  21   -1.35    1.67
  -4 -10  21    2.07    1.86
  14  -4  21   -3.33    1.74
  -7  -7  21   87.69    4.79
  14  -7  21   87.28    5.10
  -7  -7  21   88.64    4.62
 -14  10 -21    6.65    2.34
 -10  -4  21    7.45    2.35
 -10  -4  21    7.49    2.14
  14 -10  21    8.97    2.45
   0   1 -22   19.65    1.69
  -1   0 -22   16.01    1.45
   0   1 -22   16.35    1.48
   1  -1 -22   19.87    1.60
   1  -1 -22   16.59    1.42
  -1   0 -22   18.31    1.46
   1   0  22   16.34    1.52
   0  -1  22   18.13    1.61
  -1   1  22   15.83    1.56
   3  -2 -22  195.87    5.45
   3  -2 -22  196.61    5.46
  -1   3 -22  201.11    5.74
  -3   2  22  191.85    5.67
   2   0 -22    6.46    1.21
  -2   2 -22    8.94    1.30
   2   0 -22    6.94    1.14
  -2   2 -22    6.23    1.04
  -2   0  22    9.41    1.35
   0   2  22    6.35    1.11
  -2   5 -22    3.37    1.22
   5  -3 -22    5.00    1.18
   2  -5  22    2.83    0.96
   3   2  22    5.47    1.30
   2  -5  22    5.48    1.28
  -5   3  22    2.43    1.06
   1   2 -22  195.66    5.85
   3  -1  22  204.46    6.02
  -1  -2  22  212.13    5.78
  -2   3  22  204.63    5.79
  -3   4 -22  124.85    4.31
   4  -1 -22  129.73    4.24
  -4   1  22  126.31    4.30
   3  -4  22  123.70    4.24
  -3   7 -22  287.69    8.26
   3  -7  22  309.45    7.79
   3  -7  22  292.99    7.45
  -7   4  22  285.21    8.22
   4   3  22  306.22    8.15
   0   4 -22   14.68    1.67
   4   0  22   16.09    1.78
   3   1 -22  130.98    4.37
  -4   3 -22  130.91    4.23
   4  -3  22  127.22    4.36
  -3  -1  22  124.19    4.19
  -4   6 -22   31.58    2.54
  -6   2  22   30.76    2.49
   4  -6  22   30.98    2.19
  -4   9 -22   -0.62    1.25
  -9   5  22    0.25    1.28
   4  -9  22    0.48    1.03
   4  -9  22   -0.41    1.01
   5   4  22    1.78    1.29
  -1   6 -22    5.13    1.38
   6  -5 -22    3.75    1.05
   1  -6  22    3.31    1.03
   1  -6  22    3.42    1.14
   5   1  22    2.71    1.26
   2   3 -22    6.23    1.31
  -5   2 -22    8.00    1.07
  -5   2 -22    5.25    1.07
   5  -2  22    6.78    1.36
  -5   5 -22   23.39    2.14
   5  -5  22   20.89    2.01
  -5   0  22   25.41    2.20
  -5   8 -22    1.01    1.34
   3   5  22    0.35    1.15
   5  -8  22    1.33    1.18
  -8   3  22    0.56    1.26
   5 -11  22   21.41    2.19
   6   5  22   21.09    2.30
   5 -11  22   22.81    2.06
  -2   8 -22   41.72    2.95
   2  -8  22   43.44    2.60
   2  -8  22   42.67    2.36
   6   2  22   42.37    2.82
   1   5 -22   47.70    2.69
   6  -1  22   44.03    2.68
  -1  -5  22   45.13    2.54
   4   2 -22   96.50    3.78
  -6   4 -22   99.87    3.71
   6  -4  22   99.05    3.91
  -4  -2  22   96.79    3.65
  -6   7 -22   76.16    3.75
   6  -7  22   77.89    3.51
  -7   1  22   79.77    3.59
  -6  10 -22   23.07    2.64
   4   6  22   26.78    2.24
 -10   4  22   23.08    2.54
   6 -10  22   25.16    2.23
   6 -13  22   59.48    3.77
   7   6  22   61.54    3.45
   3 -10  22   16.13    1.91
   3 -10  22   16.70    1.79
   3 -10  22   16.42    1.69
   7   3  22   18.79    2.21
   7   0  22   30.43    2.59
   0  -7  22   31.33    2.35
   0  -7  22   25.18    1.93
   3   4 -22   87.41    3.68
   7  -3  22   88.07    3.76
  -7   6 -22   31.42    2.61
   7  -6  22   27.49    2.39
  -6  -1  22   30.71    2.36
  -7   9 -22  152.61    5.71
   2   7  22  145.54    5.05
  -9   2  22  154.08    5.45
   7  -9  22  156.74    5.21
   7 -12  22   37.94    2.87
 -12   5  22   42.25    3.65
   7 -12  22   36.07    2.84
   5   7  22   34.75    2.69
   8   4  22   48.01    3.23
   4 -12  22   57.67    3.54
   1  -9  22   61.39    3.29
   1  -9  22   71.68    3.34
   8   1  22   73.81    3.70
   8  -2  22  178.95    5.90
  -2  -6  22  175.26    5.51
  -8   5 -22   27.01    2.26
   8  -5  22   29.00    2.48
  -8   8 -22   36.18    3.02
  -8   0  22   36.51    2.82
   8  -8  22   34.29    2.74
 -11   3  22   22.97    2.72
   3   8  22   22.17    2.11
   8 -11  22   23.81    2.50
   8 -14  22   14.57    2.70
 -14   6  22   14.14    2.64
  -9  -5 -22    3.40    2.12
   5 -14  22    5.31    2.00
   2 -11  22   51.98    3.31
   2 -11  22   51.23    2.96
   9   2  22   45.83    3.24
  -1  -8  22   42.05    2.95
   9  -1  22   43.69    3.05
  -1  -8  22   40.75    2.86
  -4  -5  22    0.09    1.12
   9  -4  22    1.61    1.25
  -9   7 -22  182.96    6.14
   9  -7  22  177.38    6.03
  -7  -2  22  186.00    5.69
  -9  10 -22   25.70    2.94
   9 -10  22   32.58    2.85
 -10   1  22   30.72    2.82
 -13   4  22   92.85    4.76
   9 -13  22   85.41    4.39
   3 -13  22   33.36    3.07
  10   3  22   36.55    3.01
   0 -10  22   16.00    2.09
  10   0  22   22.32    2.52
   0 -10  22   16.02    2.06
  -3  -7  22   32.65    2.74
  -3  -7  22   31.04    2.75
  10  -3  22   31.29    2.80
 -10   6 -22   15.27    2.06
  10  -6  22   16.39    2.21
  -6  -4  22   15.69    2.05
 -10   9 -22    2.66    1.68
  10  -9  22    1.85    1.53
  -9  -1  22    0.00    1.25
  10 -12  22    2.14    1.72
 -12   2  22    1.84    1.78
   1 -12  22   10.00    1.85
   1 -12  22    8.91    2.04
  11   1  22   11.36    2.14
  11  -2  22   14.98    2.27
  -2  -9  22   18.11    2.34
  -2  -9  22   18.72    2.25
  -5  -6  22   28.47    2.84
  11  -5  22   23.31    2.53
  -5  -6  22   21.89    2.39
 -11   8 -22   34.83    3.12
  11  -8  22   38.28    3.26
  -8  -3  22   36.66    3.25
 -11  11 -22    6.52    2.23
 -11   0  22    3.88    1.61
 -11   0  22    6.18    2.13
  11 -11  22    5.63    1.98
  -1 -11  22    0.77    1.67
  -1 -11  22    1.57    1.58
  12  -1  22   -0.02    1.64
  12  -4  22   86.60    4.59
  -4  -8  22   81.01    4.18
  -4  -8  22   99.69    4.50
 -12   7 -22    0.16    1.51
  -7  -5  22    3.55    1.86
  12  -7  22   -1.56    1.42
  -7  -5  22   -0.64    1.34
 -12  10 -22   22.40    2.93
 -10  -2  22   26.29    3.07
  12 -10  22   27.87    3.04
 -13   1  22    7.76    2.15
  12 -13  22   13.77    2.68
 -13   1  22    5.80    2.57
  12 -13  22    5.48    2.11
  13  -3  22   -0.16    1.82
  -3 -10  22    1.33    1.64
  -3 -10  22    1.23    1.54
  -6  -7  22   15.48    2.43
  13  -6  22   14.48    2.49
  -6  -7  22   12.51    2.10
 -13   9 -22   25.23    3.08
  -9  -4  22   28.22    2.95
  13  -9  22   28.45    3.18
  -9  -4  22   27.73    3.15
 -13  12 -22   75.20    5.16
 -12  -1  22   83.72    5.18
  13 -12  22   91.31    5.18
  -5  -9  22    8.32    2.29
  14  -5  22    4.45    2.27
  -5  -9  22    5.89    2.04
 -14   8 -22   58.38    4.04
  14  -8  22   65.46    4.68
  -8  -6  22   69.17    4.53
  -8  -6  22   65.36    4.31
   1   0 -23   39.99    2.18
  -1   1 -23   45.19    2.16
  -1   1 -23   46.99    2.33
   1   0 -23   42.09    2.31
   1  -1  23   39.94    2.26
  -1   0  23   41.36    2.30
   0   1  23   42.91    2.24
   2  -2 -23    2.28    0.88
   2  -2 -23    2.41    0.92
   0   2 -23    3.34    1.10
   2   0  23    1.36    0.93
  -2   2  23    1.79    1.04
  -2   3 -23   63.50    2.89
   3  -1 -23   63.19    2.79
  -3   1  23   61.21    2.85
   2  -3  23   55.47    2.87
  -1   4 -23   64.00    3.03
   4  -3 -23   57.71    2.57
   4  -3 -23   63.28    2.67
  -4   3  23   59.72    2.93
   1  -4  23   60.25    2.85
   3   1  23   57.03    2.99
  -3   2 -23  380.69    9.48
   2   1 -23  386.37    9.72
  -3   2 -23  386.76    9.41
  -2  -1  23  393.42    9.68
   3  -2  23  370.95    9.77
   5  -2 -23    1.42    1.03
  -3   5 -23    0.81    1.15
   3  -5  23    4.16    1.17
  -5   2  23    2.27    1.21
   3  -5  23    0.73    0.84
   6  -4 -23   99.81    3.72
  -2   6 -23  102.12    4.16
   2  -6  23  105.71    3.59
   4   2  23   98.62    4.03
  -6   4  23  104.87    4.48
   2  -6  23  102.73    3.73
   1   3 -23   82.52    3.45
   4  -1  23   83.48    3.56
   4   0 -23    0.90    1.03
  -4   4 -23    1.83    1.07
  -4   0  23   -0.08    1.01
   4  -4  23    1.21    1.05
  -4   7 -23  206.68    6.50
   4  -7  23  205.35    6.05
   4  -7  23  201.96    5.53
  -7   3  23  213.99    6.50
   3   4  23  197.78    6.21
  -3   8 -23   52.25    3.28
   5   3  23   46.36    2.94
   3  -8  23   49.18    2.69
   3  -8  23   54.82    2.76
   0   5 -23   69.49    3.32
   5   0  23   74.29    3.34
   3   2 -23   61.83    3.06
  -5   3 -23   60.13    2.81
  -3  -2  23   62.03    2.88
   5  -3  23   59.70    3.06
  -5   6 -23   72.67    3.49
  -6   1  23   72.19    3.38
   5  -6  23   67.56    3.23
  -5   9 -23    3.84    1.55
   4   5  23    4.58    1.47
   5  -9  23    4.01    1.34
   5  -9  23    5.17    1.25
  -9   4  23    6.20    1.62
   4 -10  23   36.01    2.36
   4 -10  23   35.02    2.47
   4 -10  23   36.30    2.65
   6   4  23   37.59    2.84
  -1   7 -23   17.27    2.07
   6   1  23   23.76    2.35
   1  -7  23   21.96    2.00
   1  -7  23   22.34    1.86
   2   4 -23   31.38    2.46
   6  -2  23   32.80    2.46
  -6   5 -23   42.72    2.78
   5   1 -23   46.62    2.77
   6  -5  23   49.23    2.84
  -5  -1  23   47.69    2.69
  -6   8 -23   30.38    2.78
   6  -8  23   29.09    2.44
  -8   2  23   29.38    2.69
 -11   5  23    5.62    1.97
   6 -11  23    8.92    1.69
   5   6  23    8.79    1.74
   6 -11  23   10.27    1.76
   5 -12  23    0.65    1.47
   7   5  23   -1.50    1.41
   2  -9  23   47.25    2.55
   2  -9  23   51.84    3.00
   7   2  23   47.32    3.13
   2  -9  23   48.81    2.82
   1   6 -23    7.09    1.53
  -1  -6  23    8.25    1.40
  -1  -6  23    8.91    1.53
   7  -1  23    8.36    1.70
  -7   4 -23   80.76    3.43
   4   3 -23   82.20    3.58
   7  -4  23   76.71    3.62
  -7   7 -23   24.49    2.49
   7  -7  23   24.40    2.38
  -7   0  23   23.72    2.27
  -7  10 -23    3.10    1.76
   7 -10  23    3.94    1.51
 -10   3  23    3.09    1.64
   3   7  23    1.91    1.43
 -13   6  23   -0.43    1.85
   7 -13  23    0.74    1.52
   6 -14  23   20.73    2.65
   3 -11  23   54.11    3.04
   8   3  23   55.42    3.47
   3 -11  23   56.96    3.39
   8   0  23    0.35    1.35
   0  -8  23   -0.21    1.15
   0  -8  23    0.51    1.19
   8  -3  23   16.48    2.11
  -3  -5  23   16.95    1.93
  -8   6 -23   65.41    3.48
  -6  -2  23   69.05    3.24
   8  -6  23   65.65    3.43
  -8   9 -23    7.33    2.00
   8  -9  23   13.61    1.95
  -9   1  23   11.70    2.01
   4   8  23  151.65    5.28
 -12   4  23  156.60    6.13
   8 -12  23  166.07    5.72
   4 -13  23   57.59    3.94
   9   4  23   61.97    3.64
   1 -10  23    2.37    1.40
   9   1  23    2.93    1.60
   1 -10  23    2.87    1.46
   9  -2  23  243.20    7.44
  -2  -7  23  256.36    7.20
  -2  -7  23  234.64    7.07
  -9   5 -23   18.05    1.99
   9  -5  23   15.60    2.07
  -9   8 -23  186.21    6.29
   9  -8  23  164.87    5.94
  -8  -1  23  172.85    5.68
  -9  11 -23    5.98    2.11
   9 -11  23    7.32    1.85
 -11   2  23    2.01    1.73
   2   9  23    1.77    1.37
   9 -14  23    2.03    1.76
 -14   5  23    1.07    2.15
   9 -14  23    3.42    2.29
   2 -12  23   69.24    3.53
   2 -12  23   64.02    3.94
  10   2  23   69.66    3.95
  10  -1  23    1.58    1.44
  -1  -9  23   -0.75    1.36
  -1  -9  23    4.00    1.51
  -4  -6  23   -1.18    1.33
  10  -4  23    2.41    1.47
  -4  -6  23    5.61    1.52
 -10   7 -23    2.45    1.56
  10  -7  23    5.31    1.74
 -10  10 -23   33.31    3.29
  10 -10  23   32.12    3.02
 -10   0  23   38.82    3.08
  10 -13  23   10.74    2.46
  10 -13  23   11.29    2.34
 -13   3  23    7.92    2.35
   0 -11  23   26.82    2.80
  11   0  23   27.60    2.89
   0 -11  23   27.72    2.71
  11  -3  23    2.39    1.70
  -3  -8  23    0.49    1.45
  -3  -8  23    4.75    1.67
 -11   6 -23   30.55    2.55
  -6  -5  23   30.49    2.89
  11  -6  23   30.96    2.94
  -6  -5  23   30.80    2.98
 -11   9 -23   16.58    2.52
  -9  -2  23   12.90    2.34
  11  -9  23   18.54    2.56
  -9  -2  23   12.96    2.00
 -11  12 -23   21.64    3.08
  11 -12  23   23.01    2.82
 -12   1  23   22.30    2.86
 -12   1  23   21.46    2.76
  11 -12  23   25.87    2.88
  12  -2  23    1.92    1.80
  -2 -10  23    1.89    1.62
  -2 -10  23   -0.51    1.50
  -5  -7  23    6.03    1.78
  -5  -7  23    6.43    1.97
  12  -5  23    5.47    1.95
 -12   8 -23    9.41    2.18
  12  -8  23   12.66    2.31
  -8  -4  23    6.98    1.95
  -8  -4  23   11.03    2.29
 -12  11 -23    3.41    2.14
  12 -11  23    3.04    1.73
 -11  -1  23    0.61    1.97
  12 -11  23    1.72    1.93
 -11  -1  23    4.53    1.65
  -4  -9  23   20.01    2.72
  13  -4  23   19.87    2.90
  -4  -9  23   17.73    2.45
 -13   7 -23   90.62    4.35
  -7  -6  23  106.24    5.04
  13  -7  23   89.36    4.99
  -7  -6  23   98.81    4.76
 -13  10 -23    5.76    2.46
  13 -10  23    4.37    2.12
 -10  -3  23    8.76    2.22
 -10  -3  23    9.89    2.45
  14  -6  23    2.81    2.26
  -6  -8  23    1.33    1.91
  -6  -8  23    0.34    1.94
 -14   9 -23    2.46    2.08
  14  -9  23   -0.14    2.16
  -9  -5  23    3.16    2.19
  -9  -5  23    2.42    2.00
   0   0 -24  185.90    5.28
   0   0 -24  190.40    5.29
   0   0  24  184.62    5.41
  -1   2 -24   45.13    2.49
   2  -1 -24   40.50    2.33
   2  -1 -24   41.87    2.33
  -2   1  24   43.45    2.47
  -2   1 -24   39.25    2.02
   1   1 -24   36.23    2.37
  -2   1 -24   35.30    2.15
  -1  -1  24   32.70    2.20
   4  -2 -24   36.10    2.31
  -2   4 -24   34.83    2.49
   2  -4  24   33.47    2.38
  -4   2  24   31.52    2.37
   3  -3 -24    5.58    1.09
   0   3 -24    4.88    1.29
   3   0  24    4.83    1.36
  -3   3 -24   41.23    2.45
   3   0 -24   43.78    2.52
  -3   0  24   39.87    2.50
   3  -3  24   37.31    2.52
  -3   6 -24  180.88    5.82
   6  -3 -24  181.00    5.51
   3  -6  24  182.31    5.08
   3  -6  24  174.98    5.45
   3   3  24  181.05    5.74
  -6   3  24  175.50    5.81
  -1   5 -24   23.60    2.23
   5  -4 -24   21.26    1.78
   1  -5  24   24.02    2.05
   4   1  24   19.46    2.12
  -4   2 -24  318.77    7.74
   2   2 -24  311.70    8.25
  -4   2 -24  297.93    7.84
  -2  -2  24  299.86    8.07
   4  -2  24  300.88    8.30
   5  -1 -24   89.48    3.64
  -4   5 -24   87.75    3.72
  -5   1  24   89.02    3.68
   4  -5  24   85.50    3.57
  -4   8 -24   77.56    4.03
  -8   4  24   85.05    3.98
   4  -8  24   80.50    3.25
   4   4  24   77.85    3.70
   4  -8  24   78.45    3.49
  -2   7 -24   26.08    2.44
   7  -5 -24   26.41    2.17
   2  -7  24   31.97    2.27
   5   2  24   27.26    2.38
   2  -7  24   22.86    1.94
   1   4 -24   54.95    2.99
   5  -1  24   48.52    2.89
  -5   4 -24   47.94    2.75
   4   1 -24   50.96    2.87
   5  -4  24   51.75    2.88
  -4  -1  24   55.79    2.81
  -5   7 -24   -0.02    1.26
  -7   2  24   -0.15    1.17
   5  -7  24    1.63    1.17
   5   5  24   69.10    3.56
   5 -10  24   76.93    3.49
   5 -10  24   75.02    3.35
   6   3  24    5.38    1.56
   3  -9  24    6.09    1.42
   3  -9  24    4.51    1.32
   0   6 -24   75.96    3.59
   0  -6  24   71.32    3.20
   6   0  24   67.46    3.44
   0  -6  24   71.49    3.11
   3   3 -24    5.18    1.35
  -6   3 -24    3.06    1.13
   6  -3  24    3.90    1.30
  -6   6 -24   71.11    3.56
  -6   0  24   74.20    3.50
   6  -6  24   73.07    3.46
  -6   9 -24   17.71    2.38
   3   6  24   16.74    2.02
   6  -9  24   15.97    1.93
  -9   3  24   15.89    2.26
   6 -12  24   13.69    1.99
   6 -12  24   18.09    2.12
   6   6  24   11.86    2.05
   4 -11  24   -0.95    1.28
   7   4  24    1.97    1.58
   4 -11  24    1.80    1.19
   1  -8  24   29.71    2.21
   1  -8  24   28.89    2.31
   7   1  24   29.17    2.63
   2   5 -24   -1.86    1.03
   7  -2  24    0.11    1.16
  -2  -5  24   -0.46    1.00
   5   2 -24    2.02    1.24
  -7   5 -24    3.82    1.40
  -5  -2  24    3.30    1.32
   7  -5  24    1.40    1.26
  -7   8 -24    1.27    1.51
   7  -8  24    2.39    1.34
  -8   1  24    2.81    1.43
   7 -11  24   33.95    2.72
 -11   4  24   20.99    2.71
   4   7  24   24.61    2.34
   5 -13  24    2.12    1.67
   8   5  24    1.27    1.51
   8   2  24   14.05    2.15
   2 -10  24   10.92    1.80
   2 -10  24    8.19    1.58
  -1  -7  24   75.27    3.09
   8  -1  24   76.45    3.83
  -1  -7  24   71.16    3.52
  -8   4 -24   21.82    2.03
   4   4 -24   18.89    2.11
   8  -4  24   20.79    2.34
  -8   7 -24  195.44    6.51
  -7  -1  24  196.98    6.17
   8  -7  24  198.79    6.37
  -8  10 -24    0.51    1.68
   2   8  24    1.73    1.45
   8 -10  24    3.75    1.58
 -10   2  24    4.17    1.75
 -13   5  24   52.64    4.14
   8 -13  24   49.73    3.56
   3 -12  24  133.69    5.13
   9   3  24  121.66    5.12
   0  -9  24   18.32    2.19
   9   0  24   18.08    2.38
   0  -9  24   18.09    2.19
   9  -3  24   94.40    4.33
  -3  -6  24  102.57    4.19
  -9   6 -24    9.15    1.77
   9  -6  24    9.02    1.79
  -9   9 -24   -0.40    1.52
  -9   0  24    1.54    1.49
   9  -9  24    0.96    1.39
   9 -12  24   47.21    3.61
 -12   3  24   46.74    3.87
   1 -11  24    4.64    1.71
   1 -11  24   -1.50    1.31
  10   1  24    4.58    1.70
  10  -2  24   21.36    2.50
  -2  -8  24   22.63    2.39
  -2  -8  24   29.20    2.80
  -5  -5  24   71.67    3.68
  10  -5  24   68.22    3.85
 -10   8 -24   22.48    2.61
  10  -8  24   24.07    2.72
  -8  -2  24   24.03    2.36
 -10  11 -24   50.41    4.11
 -11   1  24   54.06    3.75
  10 -11  24   60.89    3.93
   1  10  24   54.08    3.41
  -1 -10  24   51.18    3.63
  11  -1  24   60.26    3.92
  -1 -10  24   60.55    3.68
  11  -4  24    8.73    2.17
  -4  -7  24    6.30    1.81
  -4  -7  24   10.56    2.08
 -11   7 -24   21.30    2.51
  11  -7  24   21.09    2.58
  -7  -4  24   22.87    2.59
  -7  -4  24   19.62    2.72
 -11  10 -24   37.93    3.60
 -10  -1  24   42.35    3.19
  11 -10  24   36.55    3.44
 -13   2  24    3.14    2.18
   0 -12  24    8.42    2.22
  12   0  24   16.35    2.73
   0 -12  24   12.97    2.19
  12  -3  24    6.18    2.07
  -3  -9  24    5.79    1.92
  -3  -9  24    4.19    1.88
  12  -6  24    4.12    1.82
  -6  -6  24    1.53    1.62
  -6  -6  24    0.34    1.62
 -12   9 -24   12.68    2.48
  -9  -3  24   13.82    2.51
  -9  -3  24    8.95    2.23
  12  -9  24   13.01    2.50
 -12  12 -24    2.95    2.20
 -12   0  24    5.18    2.46
 -12   0  24    3.54    1.97
  12 -12  24    7.28    2.06
  12 -12  24    3.35    2.21
  13  -5  24    7.65    2.48
  -5  -8  24    4.39    1.95
  -5  -8  24    3.19    1.94
 -13   8 -24   31.05    3.10
  -8  -5  24   31.96    3.33
  13  -8  24   35.31    3.44
  -8  -5  24   35.66    3.26
  -1   0 -25   77.45    2.84
  -1   0 -25   75.38    2.92
   1  -1 -25   74.08    2.85
   0   1 -25   76.80    3.17
   1  -1 -25   78.23    2.98
   0  -1  25   72.97    3.13
   3  -2 -25    4.10    1.07
  -1   3 -25    1.75    1.13
  -3   2  25    2.91    1.34
  -2   2 -25   10.38    1.43
   2   0 -25    8.93    1.42
   2  -2  25    9.39    1.56
  -2   0  25    9.62    1.50
   5  -3 -25    4.56    1.16
  -2   5 -25    5.18    1.46
   2  -5  25    4.52    1.29
   3   2  25    4.01    1.36
   1   2 -25  118.52    4.18
  -1  -2  25  110.79    4.01
   3  -1  25  108.09    4.25
   4  -1 -25    1.77    1.13
  -3   4 -25    4.32    1.29
   3  -4  25    4.00    1.29
  -4   1  25    2.79    1.20
   7  -4 -25  145.28    4.84
  -3   7 -25  143.51    5.23
   3  -7  25  141.87    4.46
   3  -7  25  144.03    4.80
   4   3  25  138.17    5.06
   0   4 -25   72.26    3.39
   4   0  25   66.06    3.37
  -4   3 -25   48.82    2.66
   3   1 -25   50.62    2.79
  -3  -1  25   48.04    2.69
   4  -3  25   49.52    2.83
   6  -2 -25    0.75    1.10
  -4   6 -25    2.42    1.31
   4  -6  25   -1.20    1.02
  -6   2  25   -0.90    1.12
  -4   9 -25   12.64    2.16
   4  -9  25   11.84    1.61
   4  -9  25   12.82    1.77
   5   4  25   11.60    1.86
   6  -5 -25   33.11    2.22
  -1   6 -25   35.06    2.75
   1  -6  25   33.32    2.45
   5   1  25   28.56    2.49
   1  -6  25   31.26    2.36
   2   3 -25    6.96    1.46
   5  -2  25    7.94    1.55
   5   0 -25  113.37    4.29
  -5   5 -25  103.53    4.29
  -5   0  25  124.77    4.44
   5  -5  25  111.05    4.25
  -5   8 -25    2.03    1.50
  -8   3  25    5.62    1.72
   5  -8  25    3.48    1.36
   3   5  25    4.41    1.54
   5 -11  25   87.07    3.90
   6   5  25   86.67    4.17
   5 -11  25   88.44    3.88
   8  -6 -25    0.57    1.14
  -2   8 -25    0.14    1.35
   6   2  25    0.51    1.35
   2  -8  25   -0.35    1.09
   2  -8  25    2.89    1.11
   1   5 -25   67.06    3.44
   6  -1  25   66.99    3.42
  -6   4 -25   21.24    2.02
   4   2 -25   26.77    2.43
   6  -4  25   24.51    2.26
  -4  -2  25   18.81    1.96
  -6   7 -25   22.09    2.40
   6  -7  25   24.63    2.37
  -7   1  25   18.47    2.16
  -6  10 -25   24.85    2.80
   6 -10  25   21.94    2.26
   4   6  25   26.81    2.45
 -10   4  25   22.83    2.74
   6 -13  25    6.37    1.86
   7   6  25    6.81    1.84
   7   3  25    2.61    1.69
   3 -10  25   -0.32    1.18
   3 -10  25   -0.94    1.14
   3 -10  25    0.36    1.12
   0  -7  25   10.55    1.69
   7   0  25   12.34    2.00
   0  -7  25   11.11    1.59
   3   4 -25   -0.50    1.14
   7  -3  25   -0.65    1.17
   6   1 -25   -0.43    1.16
  -7   6 -25    0.70    1.34
   7  -6  25   -0.18    1.19
  -6  -1  25    0.58    1.17
  -7   9 -25    2.84    1.73
   7  -9  25    4.38    1.50
  -9   2  25    2.83    1.54
   2   7  25    1.70    1.49
   5   7  25   10.49    1.92
   7 -12  25   11.46    2.04
 -12   5  25   10.30    2.45
   8   4  25   26.07    2.76
   4 -12  25   32.52    2.77
   1  -9  25    0.89    1.28
   8   1  25    0.49    1.48
   1  -9  25    1.71    1.38
  -2  -6  25   77.23    3.61
   8  -2  25   78.90    3.91
   5   3 -25    2.17    1.32
  -8   5 -25    1.56    1.29
   8  -5  25    5.33    1.56
  -8   8 -25   25.72    2.73
  -8   0  25   24.17    2.54
   8  -8  25   32.63    2.77
  -8  11 -25   25.40    3.05
   3   8  25   23.75    2.38
 -11   3  25   19.22    2.60
   8 -11  25   28.12    2.71
   2 -11  25   42.30    3.27
   2 -11  25   32.42    2.69
   9   2  25   35.36    3.13
  -1  -8  25   11.31    1.86
   9  -1  25   12.04    2.09
  -1  -8  25   15.38    2.18
  -4  -5  25    1.79    1.45
   9  -4  25    3.51    1.54
  -9   7 -25   72.88    3.99
  -7  -2  25   73.45    3.62
   9  -7  25   78.52    3.96
  -9  10 -25   38.61    3.59
   9 -10  25   32.64    2.90
 -10   1  25   28.33    2.95
   9 -13  25   27.72    2.95
 -13   4  25   26.55    3.29
  10   3  25   14.92    2.43
   3 -13  25    9.21    2.22
   0 -10  25   64.07    3.80
  10   0  25   64.40    3.89
   0 -10  25   62.19    3.67
  -3  -7  25   29.91    2.93
  10  -3  25   24.60    2.63
  -3  -7  25   23.85    2.54
 -10   6 -25   45.81    3.33
  10  -6  25   51.91    3.47
 -10   9 -25    2.96    1.89
  10  -9  25   -0.41    1.54
  -9  -1  25    0.80    1.57
  10 -12  25    5.07    1.93
 -12   2  25    4.09    2.04
   1 -12  25   12.86    2.29
   1 -12  25   10.82    2.05
  11   1  25    9.24    2.17
  -2  -9  25    9.64    2.02
  11  -2  25    6.18    2.02
  -2  -9  25    4.36    1.89
  11  -5  25   57.71    3.89
  -5  -6  25   60.62    3.99
  -5  -6  25   57.89    3.63
 -11   8 -25    0.67    1.72
  11  -8  25    0.71    1.61
 -11  11 -25   32.61    3.57
 -11   0  25   32.94    3.01
  11 -11  25   36.46    3.33
  12  -1  25   15.77    2.51
  -1 -11  25   15.34    2.33
  -1 -11  25   13.57    2.35
  -4  -8  25    0.46    1.74
  -4  -8  25    0.48    1.57
  12  -4  25    1.78    1.78
 -12   7 -25    0.65    1.63
  -7  -5  25   -0.97    1.46
  12  -7  25    0.89    1.70
  -7  -5  25    1.94    1.91
 -12  10 -25   -0.95    1.93
  12 -10  25   -2.28    1.77
 -10  -2  25    0.56    2.12
  -3 -10  25    7.59    2.25
  -3 -10  25    6.45    2.22
  13  -3  25   11.33    2.63
  -6  -7  25    6.75    2.19
  13  -6  25    4.94    2.22
  -6  -7  25    5.70    2.13
 -13   9 -25   -0.03    2.11
  13  -9  25    3.56    2.08
  -9  -4  25    3.93    2.06
  -9  -4  25    0.10    2.07
   1   0 -26   45.54    2.51
  -1   1 -26   42.55    2.49
  -1   0  26   43.01    2.54
   2  -2 -26    1.00    0.92
   2  -2 -26    0.08    0.80
   0   2 -26    1.86    1.07
  -2   3 -26   21.38    2.04
   3  -1 -26   22.62    2.08
  -3   1  26   20.82    2.00
   2  -3  26   18.43    2.01
   4  -3 -26    8.18    1.28
  -1   4 -26    9.56    1.61
   3   1  26    8.14    1.63
   1  -4  26    7.35    1.52
   2   1 -26   86.91    3.58
  -3   2 -26   85.46    3.39
   3  -2  26   87.06    3.74
  -2  -1  26   87.55    3.55
   5  -2 -26    1.59    1.22
  -3   5 -26    0.53    1.22
  -5   2  26    0.15    1.13
   3  -5  26    0.47    1.10
   3  -5  26    1.26    0.94
  -2   6 -26    8.15    1.70
   6  -4 -26    8.79    1.50
   4   2  26    6.38    1.62
   2  -6  26    6.94    1.36
   2  -6  26    7.24    1.51
   1   3 -26   11.27    1.68
   4  -1  26   14.98    1.96
   4   0 -26   11.90    1.72
  -4   4 -26   13.02    1.75
  -4   0  26   13.05    1.75
   4  -4  26   11.46    1.73
  -4   7 -26   32.63    2.75
   7  -3 -26   35.70    2.69
  -7   3  26   37.15    2.98
   3   4  26   32.64    2.73
   4  -7  26   35.25    2.58
   4  -7  26   35.30    2.22
  -3   8 -26   18.21    2.35
   8  -5 -26   15.98    1.89
   3  -8  26   18.48    1.92
   3  -8  26   16.62    1.88
   5   3  26   19.65    2.28
   0   5 -26   75.64    3.71
   5   0  26   79.04    3.68
   0  -5  26   76.58    3.48
  -5   3 -26   19.17    1.83
   3   2 -26   16.48    1.94
  -3  -2  26   14.04    1.82
   5  -3  26   14.53    1.90
   6  -1 -26   50.62    2.98
  -5   6 -26   45.65    3.17
   5  -6  26   49.76    2.96
  -6   1  26   46.40    3.04
  -5   9 -26    3.83    1.78
   5  -9  26    3.21    1.27
   4   5  26    8.81    1.74
   5  -9  26    7.87    1.63
   6   4  26   32.26    2.84
   4 -10  26   29.02    2.37
   4 -10  26   33.59    2.57
  -1   7 -26   -0.79    1.27
   1  -7  26    1.12    1.14
   1  -7  26    0.32    1.14
   6   1  26   -2.11    1.17
   2   4 -26    0.67    1.24
   6  -2  26    0.74    1.21
  -6   5 -26   22.73    2.27
   5   1 -26   24.60    2.34
  -5  -1  26   22.33    2.12
   6  -5  26   23.28    2.35
  -6   8 -26    7.69    1.95
  -8   2  26    6.18    1.80
   6  -8  26    5.99    1.61
   6 -11  26   16.37    2.12
   5   6  26   14.38    2.05
   5 -12  26    2.68    1.63
   7   5  26    3.17    1.64
   9  -7 -26    6.31    1.52
   2  -9  26   11.15    1.60
   2  -9  26    9.07    1.80
   7   2  26    9.42    1.97
   1   6 -26    3.62    1.45
  -1  -6  26    4.79    1.39
  -1  -6  26    2.41    1.27
   7  -1  26    2.53    1.34
  -7   4 -26    5.46    1.43
   4   3 -26    3.94    1.47
   7  -4  26    6.47    1.52
  -7   7 -26    6.48    1.85
   7  -7  26    7.04    1.74
  -7   0  26    9.69    1.89
  -7  10 -26   18.43    2.69
   3   7  26    9.19    1.95
 -10   3  26   12.23    2.19
   7 -10  26   10.37    1.98
  11  -8 -26   13.27    2.00
   8   3  26   19.39    2.48
   3 -11  26   18.01    2.26
   0  -8  26    1.53    1.34
   8   0  26    2.01    1.42
   0  -8  26    3.06    1.11
   8  -3  26   21.40    2.47
  -3  -5  26   20.73    2.23
  -8   6 -26   16.04    2.05
   6   2 -26   14.81    2.06
   8  -6  26   16.61    2.20
  -6  -2  26   14.17    1.94
  -8   9 -26    3.01    1.94
  -9   1  26    3.42    1.71
   8  -9  26    3.04    1.57
 -12   4  26   35.78    3.53
   8 -12  26   32.44    2.93
   4   8  26   29.22    2.64
   1 -10  26    0.82    1.49
   9   1  26    1.63    1.72
   1 -10  26   -1.35    1.34
  -2  -7  26   56.94    2.87
  -2  -7  26   54.50    3.38
   9  -2  26   56.33    3.63
  -9   5 -26    7.69    1.66
   9  -5  26    5.06    1.67
  -9   8 -26   21.68    2.66
  -8  -1  26   23.54    2.51
   9  -8  26   19.87    2.48
  -9  11 -26   -0.39    1.97
 -11   2  26    0.80    1.64
   9 -11  26    1.15    1.64
   2   9  26    2.26    1.60
   2 -12  26   22.15    2.58
  10   2  26   19.41    2.57
  -1  -9  26   13.26    2.09
  -1  -9  26   16.25    2.34
  10  -1  26   10.13    2.19
  10  -4  26    2.09    1.59
  -4  -6  26    1.65    1.49
 -10   7 -26    3.39    1.69
  10  -7  26    2.83    1.63
 -10  10 -26   25.50    3.12
  10 -10  26   37.44    3.32
 -10   0  26   28.17    2.90
  11   0  26   27.12    3.04
   0 -11  26   30.24    2.95
   0 -11  26   30.10    2.97
  -3  -8  26   12.73    2.11
  -3  -8  26    7.52    2.02
  11  -3  26    7.82    2.19
  11  -6  26   51.18    3.82
  -6  -5  26   62.95    4.06
  -6  -5  26   53.90    3.72
 -11   9 -26    2.40    1.92
  11  -9  26    3.06    1.86
 -12   1  26    6.86    2.28
  12  -2  26    3.07    2.03
  -2 -10  26   -0.76    1.72
  -2 -10  26   -1.36    1.74
  -5  -7  26    1.95    1.71
  -5  -7  26   -0.98    1.75
  12  -5  26    2.56    1.84
 -12   8 -26    8.77    2.29
  -8  -4  26   13.99    2.47
  12  -8  26    9.74    2.51
  -8  -4  26    9.67    2.39
 -11  -1  26    0.54    1.83
  -7  -6  26   26.57    3.15
  -7  -6  26   23.80    3.14
  13  -7  26   27.62    3.47
   0   0 -27   69.75    2.97
  -1   2 -27    0.27    1.04
   2  -1 -27    2.61    1.14
   1   1 -27    0.20    1.07
  -2   1 -27    0.97    0.96
  -1  -1  27    1.48    1.05
  -2   4 -27    3.18    1.34
   4  -2 -27   -0.41    1.01
   2  -4  27   -0.05    1.18
   0   3 -27    3.80    1.33
   3   0  27    4.77    1.50
  -3   3 -27    1.00    1.09
   3   0 -27    1.20    1.14
   3  -3  27    0.89    1.22
  -3   0  27    2.11    1.22
   6  -3 -27   10.50    1.69
  -3   6 -27   15.01    2.12
   3   3  27   13.84    1.99
   3  -6  27   15.57    1.94
   3  -6  27   14.12    1.56
  -1   5 -27   10.01    1.78
   5  -4 -27    6.66    1.29
   1  -5  27    8.92    1.63
   4   1  27    7.72    1.65
   2   2 -27   10.18    1.61
   4  -2  27    8.97    1.64
  -2  -2  27   10.11    1.63
  -4   5 -27   15.48    1.99
   5  -1 -27   14.51    1.90
  -5   1  27   14.32    1.98
   4  -5  27   16.63    1.98
  -4   8 -27    0.16    1.40
   8  -4 -27    0.38    1.23
   4   4  27   -1.56    1.38
   4  -8  27   -0.30    1.07
   4  -8  27   -0.28    1.20
  -2   7 -27    2.71    1.52
   7  -5 -27    1.38    1.14
   2  -7  27    2.57    1.27
   2  -7  27    0.44    1.15
   5   2  27    2.64    1.39
   1   4 -27   27.59    2.49
   5  -1  27   28.83    2.63
  -5   4 -27   15.61    1.86
   4   1 -27   16.59    1.98
  -4  -1  27   17.59    1.99
   5  -4  27   19.22    2.19
  -5   7 -27    0.54    1.47
   7  -2 -27    1.54    1.32
   5  -7  27    4.59    1.55
  -7   2  27    2.46    1.48
   5 -10  27   40.43    2.88
   5   5  27   47.04    3.27
   5 -10  27   45.34    3.07
   9  -6 -27    0.49    1.40
   3  -9  27    1.56    1.31
   3  -9  27    2.48    1.25
   6   3  27    0.38    1.49
   0   6 -27   47.87    3.30
   0  -6  27   51.05    2.94
   0  -6  27   54.14    3.02
   6   0  27   46.30    3.14
   3   3 -27    3.21    1.31
   6  -3  27    3.44    1.39
  -6   6 -27   32.66    2.79
   6   0 -27   31.81    2.69
  -6   0  27   35.37    2.76
   6  -6  27   28.59    2.59
  -6   9 -27    2.41    1.76
   3   6  27   -0.89    1.42
  -9   3  27   -1.10    1.53
   6  -9  27   -0.44    1.34
   6 -12  27    5.77    1.71
   6   6  27    3.98    1.79
   4 -11  27    3.47    1.55
   7   4  27    3.36    1.84
   1  -8  27    8.13    1.47
   7   1  27    6.10    1.75
   1  -8  27    8.17    1.67
   2   5 -27    4.69    1.52
   7  -2  27    5.04    1.59
   5   2 -27    1.19    1.29
  -7   5 -27   -0.44    1.20
  -5  -2  27    0.86    1.26
   7  -5  27    1.04    1.31
  -7   8 -27    9.22    2.08
   7  -8  27    8.10    1.84
  -8   1  27    9.58    1.98
 -11   4  27   -0.62    1.70
   4   7  27   -1.59    1.36
   7 -11  27   -0.54    1.44
   2 -10  27   10.65    1.87
   8   2  27   10.91    2.13
   2 -10  27    9.53    1.85
   8  -1  27    1.18    1.49
  -1  -7  27    0.55    1.18
  -1  -7  27   -1.31    1.22
   4   4 -27    6.25    1.64
   8  -4  27   10.17    1.91
   7   1 -27    9.45    1.80
  -8   7 -27   13.34    2.18
   8  -7  27   15.23    2.28
  -7  -1  27   13.69    2.04
  -8  10 -27    3.07    1.99
 -10   2  27    0.71    1.72
   2   8  27    1.34    1.62
   8 -10  27    4.47    1.71
   3 -12  27    5.14    1.81
   9   3  27    2.31    1.80
   9   0  27    4.90    1.94
   0  -9  27    3.05    1.60
   0  -9  27    3.13    1.64
  -3  -6  27    4.37    1.59
   9  -3  27    5.35    1.83
  -9   6 -27    0.27    1.40
   9  -6  27   -0.53    1.39
  -9   9 -27    2.71    1.92
  -9   0  27    5.66    1.83
   9  -9  27    6.03    1.94
   9 -12  27    2.01    1.96
 -12   3  27   -1.50    1.75
  10   1  27    6.39    2.09
   1 -11  27    4.59    1.76
   1 -11  27    5.84    2.03
  -2  -8  27    2.15    1.50
  10  -2  27    0.53    1.61
  -2  -8  27   -1.48    1.47
  -5  -5  27   52.09    3.56
  10  -5  27   53.47    3.69
 -10   8 -27    1.85    1.77
  10  -8  27    9.40    2.11
 -10  11 -27   26.26    3.33
 -11   1  27   24.95    2.93
  10 -11  27   23.86    2.91
   1  10  27   19.27    2.53
  -1 -10  27   24.84    2.80
  -1 -10  27   21.87    2.69
  11  -1  27   27.87    3.14
  11  -4  27    0.29    1.68
  -4  -7  27   -1.15    1.68
  -4  -7  27    0.80    1.70
 -11   7 -27    1.82    1.71
  11  -7  27    0.88    1.66
  -7  -4  27    0.07    1.75
 -11  10 -27    9.07    2.39
  11 -10  27   13.98    2.57
 -10  -1  27   12.45    2.37
  -3  -9  27   10.77    2.29
  12  -3  27   12.75    2.57
  -3  -9  27    8.53    2.31
  -6  -6  27    2.24    1.80
  -6  -6  27    4.76    2.19
  12  -6  27    3.88    2.13
 -12   9 -27    5.35    2.43
  -9  -3  27    6.12    2.42
  -9  -3  27    4.70    2.20
  12  -9  27    5.94    2.38
   0   1 -28    9.22    1.51
  -1   3 -28    8.03    1.57
   3  -2 -28    5.82    1.30
   2   0 -28   -0.05    1.02
  -2   2 -28   -0.39    1.01
   2  -2  28    0.78    1.15
  -2   0  28    1.09    1.19
   5  -3 -28    7.40    1.47
  -2   5 -28    7.16    1.71
   3   2  28    6.64    1.74
   2  -5  28    9.84    1.77
   1   2 -28    1.16    1.23
   3  -1  28    0.14    1.15
   4  -1 -28   18.61    2.04
  -3   4 -28   19.52    2.17
  -4   1  28   16.42    2.09
   3  -4  28   18.42    2.16
   7  -4 -28    4.21    1.49
  -3   7 -28    2.23    1.56
   4   3  28    4.52    1.64
   3  -7  28    3.88    1.25
   3  -7  28    2.85    1.30
   0   4 -28   12.32    1.91
   4   0  28    9.85    1.85
   3   1 -28    2.21    1.35
  -4   3 -28    2.44    1.16
   4  -3  28    1.51    1.25
  -3  -1  28    3.41    1.34
  -4   6 -28    1.50    1.45
   6  -2 -28    3.92    1.44
   4  -6  28    3.20    1.36
   9  -5 -28    1.04    1.49
  -4   9 -28    2.98    1.87
   5   4  28    2.40    1.51
   4  -9  28    0.30    1.37
   4  -9  28    1.56    1.25
  -1   6 -28   11.30    1.83
   1  -6  28   10.45    1.78
   5   1  28   12.00    1.94
   1  -6  28   11.35    1.63
   2   3 -28   -1.48    1.11
   5  -2  28    0.71    1.19
  -5   5 -28   16.67    2.04
   5   0 -28   17.13    2.07
   5  -5  28   15.30    1.97
  -5   0  28   17.40    2.16
   8  -3 -28   -1.06    1.31
  -5   8 -28    0.02    1.43
   3   5  28    0.86    1.43
   5  -8  28   -2.73    1.21
   6   5  28    9.88    2.19
   5 -11  28    5.59    1.59
   5 -11  28    4.20    1.53
  -2   8 -28   11.10    2.16
   8  -6 -28    6.78    1.48
   2  -8  28   11.63    1.79
   2  -8  28    9.16    1.67
   6   2  28   12.89    2.09
   1   5 -28   14.18    2.09
   6  -1  28   11.44    1.95
   4   2 -28    2.23    1.39
  -6   4 -28    2.61    1.29
  -4  -2  28    3.93    1.39
   6  -4  28    3.17    1.40
   7  -1 -28    0.51    1.34
  -6   7 -28    0.60    1.52
  -7   1  28    0.73    1.38
   6  -7  28    0.16    1.35
  -6  10 -28    6.65    2.22
   4   6  28    3.99    1.61
   6 -10  28    5.50    1.65
  10  -7 -28   -0.92    1.34
   3 -10  28    0.84    1.28
   3 -10  28    0.14    1.37
   3 -10  28    0.72    1.45
   7   3  28    1.76    1.72
   0  -7  28    1.07    1.11
   7   0  28   -0.24    1.33
   0  -7  28   -0.77    1.21
   3   4 -28   10.98    1.78
   7  -3  28    7.97    1.82
  -7   6 -28    8.62    1.89
   6   1 -28    3.98    1.52
   7  -6  28    5.89    1.72
  -6  -1  28    8.87    1.82
  -7   9 -28   22.73    2.82
   2   7  28   23.28    2.52
  -9   2  28   15.47    2.38
   7  -9  28   14.92    2.19
   5   7  28    1.90    1.70
   7 -12  28    0.18    1.63
  12  -8 -28    5.87    1.94
   8   4  28    3.72    2.09
   4 -12  28    6.59    1.84
   1  -9  28    9.66    1.82
   1  -9  28    8.23    1.86
   8   1  28   11.03    2.20
  -2  -6  28   -0.18    1.34
   8  -2  28   -0.92    1.51
  -8   5 -28    1.66    1.39
   5   3 -28   -1.98    1.25
   8  -5  28    1.54    1.55
   8   0 -28    2.20    1.55
  -8   8 -28   -2.02    1.63
   8  -8  28    2.69    1.64
  -8   0  28    2.54    1.54
  -8  11 -28   -0.28    2.00
   8 -11  28    0.62    1.74
 -11   3  28    0.73    1.89
   3   8  28    3.95    1.68
   2 -11  28    1.38    1.54
   2 -11  28    2.78    1.62
   9   2  28    0.38    1.83
  -1  -8  28   -0.12    1.42
   9  -1  28    1.88    1.79
  -4  -5  28   -0.88    1.44
   9  -4  28    1.02    1.58
  -9   7 -28    3.06    1.84
  -7  -2  28    5.92    1.74
   9  -7  28    4.97    1.85
  -9  10 -28   -3.50    1.67
 -10   1  28    2.03    1.67
   1   9  28   -1.62    1.55
   9 -10  28    1.12    1.74
  10   0  28    9.63    2.37
   0 -10  28    6.48    1.99
   0 -10  28   11.83    2.21
  -3  -7  28    2.49    1.84
  -3  -7  28    2.71    1.67
  10  -3  28    1.09    1.70
  10  -6  28    8.02    2.04
 -10   9 -28    7.28    2.17
  -9  -1  28    7.16    2.09
  10  -9  28    6.88    2.18
  -2  -9  28    4.30    1.83
  -2  -9  28   -2.45    1.63
  11  -2  28    0.64    1.81
  11  -5  28    6.87    2.13
  -5  -6  28    6.09    1.99
  -5  -6  28    5.28    2.25
 -11   8 -28    5.10    2.05
  11  -8  28    7.68    2.20
  -4  -8  28   14.73    2.68
  12  -4  28   16.98    2.97
  -4  -8  28   11.93    2.43
  -7  -5  28   -1.80    1.96
  12  -7  28    0.59    2.00
  -7  -5  28    0.41    1.86
   1   0 -29   -0.50    0.95
  -1   1 -29   -0.83    1.00
   0   2 -29    0.55    1.26
  -2   3 -29   37.93    2.72
   3  -1 -29   37.28    2.59
   2  -3  29   37.47    2.90
   4  -3 -29   19.37    1.87
  -1   4 -29   22.93    2.37
   1  -4  29   23.44    2.33
   3   1  29   26.19    2.57
  -3   2 -29   10.66    1.55
   2   1 -29   12.45    1.82
   3  -2  29   10.75    1.83
  -2  -1  29   13.65    1.84
   5  -2 -29    2.95    1.38
  -3   5 -29    6.65    1.64
   3  -5  29    3.97    1.46
   3  -5  29    5.25    1.22
   6  -4 -29   -0.02    1.11
  -2   6 -29   -0.40    1.37
   2  -6  29    0.49    1.24
   2  -6  29    3.22    1.24
   4   2  29    1.15    1.51
   1   3 -29    5.22    1.52
   4  -1  29    1.91    1.38
  -4   4 -29    2.11    1.35
   4   0 -29    1.42    1.29
  -4   0  29   -0.51    1.18
   4  -4  29    2.12    1.30
   7  -3 -29    8.56    1.78
  -4   7 -29    7.98    1.93
   3   4  29    7.26    1.85
   4  -7  29    8.74    1.79
  -3   8 -29    2.35    1.53
   8  -5 -29    2.62    1.48
   3  -8  29    0.90    1.23
   5   3  29    4.53    1.68
   3  -8  29    3.53    1.46
   0   5 -29    1.11    1.36
   5   0  29    0.17    1.33
   0  -5  29   -0.23    1.24
  -5   3 -29    0.36    1.19
   3   2 -29    1.16    1.33
  -3  -2  29    1.01    1.19
   5  -3  29    1.10    1.29
   6  -1 -29    0.70    1.34
  -5   6 -29   -1.32    1.36
   5  -6  29    0.83    1.29
  -6   1  29    0.53    1.39
   9  -4 -29    1.58    1.60
  -5   9 -29   -0.22    1.58
   4   5  29    2.69    1.56
   5  -9  29   -1.30    1.36
  10  -6 -29    1.85    1.57
   6   4  29    0.89    1.63
   4 -10  29    2.05    1.41
   4 -10  29    2.61    1.50
  -1   7 -29    3.50    1.59
   6   1  29    6.37    1.77
   1  -7  29    5.77    1.61
   1  -7  29    4.37    1.40
   2   4 -29   25.94    2.54
   6  -2  29   24.19    2.56
   5   1 -29    1.20    1.34
  -6   5 -29   -1.25    1.35
  -5  -1  29    0.88    1.32
   6  -5  29   -0.45    1.29
   8  -2 -29   22.24    2.57
  -6   8 -29   25.70    2.84
  -8   2  29   24.71    2.84
   6  -8  29   24.39    2.67
   2   6  29   20.75    2.50
   5   6  29   -1.10    1.55
   6 -11  29    0.27    1.49
   7   5  29   -0.50    1.73
   5 -12  29   -1.64    1.54
   7   2  29   39.78    3.37
   2  -9  29   37.76    2.84
   2  -9  29   35.28    2.85
   1   6 -29    1.77    1.38
   7  -1  29   -0.25    1.41
  -1  -6  29   -0.16    1.29
  -1  -6  29    0.63    1.27
   4   3 -29   53.17    3.41
   7  -4  29   56.94    3.50
  -7   7 -29   -1.78    1.51
   7   0 -29    2.60    1.48
  -7   0  29    1.22    1.47
   7  -7  29   -0.26    1.45
  -7  10 -29   11.98    2.45
 -10   3  29    6.69    2.14
   7 -10  29   11.56    2.10
   3   7  29   10.41    2.20
   3 -11  29    0.90    1.57
   8   3  29   -2.00    1.68
   0  -8  29    0.45    1.20
   0  -8  29    0.47    1.32
   8   0  29    1.04    1.67
  -3  -5  29   -2.19    1.30
   8  -3  29    1.05    1.57
  -8   6 -29    0.88    1.55
   6   2 -29    2.94    1.65
  -6  -2  29    2.64    1.51
   8  -6  29    0.00    1.54
   9  -1 -29   14.85    2.31
  -8   9 -29   22.05    2.97
   8  -9  29   21.48    2.60
  -9   1  29   24.60    2.83
   1 -10  29    0.37    1.68
   9   1  29    0.42    1.83
   1 -10  29    0.14    1.49
   9  -2  29   10.08    2.27
  -2  -7  29    7.96    1.92
   9  -5  29    2.26    1.60
  -9   8 -29    9.61    2.27
   8   1 -29    4.62    1.85
  -8  -1  29   10.18    2.06
   9  -8  29    6.70    2.06
  -9  11 -29    1.07    2.18
   9 -11  29   -0.54    1.83
   2   9  29    0.67    1.70
 -11   2  29   -0.91    1.82
  -1  -9  29    0.17    1.67
  10  -1  29   -0.39    1.85
  -1  -9  29    0.19    1.56
  -4  -6  29    2.99    1.71
  10  -4  29   -1.73    1.61
 -10   7 -29    0.25    1.71
  10  -7  29   -2.31    1.48
 -10  10 -29   -5.11    1.79
  10 -10  29    5.06    2.00
 -10   0  29   -0.69    1.74
  -3  -8  29    6.90    2.10
  11  -3  29    9.32    2.45
  -3  -8  29    6.74    2.21
  11  -6  29   -1.09    1.86
  -6  -5  29    0.86    1.70
 -11   9 -29    3.13    2.23
  11  -9  29    5.82    2.25
  -5  -7  29    0.20    1.94
  12  -5  29   -0.98    1.96
  -5  -7  29   -1.57    2.02
   0   0 -30   16.39    1.75
  -1   2 -30   15.76    1.92
   2  -1 -30   11.14    1.65
   1   1 -30   12.17    1.77
   2  -1  30   14.49    2.11
  -2   4 -30   19.03    2.27
   4  -2 -30   20.87    2.10
   2  -4  30   22.81    2.35
   0   3 -30   14.17    1.99
   3   0  30   15.29    2.11
   3   0 -30    9.53    1.73
  -3   3 -30    6.58    1.58
   3  -3  30    6.27    1.62
  -3   6 -30   40.13    3.22
   6  -3 -30   44.77    2.92
   3  -6  30   47.11    3.18
   3  -6  30   44.74    2.67
   3   3  30   44.60    3.33
  -1   5 -30   -0.14    1.34
   4   1  30    0.49    1.46
   1  -5  30    1.09    1.35
   2   2 -30   57.44    3.41
   4  -2  30   54.68    3.36
  -4   5 -30    6.10    1.75
   5  -1 -30    9.36    1.68
   4  -5  30    9.60    1.82
  -4   8 -30   22.01    2.70
   8  -4 -30   25.38    2.65
   4  -8  30   26.87    2.62
   4   4  30   24.79    2.68
   4  -8  30   26.11    2.18
  -2   7 -30    4.08    1.71
   2  -7  30    5.64    1.55
   2  -7  30    7.51    1.65
   5   2  30    3.93    1.68
   1   4 -30    1.10    1.35
   5  -1  30    0.48    1.35
  -5   4 -30    0.96    1.33
   4   1 -30   -2.26    1.13
   5  -4  30   -0.05    1.32
  -4  -1  30   -0.35    1.21
   7  -2 -30    1.30    1.47
  -5   7 -30    0.89    1.57
   5  -7  30    1.73    1.53
   2   5  30    0.64    1.60
  10  -5 -30   -1.21    1.60
   5   5  30    1.36    1.62
   5 -10  30    0.94    1.49
   9  -6 -30    3.82    1.56
   6   3  30    4.02    1.78
   3  -9  30    3.66    1.45
   3  -9  30    3.61    1.48
   0   6 -30    3.01    1.62
   0  -6  30    2.57    1.41
   6   0  30    3.21    1.56
   0  -6  30    2.62    1.42
   3   3 -30    3.68    1.56
   6  -3  30    1.56    1.48
  -6   6 -30    3.10    1.63
   6   0 -30    2.16    1.44
  -6   0  30    0.93    1.42
   6  -6  30    1.11    1.44
   9  -3 -30    6.18    1.92
  -6   9 -30    0.96    1.82
   6  -9  30    2.16    1.71
   3   6  30    4.28    1.85
  11  -7 -30   -1.66    1.55
   4 -11  30    0.27    1.50
   7   4  30   -2.09    1.73
   1  -8  30   13.28    2.00
   1  -8  30   11.63    1.87
   7   1  30   10.44    2.16
   2   5 -30    1.02    1.38
   7  -2  30   -0.40    1.35
  -7   5 -30   -2.61    1.27
   5   2 -30   -0.26    1.39
   7  -5  30   -1.20    1.39
  -5  -2  30    1.04    1.41
  -7   8 -30    7.92    2.12
   8  -1 -30    4.69    1.85
  -8   1  30    6.76    1.87
   7  -8  30    4.91    1.74
  11  -4 -30    2.22    1.92
   7 -11  30    4.51    1.84
   4   7  30    5.42    1.84
   2 -10  30    3.10    1.65
   8   2  30    1.34    1.99
   2 -10  30    1.53    1.51
  -1  -7  30   34.82    2.96
   8  -1  30   37.38    3.43
  -1  -7  30   35.33    2.82
   4   4 -30   14.62    2.12
   8  -4  30   11.10    2.17
  -8   7 -30   49.02    3.77
   7   1 -30   43.22    3.41
   8  -7  30   46.35    3.67
  -7  -1  30   47.54    3.52
  -8  10 -30    1.13    2.03
  10  -2 -30    3.52    1.94
   8 -10  30   -0.54    1.62
 -10   2  30    0.54    1.74
   2   8  30    3.55    1.83
   0  -9  30    1.39    1.76
   9   0  30    1.23    1.93
   0  -9  30    2.49    1.66
   9  -3  30   34.71    3.47
  -3  -6  30   33.46    2.99
  -9   6 -30   -0.17    1.52
   9  -6  30    0.78    1.61
   9   0 -30   -2.48    1.51
  -9   9 -30    0.68    1.84
   9  -9  30    0.47    1.64
  -9   0  30    0.66    1.65
  10  -2  30   10.98    2.49
  -2  -8  30   12.75    2.44
  -2  -8  30    7.18    2.13
  10  -5  30    2.69    2.01
  -5  -5  30    5.54    1.91
 -10   8 -30   19.79    2.74
  10  -8  30   21.26    2.97
  -4  -7  30    0.07    1.81
  11  -4  30    1.16    2.07
  -4  -7  30   -1.54    1.97
 -11   7 -30    5.04    2.12
  -7  -4  30    6.17    2.22
  11  -7  30   11.68    2.70
   0   1 -31   14.68    1.83
  -1   3 -31    4.86    1.51
   3  -2 -31    4.40    1.31
   1  -3  31    3.49    1.61
  -2   2 -31    4.20    1.37
   2   0 -31    2.80    1.38
   2  -2  31    2.49    1.50
  -2   5 -31    3.13    1.63
   5  -3 -31    1.47    1.25
   3   2  31    3.66    1.65
   2  -5  31    4.08    1.51
   1   2 -31  116.66    4.66
   3  -1  31  122.80    4.92
   4  -1 -31    9.93    1.74
  -3   4 -31   10.80    1.89
   3  -4  31    9.47    1.84
   7  -4 -31  120.08    4.61
  -3   7 -31  114.78    5.22
   3  -7  31  120.81    4.34
   4   3  31  114.26    5.05
   3  -7  31  120.34    4.80
   0   4 -31   32.65    2.86
   4   0  31   28.36    2.81
   3   1 -31   32.46    2.75
  -4   3 -31   32.39    2.60
  -3  -1  31   28.40    2.58
   4  -3  31   28.35    2.72
   6  -2 -31    3.63    1.44
  -4   6 -31    3.34    1.64
   4  -6  31    2.11    1.54
  -4   9 -31   -0.17    1.73
   9  -5 -31    0.42    1.53
   5   4  31   -0.03    1.64
   4  -9  31    0.87    1.36
   4  -9  31   -0.22    1.54
  -1   6 -31    5.57    1.85
   1  -6  31    7.35    1.58
   5   1  31    4.60    1.63
   1  -6  31    5.03    1.73
   2   3 -31   12.33    2.07
   5  -2  31   13.46    2.11
   5   0 -31   60.40    3.49
  -5   5 -31   56.22    3.50
  -5   0  31   56.57    3.52
   5  -5  31   54.68    3.59
   8  -3 -31    4.49    1.81
  -5   8 -31   11.35    2.26
   5  -8  31   11.50    2.05
   3   5  31   11.17    2.15
  11  -6 -31   30.06    2.99
   6   5  31   25.16    2.95
   5 -11  31   27.24    2.73
  -2   8 -31    0.71    1.64
   2  -8  31    0.53    1.41
   2  -8  31   -0.15    1.33
   6   2  31    0.88    1.80
   1   5 -31   33.24    3.02
   6  -1  31   42.18    3.33
   4   2 -31    1.46    1.49
  -6   4 -31    2.29    1.43
   6  -4  31    2.60    1.53
   7  -1 -31   14.77    2.34
  -6   7 -31   12.23    2.18
  -7   1  31   11.56    2.24
   6  -7  31   14.65    2.37
  -6  10 -31    6.07    2.23
  10  -4 -31    3.09    1.97
   4   6  31    7.19    1.98
   6 -10  31    3.84    1.74
   7   3  31    1.24    1.86
   3 -10  31    1.51    1.53
   0  -7  31    2.02    1.37
   7   0  31    0.66    1.62
   0  -7  31   -0.26    1.31
   3   4 -31    2.82    1.69
   7  -3  31    4.10    1.69
  -7   6 -31    8.01    1.94
   6   1 -31    5.63    1.81
   7  -6  31    7.40    2.00
  -6  -1  31    9.78    1.98
   9  -2 -31    2.24    1.89
  -7   9 -31    3.99    2.08
  -9   2  31    3.22    1.96
   2   7  31    3.46    1.85
   7  -9  31    3.42    1.92
   1  -9  31    3.03    1.64
   8   1  31   -0.85    1.86
  -2  -6  31   65.52    3.85
  -2  -6  31   66.89    3.64
   8  -2  31   64.33    4.18
   5   3 -31   -1.30    1.43
   8  -5  31    0.57    1.65
   8   0 -31   11.55    2.21
  -8   8 -31   14.09    2.51
   8  -8  31   17.48    2.53
  -8   0  31   14.92    2.37
  -1  -8  31   15.30    2.36
   9  -1  31   12.09    2.58
  -4  -5  31    2.14    1.84
   9  -4  31    3.01    1.85
  -9   7 -31   79.79    4.51
   9  -7  31   76.39    4.50
  10  -1 -31   20.92    2.84
  -9  10 -31   18.67    3.02
 -10   1  31   22.74    2.89
   9 -10  31   29.49    3.17
   1   9  31   27.69    3.05
  10  -3  31   14.44    2.69
  -3  -7  31   13.66    2.46
  10  -6  31   19.36    2.81
 -10   9 -31    2.95    2.29
  -9  -1  31    3.24    1.93
  10  -9  31    3.56    2.11
  11  -5  31    5.58    2.48
  -5  -6  31    5.69    2.44
  -5  -6  31    8.41    2.30
   1   0 -32   64.36    3.26
  -1   1 -32   65.07    3.22
   0   2 -32   -0.87    1.22
   2   0  32   -0.25    1.42
   3  -1 -32   -0.28    1.21
  -2   3 -32   -0.70    1.30
   2  -3  32   -1.23    1.34
  -1   4 -32    0.99    1.51
   3   1  32    0.78    1.47
   1  -4  32    2.75    1.56
   2   1 -32   97.71    4.28
  -3   2 -32   95.50    3.87
   3  -2  32   96.04    4.45
   5  -2 -32   -0.29    1.28
  -3   5 -32    2.67    1.61
   2   3  32   -0.53    1.47
   3  -5  32    0.83    1.44
   3  -5  32   -0.65    1.09
  -2   6 -32    8.20    2.09
   2  -6  32   12.66    2.06
   2  -6  32   10.53    1.75
   4   2  32    9.97    2.13
   1   3 -32    4.34    1.65
   4  -1  32    1.63    1.49
  -4   4 -32   29.30    2.64
   4   0 -32   27.70    2.64
   4  -4  32   30.26    2.98
   7  -3 -32   54.46    3.45
  -4   7 -32   49.98    3.81
   3   4  32   49.82    3.73
   4  -7  32   55.46    3.56
  -3   8 -32   10.09    2.35
   8  -5 -32   11.11    1.94
   3  -8  32   14.64    1.94
   3  -8  32   13.05    2.06
   5   3  32   10.34    2.17
   0   5 -32  129.57    5.32
   0  -5  32  131.24    5.09
   5   0  32  119.03    5.17
   3   2 -32   17.97    2.33
   5  -3  32   13.27    2.28
  -5   6 -32   76.97    4.25
   6  -1 -32   77.23    4.02
   5  -6  32   70.20    4.04
   9  -4 -32    6.08    2.02
  -5   9 -32    6.77    2.27
   4   5  32    7.25    1.97
   5  -9  32    7.86    2.07
  10  -6 -32   57.62    3.81
   6   4  32   66.14    4.20
   4 -10  32   64.48    3.86
   4 -10  32   64.50    3.87
  -1   7 -32    7.17    2.06
   1  -7  32    8.16    1.85
   6   1  32    9.61    2.21
   1  -7  32   11.22    1.99
   2   4 -32   13.84    2.35
   6  -2  32   14.63    2.34
   5   1 -32   42.23    3.29
  -6   5 -32   42.51    3.34
   6  -5  32   44.59    3.44
  -5  -1  32   49.69    3.48
   8  -2 -32    0.98    1.64
  -6   8 -32    4.07    1.99
   2   6  32   -2.33    1.65
   6  -8  32    2.03    1.69
   2  -9  32   -0.87    1.43
   7   2  32    0.15    1.94
   2  -9  32    2.95    1.68
   1   6 -32    7.76    2.04
  -1  -6  32    3.35    1.61
   7  -1  32    4.07    1.88
  -1  -6  32    5.34    1.73
   4   3 -32   -1.84    1.49
   7  -4  32   -0.51    1.62
  -7   7 -32    0.85    1.76
   7   0 -32    0.37    1.63
   7  -7  32   -3.10    1.55
  -7   0  32    1.74    1.63
  10  -3 -32   -0.45    1.84
  -7  10 -32    4.13    2.21
   7 -10  32   -0.75    1.67
   3   7  32    1.29    1.89
   8   0  32    5.61    2.13
   0  -8  32    2.00    1.69
  -3  -5  32   -0.38    1.56
   8  -3  32   -0.79    1.78
  -8   6 -32   28.62    2.90
   6   2 -32   25.21    2.87
   8  -6  32   29.12    3.29
   9  -1 -32    0.54    1.92
  -8   9 -32   -0.16    2.07
   8  -9  32    4.63    1.94
  -9   1  32    0.60    1.86
   1   8  32   -1.70    1.79
  -2  -7  32   96.92    4.75
   9  -2  32   94.09    5.20
   9  -5  32   15.21    2.71
  -9   8 -32   31.47    3.26
   8   1 -32   34.47    3.43
  -8  -1  32   37.89    3.41
   9  -8  32   34.99    3.45
  10  -4  32    7.60    2.38
  -4  -6  32    3.32    2.07
 -10   7 -32   -0.81    1.89
  10  -7  32    5.20    2.16
   0   0 -33  165.76    5.33
  -1   2 -33   -0.46    1.26
   2  -1 -33   -0.04    1.17
   1  -2  33   -0.51    1.42
   1   1 -33    1.26    1.33
   2  -1  33    0.10    1.41
  -2   4 -33   15.40    2.18
   4  -2 -33   10.73    1.75
   2  -4  33   14.11    2.18
   2   2  33   10.82    2.26
   0   3 -33   21.77    2.42
   3   0  33   21.22    2.51
   3   0 -33   24.37    2.50
  -3   3 -33   19.52    2.24
   3  -3  33   21.37    2.51
  -3   6 -33   59.82    3.92
   6  -3 -33   50.36    3.23
   3  -6  33   54.00    3.63
   3   3  33   50.63    3.74
   3  -6  33   52.00    3.04
  -1   5 -33   18.51    2.46
   1  -5  33   18.38    2.36
   4   1  33   16.61    2.42
   2   2 -33   81.41    4.21
   4  -2  33   83.25    4.28
  -4   5 -33   68.79    4.05
   5  -1 -33   71.56    3.86
   4  -5  33   71.12    4.02
  -4   8 -33   20.58    2.83
   8  -4 -33   20.04    2.35
   4  -8  33   29.95    2.89
   4   4  33   20.18    2.73
  -2   7 -33   13.07    2.32
   5   2  33    8.59    2.19
   2  -7  33   15.15    2.07
   2  -7  33   16.70    2.31
   1   4 -33   48.71    3.63
   5  -1  33   46.99    3.52
   4   1 -33   20.20    2.42
  -5   4 -33   16.75    2.20
   5  -4  33   18.45    2.46
  -5   7 -33    1.76    1.79
   7  -2 -33    2.23    1.73
   5  -7  33    2.78    1.67
   2   5  33    1.91    1.75
   5 -10  33   90.83    4.49
   5   5  33   78.89    4.70
   3  -9  33    3.97    1.61
   6   3  33    1.12    1.87
   3  -9  33    1.72    1.69
   0   6 -33   57.87    4.05
   6   0  33   60.55    4.00
   0  -6  33   58.21    3.62
   0  -6  33   60.36    3.68
   3   3 -33   15.57    2.38
   6  -3  33   14.90    2.33
   6   0 -33   69.19    3.98
  -6   6 -33   60.01    4.07
   6  -6  33   67.32    4.14
  -6   0  33   58.72    4.02
  -6   9 -33   11.61    2.54
   9  -3 -33   15.86    2.55
   3   6  33   16.13    2.66
   6  -9  33   15.62    2.60
   1  -8  33    8.89    1.95
   1  -8  33    8.18    1.90
   7   1  33    5.86    2.19
   2   5 -33    0.18    1.53
   7  -2  33   -2.54    1.57
  -7   5 -33    3.78    1.63
   5   2 -33    2.70    1.84
   7  -5  33    3.84    1.92
   8  -1 -33    7.46    2.16
  -7   8 -33    7.56    2.22
   7  -8  33    8.23    2.23
  -8   1  33    9.21    2.33
  -1  -7  33   24.21    2.51
  -1  -7  33   19.42    2.62
   8  -1  33   31.82    3.39
   4   4 -33    3.11    1.85
   8  -4  33    3.15    1.95
  -8   7 -33   61.12    4.29
   7   1 -33   48.99    3.91
  -7  -1  33   58.96    3.90
   8  -7  33   51.77    4.15
   9  -3  33   25.62    3.27
  -3  -6  33   28.48    3.01
   9  -6  33   -1.79    1.81
  10  -5  33  105.59    5.57
   0   1 -34   54.36    3.25
  -1   3 -34   21.97    2.44
   2   1  34   19.58    2.55
   1  -3  34   22.80    2.61
  -2   2 -34   12.29    1.91
   2   0 -34   15.03    2.00
   2  -2  34   13.29    2.28
   5  -3 -34   15.18    1.97
  -2   5 -34   16.54    2.44
   2  -5  34   19.54    2.55
   2  -5  34   17.49    2.02
   3   2  34   15.68    2.47
   1   2 -34   35.94    3.01
   3  -1  34   45.85    3.48
  -3   4 -34    0.54    1.52
   4  -1 -34    1.49    1.45
   3  -4  34    0.37    1.60
  -3   7 -34   54.95    4.05
   3  -7  34   51.97    3.60
   4   3  34   42.35    3.58
   3  -7  34   40.92    3.04
   0   4 -34   21.56    2.52
   4   0  34   21.27    2.71
   0  -4  34   29.03    2.90
  -4   3 -34   16.11    2.10
   3   1 -34   13.70    2.23
   4  -3  34   17.85    2.52
   6  -2 -34    2.74    1.57
  -4   6 -34    0.48    1.70
   4  -6  34    1.79    1.72
   2   4  34   -0.19    1.67
   9  -5 -34   10.50    2.14
  -4   9 -34    8.66    2.47
   5   4  34   11.43    2.46
   4  -9  34   13.51    2.34
  -1   6 -34   29.18    2.99
   5   1  34   29.82    3.09
   1  -6  34   31.74    3.03
   1  -6  34   30.05    2.67
   2   3 -34    1.01    1.54
   5  -2  34   -0.93    1.47
   5   0 -34  142.79    5.67
  -5   5 -34  142.98    5.59
   5  -5  34  150.88    5.87
   8  -3 -34   13.97    2.30
  -5   8 -34   14.11    2.61
   3   5  34   14.58    2.64
   5  -8  34   10.44    2.28
  -2   8 -34   19.04    2.69
   2  -8  34   21.90    2.45
   6   2  34   17.30    2.68
   2  -8  34   17.80    2.34
   1   5 -34   83.01    4.58
   6  -1  34   82.37    4.59
  -1  -5  34   85.90    4.38
   4   2 -34    6.65    1.80
   6  -4  34    4.91    1.78
   7  -1 -34    8.06    2.05
  -6   7 -34    2.40    1.83
   6  -7  34    8.96    2.26
   0  -7  34    1.65    1.55
   7   0  34    1.29    1.95
   0  -7  34    1.85    1.71
   3   4 -34   10.51    2.30
   7  -3  34   14.80    2.57
   6   1 -34    2.44    1.79
  -7   6 -34   -1.76    1.68
  -6  -1  34    3.16    1.70
   7  -6  34    0.71    1.83
  -2  -6  34   28.03    2.95
  -2  -6  34   33.12    2.91
   8  -2  34   31.58    3.45
   5   3 -34   10.61    2.36
   8  -5  34   14.43    2.87
   8   0 -34   14.68    2.60
  -8   8 -34   16.73    2.83
   8  -8  34   11.72    2.69
  -8   0  34   13.43    2.52
  -4  -5  34    3.80    2.01
   9  -4  34   -0.02    2.18
   1   0 -35   70.85    3.62
   0   2 -35    4.07    1.76
   2   0  35    5.11    1.70
   3  -1 -35   23.12    2.33
  -2   3 -35   23.14    2.49
   2  -3  35   27.58    2.91
  -1   4 -35    7.07    2.00
   3   1  35    9.20    2.16
   1  -4  35    8.03    2.02
   2   1 -35   10.33    2.07
   3  -2  35   13.05    2.41
   5  -2 -35    1.56    1.53
  -3   5 -35    3.32    1.87
   2   3  35    1.16    1.78
   3  -5  35    0.22    1.67
  -2   6 -35   -2.16    1.80
   2  -6  35    0.22    1.57
   4   2  35   -3.18    1.52
   2  -6  35    1.75    1.43
   1   3 -35   -2.13    1.43
   4  -1  35    2.83    1.69
  -4   4 -35   22.33    2.55
   4   0 -35   20.19    2.53
   4  -4  35   23.79    2.78
  -4   7 -35    6.14    2.17
   7  -3 -35    6.46    1.81
   3   4  35    3.60    1.97
   4  -7  35    7.12    2.02
  -3   8 -35    0.57    1.91
   8  -5 -35    2.57    1.58
   3  -8  35    1.48    1.51
   3  -8  35    0.49    1.63
   5   3  35   -2.33    1.77
   0   5 -35  126.21    5.60
   5   0  35  140.69    5.80
   0  -5  35  134.40    5.50
   3   2 -35    1.26    1.69
   5  -3  35    0.81    1.59
   6  -1 -35   88.94    4.60
  -5   6 -35   80.63    4.59
   5  -6  35   89.12    4.66
  -1   7 -35    1.78    1.81
   6   1  35    1.93    1.90
   1  -7  35   -1.66    1.43
   1  -7  35   -0.50    1.44
   2   4 -35    1.15    1.75
   6  -2  35    3.54    1.98
   5   1 -35   18.63    2.50
  -6   5 -35   18.21    2.47
   6  -5  35   13.46    2.48
   8  -2 -35   11.45    2.33
  -6   8 -35   15.23    2.68
   6  -8  35   16.49    2.63
   2   6  35   12.10    2.61
   1   6 -35    7.20    2.28
  -1  -6  35   11.60    2.24
   7  -1  35   11.37    2.47
  -1  -6  35   13.86    2.19
   4   3 -35   24.42    2.87
   7  -4  35   27.06    3.23
   7   0 -35   -0.50    1.58
  -7   7 -35   -1.57    1.93
   7  -7  35   -0.01    1.86
  -3  -5  35    7.59    2.17
   8  -3  35    9.82    2.59
   6   2 -35    2.46    2.05
  -8   6 -35    3.97    2.01
   8  -6  35    5.80    2.29
  -1   2 -36    8.19    1.81
   1  -2  36    7.00    1.98
   1   1 -36    1.04    1.40
   2  -1  36    0.35    1.71
  -2   4 -36   51.75    3.75
   4  -2 -36   54.65    3.37
   2  -4  36   61.03    4.10
   2   2  36   57.18    4.05
   0   3 -36    9.01    2.08
   3   0  36    6.94    2.10
   0  -3  36    8.31    2.20
   3   0 -36    1.11    1.65
  -3   3 -36    3.81    1.62
   3  -3  36    1.10    1.81
   6  -3 -36    7.15    1.75
  -3   6 -36    4.63    1.97
   3   3  36    4.65    2.09
   3  -6  36    6.39    1.95
  -1   5 -36    8.33    2.16
   4   1  36    7.00    2.17
   1  -5  36    5.31    1.67
   1  -5  36    6.68    2.12
   2   2 -36    6.35    1.93
   4  -2  36   10.32    2.09
   5  -1 -36   26.59    2.76
  -4   5 -36   28.26    3.00
   4  -5  36   18.90    2.68
  -2   7 -36    3.13    2.19
   2  -7  36    3.34    1.89
   5   2  36    3.86    2.13
   2  -7  36    2.56    1.63
   1   4 -36   38.91    3.44
   5  -1  36   36.48    3.46
  -1  -4  36   43.81    3.62
  -5   4 -36   16.79    2.37
   4   1 -36   18.16    2.68
   5  -4  36   19.83    2.76
  -5   7 -36   -1.01    1.85
   7  -2 -36   -1.19    1.72
   5  -7  36    0.20    1.77
   2   5  36   -1.23    2.12
   0   6 -36   27.08    3.11
   6   0  36   28.20    3.34
   0  -6  36   31.77    2.99
   0  -6  36   33.07    3.10
   3   3 -36   55.02    4.06
   6  -3  36   54.15    4.11
   6   0 -36   24.40    2.83
  -6   6 -36   26.89    3.02
   6  -6  36   31.66    3.33
   2   5 -36    1.33    1.87
  -2  -5  36   -0.49    1.74
   7  -2  36    3.22    2.26
  -2  -5  36    2.41    1.93
   5   2 -36    3.92    1.92
   7  -5  36    8.05    2.32
   0   1 -37   15.86    2.13
   1   0  37   18.37    2.63
  -1   3 -37   43.55    3.50
   2   1  37   51.15    4.07
   1  -3  37   54.52    4.08
   2   0 -37    2.26    1.50
   2  -2  37    0.15    1.77
  -2   5 -37    9.40    2.34
   3   2  37   11.66    2.61
   2  -5  37   11.33    1.93
   2  -5  37   13.14    2.35
   1   2 -37   -0.81    1.58
   3  -1  37   -0.91    1.65
   4  -1 -37    5.65    1.79
  -3   4 -37    7.90    2.10
   3  -4  37    9.08    2.21
   0   4 -37   11.74    2.30
   4   0  37   11.96    2.49
   0  -4  37    9.16    2.27
   3   1 -37    0.71    1.66
   4  -3  37   -2.04    1.58
   6  -2 -37    3.13    1.77
  -4   6 -37    3.07    2.09
   4  -6  37    5.92    2.15
   2   4  37    4.35    2.31
  -1   6 -37   11.20    2.38
   1  -6  37    5.22    1.98
   5   1  37    8.50    2.41
   1  -6  37    6.44    1.82
   2   3 -37    2.03    1.78
   5  -2  37    0.23    1.74
   5   0 -37   39.90    3.42
   5  -5  37   46.18    3.89
   1   5 -37   25.63    3.15
  -1  -5  37   27.31    2.96
  -1  -5  37   28.36    2.94
   6  -1  37   32.24    3.53
   4   2 -37    7.72    2.23
   6  -4  37   11.43    2.48
   1   0 -38    3.77    1.56
   1  -1  38    0.31    1.84
   0   2 -38   -2.64    1.51
   2   0  38   -3.16    1.69
   0  -2  38   -1.33    1.79
   3  -1 -38   17.85    2.23
  -2   3 -38   16.43    2.37
   2  -3  38   25.52    3.08
  -1   4 -38   12.27    2.42
   1  -4  38   18.79    2.85
   3   1  38   13.24    2.71
   2   1 -38   12.13    2.21
   3  -2  38   13.54    2.61
   5  -2 -38    2.45    1.73
  -3   5 -38   -1.43    1.80
   2   3  38    1.02    2.14
   3  -5  38   -3.09    1.82
   1   3 -38    5.08    2.10
   4  -1  38    7.90    2.35
  -4   4 -38    2.90    1.92
   4   0 -38    0.06    1.74
   4  -4  38    3.40    2.12
   5   0  38   13.52    2.74
   0  -5  38   15.85    2.33
   0  -5  38   17.40    2.76
   3   2 -38   -0.38    1.69
   5  -3  38    1.12    2.03
  -1   2 -39    6.95    1.95
   1   1  39    4.71    2.26
   1  -2  39    9.08    2.48
   1   1 -39    0.97    1.61
   2  -1  39   -0.16    2.13
  -2   4 -39   12.56    2.42
   2  -4  39   16.30    2.76
   2   2  39   14.77    2.86
   0   3 -39   -0.92    1.78
   0  -3  39    1.54    2.16
   3   0  39   -1.91    1.98
   3   0 -39    1.32    1.68
   3  -3  39    2.01    1.97
   2   2 -39    9.61    2.21
   4  -2  39   13.32    2.70
   1   0  40    0.91    2.19
   0  -1  40    0.93    2.05
   0   0   0    0.00    0.00
;
_shelx_hkl_checksum              57793
#END Tags that were not found in dictionaries
loop_
_space_group_symop_operation_xyz
'x, y, z'
'-y, x-y, z'
'-x+y, -x, z'
'x+2/3, y+1/3, z+1/3'
'-y+2/3, x-y+1/3, z+1/3'
'-x+y+2/3, -x+1/3, z+1/3'
'x+1/3, y+2/3, z+2/3'
'-y+1/3, x-y+2/3, z+2/3'
'-x+y+1/3, -x+2/3, z+2/3'
'-x, -y, -z'
'y, -x+y, -z'
'x-y, x, -z'
'-x+2/3, -y+1/3, -z+1/3'
'y+2/3, -x+y+1/3, -z+1/3'
'x-y+2/3, x+1/3, -z+1/3'
'-x+1/3, -y+2/3, -z+2/3'
'y+1/3, -x+y+2/3, -z+2/3'
'x-y+1/3, x+2/3, -z+2/3'
loop_
_atom_site_label
_atom_site_type_symbol
_atom_site_fract_x
_atom_site_fract_y
_atom_site_fract_z
_atom_site_U_iso_or_equiv
_atom_site_adp_type
_atom_site_occupancy
_atom_site_site_symmetry_order
_atom_site_calc_flag
_atom_site_refinement_flags_posn
_atom_site_refinement_flags_adp
_atom_site_refinement_flags_occupancy
I1 I 0.66019(2) 1.13875(2) 0.27480(2) 0.01454(7) Uani 1 1 d . . .
Cu1 Cu 0.46498(3) 1.14657(3) 0.30335(2) 0.01799(10) Uani 1 1 d . . .
Si1 Si 0.3333 0.6667 0.32246(5) 0.0134(3) Uani 1 3 d S T P
C1 C 0.3333 0.6667 0.3840(2) 0.0213(13) Uani 1 3 d S T P
H1A H 0.2520 0.6176 0.3948 0.032 Uiso 0.3333 1 calc R U P
H1B H 0.3656 0.7480 0.3948 0.032 Uiso 0.3333 1 calc R U P
H1C H 0.3824 0.6344 0.3948 0.032 Uiso 0.3333 1 calc R U P
C11 C 0.2869(3) 0.7692(3) 0.29737(11) 0.0153(6) Uani 1 1 d . . .
C12 C 0.3466(3) 0.8915(3) 0.30868(12) 0.0156(7) Uani 1 1 d . . .
H12 H 0.3952 0.9149 0.3344 0.019 Uiso 1 1 calc R U .
N13 N 0.3399(2) 0.9760(2) 0.28630(9) 0.0149(5) Uani 1 1 d . . .
C14 C 0.2656(3) 0.9417(3) 0.24957(11) 0.0151(6) Uani 1 1 d . . .
C15 C 0.2591(3) 1.0280(3) 0.22368(11) 0.0165(7) Uani 1 1 d . . .
H15 H 0.3043 1.1092 0.2317 0.020 Uiso 1 1 calc R U .
C16 C 0.1885(3) 0.9958(3) 0.18712(12) 0.0189(7) Uani 1 1 d . . .
H16 H 0.1860 1.0551 0.1696 0.023 Uiso 1 1 calc R U .
C17 C 0.1188(3) 0.8751(3) 0.17484(11) 0.0195(7) Uani 1 1 d . . .
H17 H 0.0694 0.8538 0.1494 0.023 Uiso 1 1 calc R U .
C18 C 0.1227(3) 0.7893(3) 0.19956(12) 0.0204(7) Uani 1 1 d . . .
H18 H 0.0753 0.7084 0.1915 0.024 Uiso 1 1 calc R U .
C19 C 0.1972(3) 0.8205(3) 0.23723(11) 0.0153(7) Uani 1 1 d . . .
C20 C 0.2107(3) 0.7360(3) 0.26160(12) 0.0170(7) Uani 1 1 d . . .
H20 H 0.1668 0.6549 0.2534 0.020 Uiso 1 1 calc R U .
loop_
_atom_site_aniso_label
_atom_site_aniso_U_11
_atom_site_aniso_U_22
_atom_site_aniso_U_33
_atom_site_aniso_U_23
_atom_site_aniso_U_13
_atom_site_aniso_U_12
I1 0.01175(10) 0.01611(10) 0.01456(11) -0.00166(8) -0.00048(8) 0.00607(8)
Cu1 0.01902(19) 0.01301(18) 0.0198(2) 0.00031(16) 0.00029(17) 0.00639(16)
Si1 0.0112(4) 0.0112(4) 0.0178(8) 0.000 0.000 0.00561(19)
C1 0.0218(17) 0.0218(17) 0.020(3) 0.000 0.000 0.0109(9)
C11 0.0152(14) 0.0150(14) 0.0178(17) -0.0005(13) 0.0011(13) 0.0091(12)
C12 0.0115(13) 0.0159(14) 0.0197(18) 0.0003(13) -0.0001(13) 0.0070(12)
N13 0.0122(12) 0.0135(12) 0.0179(15) -0.0020(11) 0.0000(11) 0.0057(10)
C14 0.0106(13) 0.0164(14) 0.0175(18) 0.0027(13) 0.0039(12) 0.0062(12)
C15 0.0172(15) 0.0162(14) 0.0173(18) 0.0005(13) 0.0016(13) 0.0092(12)
C16 0.0218(16) 0.0219(16) 0.0180(18) 0.0053(14) 0.0036(14) 0.0147(13)
C17 0.0150(15) 0.0255(17) 0.0158(18) -0.0001(14) -0.0028(13) 0.0083(13)
C18 0.0155(15) 0.0188(15) 0.0224(19) 0.0019(14) 0.0014(14) 0.0052(13)
C19 0.0123(13) 0.0163(14) 0.0169(18) -0.0006(13) 0.0003(13) 0.0068(12)
C20 0.0146(14) 0.0121(14) 0.0215(19) 0.0006(13) -0.0008(13) 0.0045(12)
loop_
_atom_type_symbol
_atom_type_description
_atom_type_scat_dispersion_real
_atom_type_scat_dispersion_imag
_atom_type_scat_source
C C 0.0033 0.0016 'International Tables Vol C Tables 4.2.6.8 and 6.1.1.4'
H H 0.0000 0.0000 'International Tables Vol C Tables 4.2.6.8 and 6.1.1.4'
N N 0.0061 0.0033 'International Tables Vol C Tables 4.2.6.8 and 6.1.1.4'
Si Si 0.0817 0.0704 'International Tables Vol C Tables 4.2.6.8 and 6.1.1.4'
Cu Cu 0.3201 1.2651 'International Tables Vol C Tables 4.2.6.8 and 6.1.1.4'
I I -0.4742 1.8119 'International Tables Vol C Tables 4.2.6.8 and 6.1.1.4'
loop_
_geom_angle_atom_site_label_1
_geom_angle_atom_site_label_2
_geom_angle_atom_site_label_3
_geom_angle
_geom_angle_site_symmetry_1
_geom_angle_site_symmetry_3
Cu1 I1 Cu1 72.681(13) 2_775 18_655
Cu1 I1 Cu1 111.365(18) 2_775 .
Cu1 I1 Cu1 70.329(13) 18_655 .
N13 Cu1 I1 126.89(8) . 3_575
N13 Cu1 I1 104.72(8) . 17_455
I1 Cu1 I1 110.752(16) 3_575 17_455
N13 Cu1 I1 97.47(7) . .
I1 Cu1 I1 108.626(17) 3_575 .
I1 Cu1 I1 106.193(15) 17_455 .
C1 Si1 C11 113.78(11) . .
C1 Si1 C11 113.78(11) . 2_665
C11 Si1 C11 104.84(13) . 2_665
C1 Si1 C11 113.78(11) . 3_565
C11 Si1 C11 104.84(13) . 3_565
C11 Si1 C11 104.83(13) 2_665 3_565
Si1 C1 H1A 109.5 . .
Si1 C1 H1B 109.5 . .
H1A C1 H1B 109.5 . .
Si1 C1 H1C 109.5 . .
H1A C1 H1C 109.5 . .
H1B C1 H1C 109.5 . .
C20 C11 C12 116.3(3) . .
C20 C11 Si1 121.9(2) . .
C12 C11 Si1 120.7(2) . .
N13 C12 C11 125.4(3) . .
N13 C12 H12 117.3 . .
C11 C12 H12 117.3 . .
C12 N13 C14 117.5(3) . .
C12 N13 Cu1 114.9(2) . .
C14 N13 Cu1 126.5(2) . .
N13 C14 C15 119.8(3) . .
N13 C14 C19 121.0(3) . .
C15 C14 C19 119.2(3) . .
C16 C15 C14 120.4(3) . .
C16 C15 H15 119.8 . .
C14 C15 H15 119.8 . .
C15 C16 C17 120.9(3) . .
C15 C16 H16 119.6 . .
C17 C16 H16 119.6 . .
C18 C17 C16 120.0(3) . .
C18 C17 H17 120.0 . .
C16 C17 H17 120.0 . .
C17 C18 C19 120.4(3) . .
C17 C18 H18 119.8 . .
C19 C18 H18 119.8 . .
C20 C19 C18 122.1(3) . .
C20 C19 C14 118.6(3) . .
C18 C19 C14 119.2(3) . .
C11 C20 C19 121.0(3) . .
C11 C20 H20 119.5 . .
C19 C20 H20 119.5 . .
loop_
_geom_bond_atom_site_label_1
_geom_bond_atom_site_label_2
_geom_bond_distance
_geom_bond_site_symmetry_2
I1 Cu1 2.5828(6) 2_775
I1 Cu1 2.6759(6) 18_655
I1 Cu1 2.7359(6) .
Cu1 N13 2.059(2) .
Cu1 I1 2.5829(5) 3_575
Cu1 I1 2.6759(6) 17_455
Si1 C1 1.858(6) .
Si1 C11 1.880(3) .
Si1 C11 1.880(3) 2_665
Si1 C11 1.880(3) 3_565
C1 H1A 0.9800 .
C1 H1B 0.9800 .
C1 H1C 0.9800 .
C11 C20 1.382(5) .
C11 C12 1.423(4) .
C12 N13 1.331(4) .
C12 H12 0.9500 .
N13 C14 1.391(4) .
C14 C15 1.407(4) .
C14 C19 1.421(4) .
C15 C16 1.362(5) .
C15 H15 0.9500 .
C16 C17 1.418(4) .
C16 H16 0.9500 .
C17 C18 1.366(5) .
C17 H17 0.9500 .
C18 C19 1.417(5) .
C18 H18 0.9500 .
C19 C20 1.407(4) .
C20 H20 0.9500 .
