#------------------------------------------------------------------------------
#$Date: 2016-02-13 14:50:18 +0200 (Sat, 13 Feb 2016) $
#$Revision: 176428 $
#$URL: svn://www.crystallography.net/cod/cif/4/34/38/4343893.cif $
#------------------------------------------------------------------------------
#
# This file is available in the Crystallography Open Database (COD),
# http://www.crystallography.net/
#
# All data on this site have been placed in the public domain by the
# contributors.
#
data_4343893
loop_
_publ_author_name
'Wen, Lili'
'Zheng, Xiaofang'
'Lv, Kangle'
'Wang, Chenggang'
'Xu, Xiaoyue'
_publ_section_title
;
 Two Amino-Decorated Metal-Organic Frameworks for Highly Selective and
 Quantitatively Sensing of Hg(II) and Cr(VI) in Aqueous Solution.
;
_journal_issue                   15
_journal_name_full               'Inorganic chemistry'
_journal_page_first              7133
_journal_page_last               7135
_journal_paper_doi               10.1021/acs.inorgchem.5b00098
_journal_volume                  54
_journal_year                    2015
_chemical_formula_sum            'C56 H44 N10 O8 Zn2'
_chemical_formula_weight         1115.75
_chemical_name_systematic
; 
 ? 
;
_space_group_IT_number           62
_symmetry_cell_setting           orthorhombic
_symmetry_space_group_name_Hall  '-P 2ac 2n'
_symmetry_space_group_name_H-M   'P n m a'
_atom_sites_solution_hydrogens   geom
_atom_sites_solution_primary     direct
_atom_sites_solution_secondary   difmap
_audit_creation_method           SHELXL-97
_cell_angle_alpha                90.00
_cell_angle_beta                 90.00
_cell_angle_gamma                90.00
_cell_formula_units_Z            2
_cell_length_a                   19.7872(14)
_cell_length_b                   18.0304(13)
_cell_length_c                   7.0829(5)
_cell_measurement_temperature    296(2)
_cell_volume                     2527.0(3)
_computing_cell_refinement       SMART
_computing_data_collection       'SMART (Bruker, 2000)'
_computing_data_reduction        'SAINT (Bruker, 2000)'
_computing_molecular_graphics    SHELXTL
_computing_publication_material  SHELXTL
_computing_structure_refinement  SHELXTL
_computing_structure_solution    'SHELXTL (Bruker, 2000)'
_diffrn_ambient_temperature      296(2)
_diffrn_measured_fraction_theta_full 0.999
_diffrn_measured_fraction_theta_max 0.999
_diffrn_measurement_device_type  'Bruker Smart Aepex CCD'
_diffrn_radiation_monochromator  graphite
_diffrn_radiation_source         'fine-focus sealed tube'
_diffrn_radiation_type           MoK\a
_diffrn_radiation_wavelength     0.71073
_diffrn_reflns_av_R_equivalents  0.0355
_diffrn_reflns_av_sigmaI/netI    0.0241
_diffrn_reflns_limit_h_max       26
_diffrn_reflns_limit_h_min       -22
_diffrn_reflns_limit_k_max       23
_diffrn_reflns_limit_k_min       -23
_diffrn_reflns_limit_l_max       9
_diffrn_reflns_limit_l_min       -9
_diffrn_reflns_number            21714
_diffrn_reflns_theta_full        27.99
_diffrn_reflns_theta_max         27.99
_diffrn_reflns_theta_min         2.06
_exptl_absorpt_coefficient_mu    1.017
_exptl_absorpt_correction_T_max  0.841
_exptl_absorpt_correction_T_min  0.800
_exptl_absorpt_correction_type   multi-scan
_exptl_absorpt_process_details   'SADABS; Bruker, 2000'
_exptl_crystal_colour            colorless
_exptl_crystal_density_diffrn    1.466
_exptl_crystal_density_method    'not measured'
_exptl_crystal_description       block
_exptl_crystal_F_000             1148
_exptl_crystal_size_max          0.22
_exptl_crystal_size_mid          0.19
_exptl_crystal_size_min          0.17
_refine_diff_density_max         0.752
_refine_diff_density_min         -0.419
_refine_diff_density_rms         0.074
_refine_ls_extinction_method     none
_refine_ls_goodness_of_fit_ref   1.066
_refine_ls_hydrogen_treatment    constr
_refine_ls_matrix_type           full
_refine_ls_number_parameters     209
_refine_ls_number_reflns         3148
_refine_ls_number_restraints     45
_refine_ls_restrained_S_all      1.164
_refine_ls_R_factor_all          0.0655
_refine_ls_R_factor_gt           0.0497
_refine_ls_shift/su_max          0.000
_refine_ls_shift/su_mean         0.000
_refine_ls_structure_factor_coef Fsqd
_refine_ls_weighting_details
'calc w=1/[\s^2^(Fo^2^)+(0.0771P)^2^+2.3268P] where P=(Fo^2^+2Fc^2^)/3'
_refine_ls_weighting_scheme      calc
_refine_ls_wR_factor_gt          0.1391
_refine_ls_wR_factor_ref         0.1466
_reflns_number_gt                2472
_reflns_number_total             3148
_reflns_threshold_expression     >2sigma(I)
_cod_data_source_file            ic5b00098_si_002.cif
_cod_data_source_block           1
_cod_depositor_comments
;
The following automatic conversions were performed:

'_symmetry_cell_setting' value 'Orthorhombic' changed to
'orthorhombic' according to
/usr/data/users/saulius/crontab/automatic-downloads/rss-feeds/ACS/lib/dictionaries/cif_core.dic
dictionary named 'cif_core.dic' version 2.4.2 from 2011-04-26.

Automatic conversion script
Id: cif_fix_values 3271 2015-04-21 07:52:19Z andrius 

 Adding full bibliography for 4343893--4343894.cif.
;
_cod_original_sg_symbol_H-M      Pnma
_cod_database_code               4343893
loop_
_symmetry_equiv_pos_as_xyz
'x, y, z'
'x+1/2, -y+1/2, -z+1/2'
'-x, y+1/2, -z'
'-x+1/2, -y, z+1/2'
'-x, -y, -z'
'-x-1/2, y-1/2, z-1/2'
'x, -y-1/2, z'
'x-1/2, y, -z-1/2'
loop_
_atom_site_label
_atom_site_type_symbol
_atom_site_fract_x
_atom_site_fract_y
_atom_site_fract_z
_atom_site_U_iso_or_equiv
_atom_site_adp_type
_atom_site_occupancy
_atom_site_symmetry_multiplicity
_atom_site_calc_flag
_atom_site_refinement_flags
_atom_site_disorder_assembly
_atom_site_disorder_group
C1 C 0.3492(2) 0.2500 0.4944(6) 0.0347(8) Uani 1 2 d S . .
C2 C 0.41019(19) 0.2500 0.6210(5) 0.0300(8) Uani 1 2 d S B .
C3 C 0.40316(19) 0.2500 0.8184(6) 0.0309(8) Uani 1 2 d SD . .
C4 C 0.4600(2) 0.2500 0.9295(5) 0.0289(8) Uani 1 2 d S B .
H4 H 0.4550 0.2500 1.0601 0.035 Uiso 1 2 calc SR . .
C5 C 0.5845(2) 0.2500 0.9857(6) 0.0330(8) Uani 1 2 d S B .
C6 C 0.52496(18) 0.2500 0.8526(5) 0.0249(7) Uani 1 2 d S . .
C7 C 0.53292(18) 0.2500 0.6537(5) 0.0276(7) Uani 1 2 d SD B .
C8 C 0.47451(19) 0.2500 0.5422(5) 0.0307(8) Uani 1 2 d S . .
H8 H 0.4789 0.2500 0.4115 0.037 Uiso 1 2 calc SR B .
C9 C 0.2650(3) 0.3771(3) 0.1450(8) 0.0832(14) Uani 1 1 d U . .
H9 H 0.3068 0.3557 0.1198 0.100 Uiso 1 1 calc R . .
C10 C 0.2443(3) 0.4448(3) 0.0849(8) 0.0948(17) Uani 1 1 d U A .
H10 H 0.2697 0.4786 0.0156 0.114 Uiso 1 1 calc R . .
C11 C 0.16569(18) 0.39459(19) 0.2468(6) 0.0515(8) Uani 1 1 d . A .
H11 H 0.1251 0.3884 0.3111 0.062 Uiso 1 1 calc R . .
C12 C 0.1358(3) 0.5171(2) 0.1049(7) 0.0729(12) Uani 1 1 d U A .
H12A H 0.1629 0.5619 0.1006 0.087 Uiso 1 1 calc R . .
H12B H 0.1037 0.5224 0.2076 0.087 Uiso 1 1 calc R . .
C13 C 0.0978(2) 0.50998(19) -0.0762(6) 0.0634(11) Uani 1 1 d . . .
C14 C 0.0986(5) 0.4463(4) -0.1733(13) 0.0599(15) Uani 0.529(6) 1 d PU A 1
H14A H 0.1235 0.4058 -0.1313 0.072 Uiso 0.529(6) 1 calc PR A 1
C15 C 0.0610(5) 0.4425(4) -0.3386(13) 0.0584(15) Uani 0.529(6) 1 d PU A 1
H15A H 0.0620 0.3983 -0.4059 0.070 Uiso 0.529(6) 1 calc PR A 1
C17 C 0.0295(5) 0.5697(5) -0.2992(13) 0.0532(15) Uani 0.529(6) 1 d PU A 1
H17A H 0.0097 0.6134 -0.3420 0.064 Uiso 0.529(6) 1 calc PR A 1
C18 C 0.0656(5) 0.5723(5) -0.1320(13) 0.0575(16) Uani 0.529(6) 1 d PU A 1
H18A H 0.0676 0.6155 -0.0604 0.069 Uiso 0.529(6) 1 calc PR A 1
C16 C 0.0204(2) 0.50227(18) -0.4138(6) 0.0583(10) Uani 1 1 d . . .
Zn1 Zn 0.21680(2) 0.2500 0.39767(7) 0.03390(18) Uani 1 2 d S . .
N1 N 0.21449(13) 0.34519(16) 0.2486(4) 0.0452(6) Uani 1 1 d U . .
N2 N 0.17990(19) 0.45391(18) 0.1447(5) 0.0648(9) Uani 1 1 d U . .
N3 N 0.5941(2) 0.2500 0.5659(6) 0.0377(10) Uani 0.793(6) 2 d SPD B 1
H3A H 0.5963 0.2500 0.4446 0.045 Uiso 0.793(6) 2 calc SPR B 1
H3B H 0.6306 0.2500 0.6317 0.045 Uiso 0.793(6) 2 calc SPR B 1
N3' N 0.3442(7) 0.2500 0.900(2) 0.0377(10) Uani 0.207(6) 2 d SPD B 2
H3C H 0.3414 0.2500 1.0213 0.045 Uiso 0.207(6) 2 calc SPR B 2
H3D H 0.3080 0.2500 0.8329 0.045 Uiso 0.207(6) 2 calc SPR B 2
O1 O 0.29252(16) 0.2500 0.5758(5) 0.0557(10) Uani 1 2 d S . .
O2 O 0.35630(15) 0.2500 0.3201(4) 0.0436(7) Uani 1 2 d S . .
O3 O 0.57366(17) 0.2500 1.1573(5) 0.0577(10) Uani 1 2 d S . .
O4 O 0.64292(15) 0.2500 0.9158(4) 0.0450(8) Uani 1 2 d S . .
C14' C 0.0633(5) 0.4437(5) -0.1421(14) 0.0599(15) Uani 0.471(6) 1 d P A 2
H14B H 0.0671 0.4009 -0.0696 0.072 Uiso 0.471(6) 1 calc PR A 2
C15' C 0.0247(5) 0.4400(5) -0.3079(14) 0.0584(15) Uani 0.471(6) 1 d P A 2
H15B H 0.0030 0.3965 -0.3436 0.070 Uiso 0.471(6) 1 calc PR A 2
C17' C 0.0427(5) 0.5669(6) -0.3730(15) 0.0532(15) Uani 0.471(6) 1 d P A 2
H17B H 0.0346 0.6082 -0.4483 0.064 Uiso 0.471(6) 1 calc PR A 2
C18' C 0.0807(5) 0.5705(6) -0.2050(15) 0.0575(16) Uani 0.471(6) 1 d P A 2
H18B H 0.0968 0.6172 -0.1720 0.069 Uiso 0.471(6) 1 calc PR A 2
loop_
_atom_site_aniso_label
_atom_site_aniso_U_11
_atom_site_aniso_U_22
_atom_site_aniso_U_33
_atom_site_aniso_U_23
_atom_site_aniso_U_13
_atom_site_aniso_U_12
C1 0.0284(19) 0.040(2) 0.035(2) 0.000 -0.0050(16) 0.000
C2 0.0272(19) 0.0327(19) 0.0302(18) 0.000 -0.0017(14) 0.000
C3 0.0273(18) 0.0332(19) 0.0322(19) 0.000 0.0020(15) 0.000
C4 0.0303(19) 0.0281(18) 0.0282(18) 0.000 0.0013(14) 0.000
C5 0.038(2) 0.0281(18) 0.033(2) 0.000 -0.0025(16) 0.000
C6 0.0255(18) 0.0231(16) 0.0261(17) 0.000 -0.0017(13) 0.000
C7 0.0215(17) 0.0287(18) 0.0326(19) 0.000 0.0000(14) 0.000
C8 0.0268(19) 0.039(2) 0.0259(17) 0.000 -0.0010(14) 0.000
C9 0.072(2) 0.083(2) 0.094(3) 0.024(2) 0.026(2) 0.006(2)
C10 0.093(3) 0.090(3) 0.101(3) 0.026(2) 0.023(2) 0.000(2)
C11 0.0458(19) 0.0464(18) 0.062(2) 0.0048(16) 0.0058(15) -0.0018(16)
C12 0.081(2) 0.0531(19) 0.084(2) 0.0063(18) -0.002(2) 0.0046(18)
C13 0.072(3) 0.0316(16) 0.086(3) 0.0044(17) 0.010(2) 0.0052(17)
C14 0.067(3) 0.0413(19) 0.071(3) 0.0092(19) 0.000(3) 0.007(3)
C15 0.066(3) 0.0367(19) 0.073(3) 0.0048(19) -0.001(3) 0.005(3)
C17 0.062(3) 0.0366(18) 0.061(3) 0.002(3) 0.000(3) 0.0005(19)
C18 0.066(3) 0.0396(19) 0.067(3) -0.002(3) 0.002(3) -0.004(2)
C16 0.068(3) 0.0249(15) 0.082(3) 0.0057(17) 0.0119(19) 0.0086(16)
Zn1 0.0217(2) 0.0471(3) 0.0329(3) 0.000 0.00019(17) 0.000
N1 0.0359(14) 0.0485(15) 0.0512(16) 0.0086(13) 0.0054(11) -0.0019(12)
N2 0.063(2) 0.0486(18) 0.083(2) 0.0153(17) 0.0076(18) 0.0015(16)
N3 0.025(2) 0.060(3) 0.028(2) 0.000 0.0023(15) 0.000
N3' 0.025(2) 0.060(3) 0.028(2) 0.000 0.0023(15) 0.000
O1 0.0272(16) 0.096(3) 0.0439(19) 0.000 -0.0033(13) 0.000
O2 0.0355(16) 0.062(2) 0.0338(15) 0.000 -0.0080(13) 0.000
O3 0.0371(18) 0.107(3) 0.0292(15) 0.000 -0.0044(13) 0.000
O4 0.0269(15) 0.070(2) 0.0384(16) 0.000 -0.0073(12) 0.000
C14' 0.067(3) 0.0413(19) 0.071(3) 0.0092(19) 0.000(3) 0.007(3)
C15' 0.066(3) 0.0367(19) 0.073(3) 0.0048(19) -0.001(3) 0.005(3)
C17' 0.062(3) 0.0366(18) 0.061(3) 0.002(3) 0.000(3) 0.0005(19)
C18' 0.066(3) 0.0396(19) 0.067(3) -0.002(3) 0.002(3) -0.004(2)
loop_
_atom_type_symbol
_atom_type_description
_atom_type_scat_dispersion_real
_atom_type_scat_dispersion_imag
_atom_type_scat_source
C C 0.0033 0.0016 'International Tables Vol C Tables 4.2.6.8 and 6.1.1.4'
H H 0.0000 0.0000 'International Tables Vol C Tables 4.2.6.8 and 6.1.1.4'
N N 0.0061 0.0033 'International Tables Vol C Tables 4.2.6.8 and 6.1.1.4'
O O 0.0106 0.0060 'International Tables Vol C Tables 4.2.6.8 and 6.1.1.4'
Zn Zn 0.2839 1.4301 'International Tables Vol C Tables 4.2.6.8 and 6.1.1.4'
loop_
_geom_angle_atom_site_label_1
_geom_angle_atom_site_label_2
_geom_angle_atom_site_label_3
_geom_angle
_geom_angle_site_symmetry_1
_geom_angle_site_symmetry_3
O2 C1 O1 123.7(4) . .
O2 C1 C2 120.2(4) . .
O1 C1 C2 116.2(4) . .
C8 C2 C3 119.4(4) . .
C8 C2 C1 119.7(3) . .
C3 C2 C1 120.9(4) . .
N3' C3 C4 118.6(8) . .
N3' C3 C2 122.1(8) . .
C4 C3 C2 119.3(4) . .
C3 C4 C6 122.1(3) . .
C3 C4 H4 119.0 . .
C6 C4 H4 119.0 . .
O3 C5 O4 123.2(4) . .
O3 C5 C6 118.7(4) . .
O4 C5 C6 118.1(3) . .
C4 C6 C7 119.3(3) . .
C4 C6 C5 118.4(3) . .
C7 C6 C5 122.3(3) . .
N3 C7 C8 118.5(4) . .
N3 C7 C6 123.6(4) . .
C8 C7 C6 118.0(3) . .
C2 C8 C7 122.0(4) . .
C2 C8 H8 119.0 . .
C7 C8 H8 119.0 . .
C10 C9 N1 109.1(5) . .
C10 C9 H9 125.5 . .
N1 C9 H9 125.5 . .
N2 C10 C9 107.1(5) . .
N2 C10 H10 126.4 . .
C9 C10 H10 126.4 . .
N1 C11 N2 113.4(3) . .
N1 C11 H11 123.3 . .
N2 C11 H11 123.3 . .
N2 C12 C13 113.5(4) . .
N2 C12 H12A 108.9 . .
C13 C12 H12A 108.9 . .
N2 C12 H12B 108.9 . .
C13 C12 H12B 108.9 . .
H12A C12 H12B 107.7 . .
C14 C13 C18 124.7(7) . .
C14 C13 C14' 30.1(4) . .
C18 C13 C14' 111.7(6) . .
C14 C13 C18' 108.9(6) . .
C18 C13 C18' 24.1(5) . .
C14' C13 C18' 107.8(6) . .
C14 C13 C12 120.6(5) . .
C18 C13 C12 114.6(5) . .
C14' C13 C12 125.7(5) . .
C18' C13 C12 126.0(5) . .
C13 C14 C15 117.9(7) . .
C13 C14 H14A 121.0 . .
C15 C14 H14A 121.0 . .
C14 C15 C16 124.9(7) . .
C14 C15 H15A 117.5 . .
C16 C15 H15A 117.5 . .
C18 C17 C16 124.2(8) . .
C18 C17 H17A 117.9 . .
C16 C17 H17A 117.9 . .
C13 C18 C17 117.7(8) . .
C13 C18 H18A 121.1 . .
C17 C18 H18A 121.1 . .
C17' C16 C15' 127.4(7) . .
C17' C16 C15 113.8(7) . .
C15' C16 C15 30.9(4) . .
C17' C16 C16 115.4(6) . 5_564
C15' C16 C16 116.8(6) . 5_564
C15 C16 C16 124.9(5) . 5_564
C17' C16 C17 23.3(5) . .
C15' C16 C17 111.8(6) . .
C15 C16 C17 110.1(6) . .
C16 C16 C17 124.9(5) 5_564 .
O1 Zn1 O4 97.78(14) . 2_456
O1 Zn1 N1 110.78(9) . 7_565
O4 Zn1 N1 109.54(9) 2_456 7_565
O1 Zn1 N1 110.78(9) . .
O4 Zn1 N1 109.54(9) 2_456 .
N1 Zn1 N1 116.74(18) 7_565 .
C11 N1 C9 104.3(3) . .
C11 N1 Zn1 126.8(2) . .
C9 N1 Zn1 128.5(3) . .
C11 N2 C10 105.9(4) . .
C11 N2 C12 127.5(4) . .
C10 N2 C12 126.6(4) . .
C7 N3 H3A 120.0 . .
C7 N3 H3B 120.0 . .
H3A N3 H3B 120.0 . .
C3 N3' H3C 120.0 . .
C3 N3' H3D 120.0 . .
H3C N3' H3D 120.0 . .
C1 O1 Zn1 112.7(3) . .
C5 O4 Zn1 114.7(3) . 2_556
C15' C14' C13 124.3(8) . .
C15' C14' H14B 117.9 . .
C13 C14' H14B 117.9 . .
C16 C15' C14' 117.4(8) . .
C16 C15' H15B 121.3 . .
C14' C15' H15B 121.3 . .
C16 C17' C18' 114.7(9) . .
C16 C17' H17B 122.6 . .
C18' C17' H17B 122.6 . .
C17' C18' C13 128.0(9) . .
C17' C18' H18B 116.0 . .
C13 C18' H18B 116.0 . .
loop_
_geom_bond_atom_site_label_1
_geom_bond_atom_site_label_2
_geom_bond_distance
_geom_bond_site_symmetry_2
C1 O2 1.243(5) .
C1 O1 1.262(5) .
C1 C2 1.503(5) .
C2 C8 1.390(5) .
C2 C3 1.405(5) .
C3 N3' 1.302(14) .
C3 C4 1.372(5) .
C4 C6 1.397(5) .
C4 H4 0.9300 .
C5 O3 1.234(5) .
C5 O4 1.259(5) .
C5 C6 1.508(5) .
C6 C7 1.418(5) .
C7 N3 1.361(6) .
C7 C8 1.399(5) .
C8 H8 0.9300 .
C9 C10 1.357(7) .
C9 N1 1.366(5) .
C9 H9 0.9300 .
C10 N2 1.353(7) .
C10 H10 0.9300 .
C11 N1 1.314(4) .
C11 N2 1.321(5) .
C11 H11 0.9300 .
C12 N2 1.463(5) .
C12 C13 1.493(6) .
C12 H12A 0.9700 .
C12 H12B 0.9700 .
C13 C14 1.339(9) .
C13 C18 1.351(10) .
C13 C14' 1.453(11) .
C13 C18' 1.463(11) .
C14 C15 1.388(12) .
C14 H14A 0.9300 .
C15 C16 1.446(9) .
C15 H15A 0.9300 .
C17 C18 1.383(13) .
C17 C16 1.474(10) .
C17 H17A 0.9300 .
C18 H18A 0.9300 .
C16 C17' 1.279(11) .
C16 C15' 1.353(10) .
C16 C16 1.466(9) 5_564
Zn1 O1 1.959(3) .
Zn1 O4 1.971(3) 2_456
Zn1 N1 2.016(3) 7_565
Zn1 N1 2.016(3) .
N3 H3A 0.8600 .
N3 H3B 0.8600 .
N3' H3C 0.8600 .
N3' H3D 0.8600 .
O4 Zn1 1.971(3) 2_556
C14' C15' 1.401(14) .
C14' H14B 0.9300 .
C15' H15B 0.9300 .
C17' C18' 1.408(15) .
C17' H17B 0.9300 .
C18' H18B 0.9300 .
loop_
_refln_index_h
_refln_index_k
_refln_index_l
_refln_F_squared_calc
_refln_F_squared_meas
_refln_F_squared_sigma
_refln_observed_status
2 0 0 373.25 862.55 24.18 o
4 0 0 3736.09 4291.93 79.80 o
6 0 0 6172.03 6552.94 121.41 o
8 0 0 565.61 398.50 18.54 o
10 0 0 328.88 426.81 12.65 o
12 0 0 1838.74 1741.23 59.65 o
14 0 0 4584.84 4710.99 135.43 o
16 0 0 12425.08 12609.40 338.57 o
18 0 0 16.91 14.51 22.57 o
20 0 0 492.37 549.78 45.14 o
22 0 0 5.54 0.00 27.41 o
24 0 0 18.30 0.00 29.02 o
26 0 0 644.71 467.55 49.98 o
2 1 0 4138.47 4562.03 79.19 o
4 1 0 5689.49 6518.52 98.36 o
6 1 0 10335.30 12684.91 191.12 o
8 1 0 11512.18 12563.51 189.58 o
10 1 0 1859.34 2358.64 40.24 o
12 1 0 1792.77 1971.19 35.31 o
14 1 0 341.64 411.66 13.86 o
16 1 0 212.10 194.46 17.64 o
18 1 0 101.09 138.20 35.47 o
20 1 0 1521.12 1501.63 46.74 o
22 1 0 2062.53 2116.21 60.39 o
24 1 0 719.61 557.69 34.76 o
26 1 0 496.44 383.52 33.06 o
0 2 0 10804.22 12886.71 343.41 o
2 2 0 9449.48 11078.30 147.47 o
4 2 0 1285.87 1613.50 40.31 o
6 2 0 719.89 834.16 16.95 o
8 2 0 232.10 223.21 10.37 o
10 2 0 1722.58 1685.83 30.90 o
12 2 0 6164.93 6534.85 102.66 o
14 2 0 9894.04 10100.99 156.36 o
16 2 0 10278.04 10261.64 197.22 o
18 2 0 66.79 80.41 18.13 o
20 2 0 83.23 59.65 19.73 o
22 2 0 25.58 29.80 20.88 o
24 2 0 91.42 54.13 24.18 o
26 2 0 186.51 171.11 28.92 o
2 3 0 148.10 217.89 7.14 o
4 3 0 2321.36 3020.45 70.74 o
6 3 0 6635.50 5251.37 81.25 o
8 3 0 12223.79 12452.19 188.64 o
10 3 0 6363.59 6147.87 96.78 o
12 3 0 2703.26 2848.28 62.58 o
14 3 0 275.95 256.14 12.57 o
16 3 0 527.57 550.96 34.66 o
18 3 0 55.41 28.63 20.96 o
20 3 0 246.72 290.29 24.77 o
22 3 0 1345.66 1279.53 46.08 o
24 3 0 320.74 188.40 27.29 o
0 4 0 164491.38 161168.88 3145.86 o
2 4 0 4718.68 5904.65 60.56 o
4 4 0 1421.45 1844.94 30.69 o
6 4 0 577.70 428.93 16.32 o
8 4 0 224.33 198.10 7.90 o
10 4 0 2192.74 2361.05 42.09 o
12 4 0 2789.73 2779.99 60.92 o
14 4 0 3342.90 3427.28 59.71 o
16 4 0 7491.06 7737.90 153.31 o
18 4 0 274.55 257.58 22.85 o
20 4 0 77.91 45.10 20.15 o
22 4 0 75.27 34.96 33.86 o
24 4 0 8.94 0.00 21.69 o
2 5 0 409.38 269.27 6.59 o
4 5 0 940.30 815.38 17.31 o
6 5 0 6857.75 6889.49 131.67 o
8 5 0 6237.11 5707.81 109.37 o
10 5 0 260.41 172.70 63.68 o
12 5 0 670.28 666.74 19.62 o
14 5 0 354.45 343.52 15.64 o
16 5 0 8.65 31.98 28.21 o
18 5 0 207.36 132.93 18.17 o
20 5 0 334.75 265.67 27.41 o
22 5 0 611.91 669.62 35.79 o
24 5 0 324.29 263.46 28.65 o
0 6 0 117402.55 124249.53 2292.62 o
2 6 0 196.98 258.81 18.82 o
4 6 0 554.11 440.42 14.22 o
6 6 0 1435.90 1184.91 66.10 o
8 6 0 2482.49 2582.05 44.24 o
10 6 0 278.87 284.57 11.48 o
12 6 0 668.42 780.57 42.72 o
14 6 0 2327.65 2517.72 60.46 o
16 6 0 5374.43 5438.77 91.37 o
18 6 0 9.70 25.39 20.96 o
20 6 0 161.43 216.99 23.22 o
22 6 0 6.44 0.00 19.68 o
24 6 0 22.96 0.00 21.30 o
4 7 0 300.20 274.82 8.84 o
6 7 0 192.41 185.21 9.22 o
8 7 0 2220.63 2241.79 39.87 o
10 7 0 1695.08 1688.71 33.15 o
12 7 0 978.29 943.41 32.12 o
14 7 0 251.10 238.87 18.49 o
16 7 0 201.51 197.90 17.00 o
18 7 0 127.52 162.68 19.68 o
20 7 0 591.99 636.47 42.72 o
22 7 0 1238.58 1171.34 44.76 o
24 7 0 265.77 244.47 36.72 o
0 8 0 54669.35 54898.84 1023.70 o
2 8 0 2385.52 2143.47 37.85 o
4 8 0 32.09 23.00 3.69 o
6 8 0 25.34 22.18 4.60 o
8 8 0 1605.38 1893.23 31.06 o
10 8 0 1620.75 1638.32 57.07 o
12 8 0 1800.67 1680.81 45.43 o
14 8 0 3304.91 3155.17 104.80 o
16 8 0 7560.01 7814.82 126.87 o
18 8 0 7.71 17.16 16.36 o
20 8 0 96.88 68.35 19.98 o
22 8 0 28.69 89.30 18.39 o
24 8 0 19.64 16.55 15.77 o
2 9 0 187.18 167.42 9.90 o
4 9 0 577.35 472.78 9.83 o
6 9 0 9266.70 9124.40 117.70 o
8 9 0 4673.31 4551.12 166.89 o
10 9 0 840.61 860.87 21.86 o
12 9 0 652.26 784.32 33.27 o
14 9 0 36.01 8.06 30.63 o
16 9 0 182.22 162.60 13.99 o
18 9 0 27.57 19.97 16.36 o
20 9 0 555.94 591.44 24.43 o
22 9 0 1175.25 1137.54 48.47 o
24 9 0 289.30 217.32 34.50 o
0 10 0 50074.70 52576.80 983.13 o
2 10 0 2951.92 2413.51 67.73 o
4 10 0 2200.74 2300.62 30.46 o
6 10 0 1939.45 2057.03 28.28 o
8 10 0 1127.10 1106.77 19.82 o
10 10 0 349.38 297.45 32.11 o
12 10 0 2090.62 1981.33 38.90 o
14 10 0 2054.90 1931.28 46.43 o
16 10 0 3650.13 3414.19 60.89 o
18 10 0 6.02 31.90 11.70 o
20 10 0 88.81 110.06 23.84 o
22 10 0 32.79 18.45 14.37 o
2 11 0 1001.49 1045.70 22.11 o
4 11 0 1056.78 1086.67 22.20 o
6 11 0 2817.02 2878.78 37.68 o
8 11 0 6860.56 6667.39 88.95 o
10 11 0 3634.34 3524.34 50.43 o
12 11 0 771.21 861.69 33.26 o
14 11 0 94.13 129.42 15.54 o
16 11 0 163.56 151.91 14.53 o
18 11 0 28.48 54.28 12.57 o
20 11 0 352.08 296.22 18.61 o
22 11 0 502.07 533.00 33.27 o
0 12 0 24595.22 25619.63 474.74 o
2 12 0 247.49 215.78 14.66 o
4 12 0 482.44 484.33 27.21 o
6 12 0 286.89 347.27 16.06 o
8 12 0 10.43 1.42 8.34 o
10 12 0 717.14 697.36 19.16 o
12 12 0 1672.01 1707.71 50.16 o
14 12 0 1858.85 1691.25 72.55 o
16 12 0 4675.00 4749.78 133.82 o
18 12 0 21.30 28.79 12.02 o
20 12 0 76.98 130.54 22.04 o
22 12 0 1.81 0.00 21.18 o
2 13 0 138.81 106.72 10.26 o
4 13 0 1112.23 1076.44 26.61 o
6 13 0 2347.68 2244.28 38.61 o
8 13 0 1285.32 1297.41 27.33 o
10 13 0 688.68 677.69 23.81 o
12 13 0 556.65 561.91 30.72 o
14 13 0 116.63 177.35 35.47 o
16 13 0 26.66 51.29 17.30 o
18 13 0 21.82 28.29 17.57 o
20 13 0 276.38 334.99 27.50 o
0 14 0 6298.68 5820.77 118.50 o
2 14 0 2351.96 2410.16 41.05 o
4 14 0 11.76 0.00 5.46 o
6 14 0 16.84 8.70 10.91 o
8 14 0 29.42 0.00 12.26 o
10 14 0 67.78 66.48 10.35 o
12 14 0 193.53 200.81 27.41 o
14 14 0 410.08 414.35 40.31 o
16 14 0 1693.42 1787.63 62.88 o
18 14 0 25.39 50.61 29.83 o
20 14 0 41.44 50.57 20.86 o
2 15 0 1852.74 2092.65 38.05 o
4 15 0 15.66 0.00 9.14 o
6 15 0 773.52 703.15 29.69 o
8 15 0 470.99 436.07 17.46 o
10 15 0 136.76 115.12 11.57 o
12 15 0 24.31 22.74 15.81 o
14 15 0 51.75 35.79 18.54 o
16 15 0 10.67 12.14 22.57 o
18 15 0 6.30 0.00 17.30 o
20 15 0 98.24 165.30 33.86 o
0 16 0 13659.06 14658.62 323.26 o
2 16 0 521.90 651.75 20.92 o
4 16 0 614.82 622.09 23.40 o
6 16 0 421.21 445.56 17.66 o
8 16 0 0.57 0.00 9.53 o
10 16 0 35.14 42.13 13.50 o
12 16 0 155.60 204.47 43.53 o
14 16 0 92.00 66.42 23.38 o
16 16 0 1401.83 1438.33 50.65 o
18 16 0 71.93 82.85 31.44 o
2 17 0 953.87 1031.96 26.36 o
4 17 0 249.06 332.36 18.82 o
6 17 0 323.12 347.84 16.85 o
8 17 0 573.51 581.12 23.27 o
10 17 0 430.59 406.57 33.05 o
12 17 0 138.53 143.43 20.43 o
14 17 0 1.94 10.38 30.63 o
16 17 0 65.47 78.75 20.86 o
18 17 0 1.32 0.00 24.18 o
0 18 0 948.21 618.66 30.21 o
2 18 0 195.48 251.80 17.89 o
4 18 0 16.94 19.36 10.47 o
6 18 0 89.75 73.07 12.54 o
8 18 0 0.84 5.98 12.26 o
10 18 0 41.08 35.25 16.99 o
12 18 0 376.56 380.56 21.29 o
14 18 0 289.40 273.08 26.63 o
16 18 0 753.06 763.81 40.46 o
2 19 0 432.32 531.38 28.43 o
4 19 0 68.96 82.21 14.19 o
6 19 0 530.64 474.71 22.91 o
8 19 0 397.64 393.67 20.77 o
10 19 0 304.48 342.60 21.05 o
12 19 0 12.73 7.01 14.51 o
14 19 0 33.10 40.91 30.63 o
0 20 0 4033.78 3730.04 87.69 o
2 20 0 12.05 20.77 13.63 o
4 20 0 134.47 156.80 16.43 o
6 20 0 0.98 4.64 13.25 o
8 20 0 8.54 9.39 11.39 o
10 20 0 159.43 177.61 18.19 o
12 20 0 45.79 32.36 15.88 o
14 20 0 36.51 5.23 21.07 o
2 21 0 8.73 14.26 12.05 o
4 21 0 153.58 106.85 14.09 o
6 21 0 575.14 673.85 30.70 o
8 21 0 160.30 155.62 21.66 o
10 21 0 76.02 49.36 16.43 o
12 21 0 121.89 127.37 18.62 o
0 22 0 1631.26 1825.17 102.38 o
2 22 0 1.80 19.88 12.86 o
4 22 0 30.43 27.44 13.02 o
6 22 0 84.68 77.52 14.66 o
8 22 0 12.19 23.39 18.05 o
10 22 0 0.86 0.00 15.77 o
2 23 0 1.52 37.97 13.86 o
4 23 0 83.38 154.05 16.28 o
6 23 0 35.74 0.00 13.45 o
1 0 1 124.41 156.66 4.62 o
2 0 1 737.47 650.19 10.16 o
3 0 1 7671.46 8107.08 105.98 o
4 0 1 54971.33 55856.73 726.84 o
5 0 1 14660.22 11392.97 487.52 o
6 0 1 1395.02 1022.17 30.63 o
7 0 1 3659.85 2909.34 46.52 o
8 0 1 11959.60 12657.07 159.52 o
9 0 1 2416.39 2288.12 29.28 o
10 0 1 43.93 95.45 5.30 o
11 0 1 5208.14 5150.39 61.54 o
12 0 1 530.19 577.83 16.75 o
13 0 1 608.64 561.82 13.17 o
14 0 1 1.03 16.12 12.54 o
15 0 1 0.00 13.25 13.07 o
16 0 1 11.35 16.93 13.68 o
17 0 1 46.64 88.14 17.64 o
18 0 1 457.45 645.96 31.34 o
19 0 1 197.01 137.12 23.38 o
20 0 1 1227.56 1258.20 45.02 o
21 0 1 786.72 808.23 36.43 o
22 0 1 1103.17 1069.75 42.14 o
23 0 1 549.13 572.91 24.91 o
24 0 1 540.90 601.77 26.81 o
25 0 1 165.79 126.01 44.90 o
0 1 1 13306.45 12836.06 142.55 o
1 1 1 15843.56 16204.45 127.49 o
2 1 1 29788.06 29663.21 232.99 o
3 1 1 271.32 282.55 4.21 o
4 1 1 3511.35 3362.34 26.12 o
5 1 1 14.16 82.06 3.34 o
6 1 1 307.60 290.30 16.16 o
7 1 1 27.71 77.38 5.79 o
8 1 1 418.26 457.63 13.54 o
9 1 1 515.29 585.30 8.21 o
10 1 1 4.77 15.94 2.81 o
11 1 1 1095.36 1282.18 14.07 o
12 1 1 524.68 522.74 9.54 o
13 1 1 4927.16 5090.58 53.29 o
14 1 1 3883.98 3864.64 50.63 o
15 1 1 7417.98 7485.07 103.99 o
16 1 1 275.85 292.56 14.70 o
17 1 1 254.58 287.80 15.47 o
18 1 1 1326.80 1366.76 30.02 o
19 1 1 405.21 445.96 24.90 o
20 1 1 397.15 425.26 20.25 o
21 1 1 12.75 19.96 13.45 o
22 1 1 0.62 0.00 12.03 o
23 1 1 16.97 7.93 10.35 o
24 1 1 59.06 16.86 17.89 o
25 1 1 34.83 9.49 12.50 o
1 2 1 2196.46 2384.89 18.52 o
2 2 1 2897.10 3653.78 26.79 o
3 2 1 16094.71 17328.74 137.12 o
4 2 1 8651.82 8625.54 67.90 o
5 2 1 405.51 417.88 7.93 o
6 2 1 17052.88 16992.21 152.42 o
7 2 1 7852.68 7862.79 72.23 o
8 2 1 17783.38 19747.65 166.82 o
9 2 1 1619.91 1735.13 16.52 o
10 2 1 709.67 913.02 11.22 o
11 2 1 1260.74 1459.01 16.91 o
12 2 1 186.88 211.72 7.21 o
13 2 1 1018.94 1018.86 16.70 o
14 2 1 283.93 326.84 10.22 o
15 2 1 23.54 24.26 9.83 o
16 2 1 83.47 99.36 11.35 o
17 2 1 5.70 4.65 10.39 o
18 2 1 477.25 387.44 17.46 o
19 2 1 246.59 277.50 16.63 o
20 2 1 967.70 980.35 27.71 o
21 2 1 316.65 360.44 15.93 o
22 2 1 441.14 446.40 18.17 o
23 2 1 765.06 717.22 22.08 o
24 2 1 259.93 261.84 22.77 o
25 2 1 262.73 216.71 15.72 o
0 3 1 12242.56 11437.45 116.56 o
1 3 1 40397.64 42970.73 334.93 o
2 3 1 430.84 587.40 5.95 o
3 3 1 11529.39 11528.35 86.87 o
4 3 1 50.47 46.52 2.87 o
5 3 1 2044.05 2151.96 18.81 o
6 3 1 974.17 1040.27 15.49 o
7 3 1 0.25 5.60 2.95 o
8 3 1 41.08 55.69 3.28 o
9 3 1 6.86 3.05 2.59 o
10 3 1 195.65 205.37 5.72 o
11 3 1 732.92 699.73 10.50 o
12 3 1 1450.22 1484.27 25.45 o
13 3 1 1956.79 1903.04 46.33 o
14 3 1 4713.02 4793.28 61.79 o
15 3 1 4574.33 4677.82 60.90 o
16 3 1 5.87 8.71 9.58 o
17 3 1 295.05 271.98 15.16 o
18 3 1 685.84 641.37 22.67 o
19 3 1 235.27 263.45 16.19 o
20 3 1 62.82 64.32 12.08 o
21 3 1 38.75 33.56 11.84 o
22 3 1 0.15 0.00 10.90 o
23 3 1 13.69 24.46 12.73 o
24 3 1 4.83 0.00 15.76 o
25 3 1 35.59 23.56 18.44 o
1 4 1 15.98 7.93 1.63 o
2 4 1 87.23 74.83 2.44 o
3 4 1 1328.75 1140.29 10.25 o
4 4 1 90.01 107.51 4.58 o
5 4 1 4808.02 4841.26 39.11 o
6 4 1 3003.10 2802.09 28.73 o
7 4 1 3785.32 3853.13 38.88 o
8 4 1 10507.79 11039.19 104.08 o
9 4 1 735.77 910.97 16.91 o
10 4 1 86.28 78.67 3.84 o
11 4 1 1868.15 2164.89 23.29 o
12 4 1 610.05 734.04 14.50 o
13 4 1 612.69 664.00 16.67 o
14 4 1 9.75 10.72 5.79 o
15 4 1 95.25 107.24 7.85 o
16 4 1 3.18 6.68 10.31 o
17 4 1 43.19 24.34 11.08 o
18 4 1 12.49 3.88 9.44 o
19 4 1 256.40 214.70 13.23 o
20 4 1 111.91 90.14 11.96 o
21 4 1 866.20 829.28 23.60 o
22 4 1 183.35 187.39 14.25 o
23 4 1 516.53 528.57 20.34 o
24 4 1 180.92 193.69 21.63 o
25 4 1 195.37 145.32 15.10 o
0 5 1 1280.37 1355.14 15.83 o
1 5 1 12499.99 14197.39 116.10 o
2 5 1 3299.89 3266.00 27.85 o
3 5 1 473.85 645.94 7.68 o
4 5 1 247.35 187.16 6.02 o
5 5 1 16.66 25.82 2.52 o
6 5 1 42.05 31.67 3.55 o
7 5 1 126.13 218.79 6.22 o
8 5 1 459.94 404.82 7.73 o
9 5 1 143.59 105.05 4.62 o
10 5 1 64.18 67.72 3.98 o
11 5 1 885.05 871.10 12.51 o
12 5 1 5.04 4.28 4.58 o
13 5 1 4342.65 4207.55 45.62 o
14 5 1 786.75 716.14 13.95 o
15 5 1 6696.60 6539.38 68.24 o
16 5 1 48.89 48.93 9.40 o
17 5 1 192.66 216.28 12.12 o
18 5 1 276.73 311.27 14.28 o
19 5 1 330.92 333.02 15.06 o
20 5 1 194.65 208.38 17.53 o
21 5 1 4.96 0.00 10.64 o
22 5 1 12.58 0.00 10.73 o
23 5 1 11.27 1.77 13.65 o
24 5 1 6.86 0.00 11.49 o
25 5 1 25.02 9.97 12.77 o
1 6 1 364.72 373.05 10.54 o
2 6 1 160.48 233.47 5.29 o
3 6 1 1958.47 2205.72 19.74 o
4 6 1 2643.42 2617.51 23.27 o
5 6 1 41.82 24.91 2.63 o
6 6 1 465.96 342.94 6.32 o
7 6 1 3262.60 3088.31 28.84 o
8 6 1 4417.09 4242.19 40.93 o
9 6 1 1805.43 1818.26 20.10 o
10 6 1 140.30 182.08 9.97 o
11 6 1 2152.68 2083.43 23.72 o
12 6 1 22.45 15.63 9.57 o
13 6 1 224.79 238.14 8.89 o
14 6 1 311.99 254.06 8.97 o
15 6 1 2.49 12.95 6.29 o
16 6 1 87.99 88.81 7.44 o
17 6 1 51.15 34.85 9.09 o
18 6 1 106.39 140.20 11.70 o
19 6 1 313.18 269.42 14.15 o
20 6 1 409.38 360.77 15.56 o
21 6 1 265.41 273.70 16.17 o
22 6 1 194.48 174.08 14.64 o
23 6 1 673.00 637.42 20.73 o
24 6 1 167.61 253.91 16.09 o
25 6 1 162.18 103.70 14.27 o
0 7 1 1046.19 906.33 13.66 o
1 7 1 13142.18 13837.29 126.32 o
2 7 1 2117.31 2062.13 20.51 o
3 7 1 3296.54 3221.82 25.78 o
4 7 1 43.47 58.02 3.06 o
5 7 1 495.90 480.17 8.36 o
6 7 1 142.55 105.02 4.65 o
7 7 1 176.50 183.97 6.02 o
8 7 1 11.71 20.59 3.77 o
9 7 1 392.07 340.00 8.18 o
10 7 1 251.13 279.44 10.74 o
11 7 1 449.00 445.54 10.38 o
12 7 1 94.16 84.06 9.14 o
13 7 1 1619.05 1623.94 25.57 o
14 7 1 2255.50 2275.32 28.65 o
15 7 1 3410.72 3332.23 41.45 o
16 7 1 40.32 52.32 7.86 o
17 7 1 156.37 126.42 10.93 o
18 7 1 849.29 875.47 21.82 o
19 7 1 287.86 287.12 14.68 o
20 7 1 136.42 190.29 13.10 o
21 7 1 19.32 0.00 10.59 o
22 7 1 7.60 0.00 12.86 o
23 7 1 12.78 34.65 14.43 o
24 7 1 8.22 0.00 15.80 o
1 8 1 342.78 371.85 7.91 o
2 8 1 2688.89 3067.21 26.80 o
3 8 1 395.09 323.94 7.43 o
4 8 1 675.36 926.19 10.69 o
5 8 1 4579.46 4827.60 42.43 o
6 8 1 3082.69 2964.68 28.17 o
7 8 1 3811.41 3687.10 37.09 o
8 8 1 3607.12 3793.33 35.37 o
9 8 1 1169.24 1135.15 18.37 o
10 8 1 9.17 7.23 5.71 o
11 8 1 964.01 1049.61 16.61 o
12 8 1 455.97 443.58 16.00 o
13 8 1 803.01 744.95 19.19 o
14 8 1 0.25 0.65 6.60 o
15 8 1 3.44 20.04 6.76 o
16 8 1 17.26 26.95 7.14 o
17 8 1 18.60 26.41 9.40 o
18 8 1 286.21 247.13 13.40 o
19 8 1 57.42 55.28 11.08 o
20 8 1 570.88 602.83 19.62 o
21 8 1 441.95 418.06 17.61 o
22 8 1 374.63 359.71 23.27 o
23 8 1 316.70 350.66 17.65 o
24 8 1 169.86 132.72 14.42 o
0 9 1 210.61 156.75 6.34 o
1 9 1 6892.68 7807.94 63.29 o
2 9 1 7969.71 8092.49 68.67 o
3 9 1 307.99 296.00 5.77 o
4 9 1 1469.62 1594.87 15.03 o
5 9 1 4.10 3.60 3.04 o
6 9 1 136.08 120.45 5.80 o
7 9 1 106.66 142.92 5.37 o
8 9 1 33.85 44.25 4.88 o
9 9 1 5.82 9.73 4.02 o
10 9 1 294.22 290.43 9.87 o
11 9 1 830.29 809.39 16.73 o
12 9 1 412.42 356.83 14.21 o
13 9 1 1775.85 1729.29 28.72 o
14 9 1 1605.42 1584.55 27.51 o
15 9 1 3337.82 3618.64 45.51 o
16 9 1 30.71 33.25 7.51 o
17 9 1 214.01 238.64 10.41 o
18 9 1 677.70 659.13 19.02 o
19 9 1 103.79 127.38 14.67 o
20 9 1 87.16 75.97 11.87 o
21 9 1 13.48 10.18 13.30 o
22 9 1 1.89 0.00 15.13 o
23 9 1 2.63 8.46 12.06 o
24 9 1 4.38 0.00 12.26 o
1 10 1 16.84 13.13 3.23 o
2 10 1 26.14 7.14 2.63 o
3 10 1 594.33 647.55 9.06 o
4 10 1 2217.49 2602.20 22.62 o
5 10 1 20.77 8.19 3.14 o
6 10 1 3247.56 3125.55 26.81 o
7 10 1 2470.76 2430.21 23.52 o
8 10 1 6809.79 7182.03 57.31 o
9 10 1 1071.11 1125.20 15.48 o
10 10 1 484.10 510.90 12.42 o
11 10 1 1302.98 1190.42 18.52 o
12 10 1 21.50 43.54 8.21 o
13 10 1 182.78 166.31 10.85 o
14 10 1 28.75 30.61 8.99 o
15 10 1 17.15 34.47 9.05 o
16 10 1 16.35 3.28 7.56 o
17 10 1 46.60 48.46 7.90 o
18 10 1 152.30 150.70 14.10 o
19 10 1 255.97 218.33 13.41 o
20 10 1 250.52 210.78 16.22 o
21 10 1 192.63 255.43 15.08 o
22 10 1 222.56 242.99 15.87 o
23 10 1 396.16 396.54 18.48 o
0 11 1 239.34 279.67 8.94 o
1 11 1 3041.41 2765.45 25.52 o
2 11 1 2485.26 2557.36 23.22 o
3 11 1 1570.94 1405.46 15.72 o
4 11 1 611.37 544.70 8.15 o
5 11 1 388.43 324.42 7.33 o
6 11 1 223.14 237.85 6.05 o
7 11 1 36.44 46.61 4.09 o
8 11 1 23.75 26.96 4.16 o
9 11 1 138.23 130.76 5.90 o
10 11 1 56.75 58.18 5.56 o
11 11 1 172.35 188.44 8.16 o
12 11 1 1033.48 1041.29 21.97 o
13 11 1 1046.51 1087.87 22.37 o
14 11 1 2153.05 2005.41 33.22 o
15 11 1 2458.06 2449.88 37.78 o
16 11 1 25.00 34.16 9.51 o
17 11 1 63.15 82.87 9.62 o
18 11 1 234.11 247.36 17.46 o
19 11 1 273.55 315.54 13.60 o
20 11 1 82.40 87.94 12.34 o
21 11 1 6.50 20.15 11.10 o
22 11 1 1.95 8.12 16.99 o
23 11 1 9.30 18.56 14.58 o
1 12 1 240.76 223.76 5.94 o
2 12 1 6.14 14.48 3.38 o
3 12 1 79.07 70.94 3.83 o
4 12 1 452.17 377.09 7.48 o
5 12 1 2164.64 2002.29 23.16 o
6 12 1 790.43 690.26 10.09 o
7 12 1 849.06 805.29 11.19 o
8 12 1 4318.68 4332.53 41.94 o
9 12 1 413.58 406.24 10.59 o
10 12 1 351.75 372.51 9.18 o
11 12 1 381.29 387.66 11.27 o
12 12 1 547.50 516.55 14.00 o
13 12 1 53.60 27.85 7.63 o
14 12 1 5.68 20.97 9.12 o
15 12 1 0.34 0.15 13.26 o
16 12 1 1.07 5.30 9.65 o
17 12 1 7.77 8.52 8.69 o
18 12 1 201.21 202.10 15.86 o
19 12 1 59.56 75.37 13.79 o
20 12 1 270.53 303.85 18.12 o
21 12 1 260.77 253.49 18.12 o
22 12 1 124.64 153.68 17.07 o
0 13 1 99.65 74.94 9.54 o
1 13 1 5424.30 5612.58 61.17 o
2 13 1 675.98 639.58 14.11 o
3 13 1 408.30 304.04 12.23 o
4 13 1 44.74 56.19 8.12 o
5 13 1 53.89 33.44 6.19 o
6 13 1 35.55 22.58 5.80 o
7 13 1 179.52 192.61 7.21 o
8 13 1 94.15 111.70 6.52 o
9 13 1 15.17 17.20 5.61 o
10 13 1 43.41 34.62 5.77 o
11 13 1 168.36 139.90 9.66 o
12 13 1 79.14 58.27 9.25 o
13 13 1 369.43 345.54 14.55 o
14 13 1 799.60 897.25 29.91 o
15 13 1 1191.86 1228.45 25.45 o
16 13 1 45.70 61.02 10.54 o
17 13 1 76.94 73.61 10.99 o
18 13 1 520.12 494.04 20.38 o
19 13 1 51.81 79.85 13.93 o
20 13 1 29.10 31.01 13.68 o
21 13 1 10.46 18.51 13.30 o
1 14 1 0.29 9.98 6.17 o
2 14 1 1210.79 1248.79 21.92 o
3 14 1 518.03 538.79 14.54 o
4 14 1 2.14 0.00 4.89 o
5 14 1 9.34 3.45 5.96 o
6 14 1 1063.22 1155.80 18.38 o
7 14 1 1681.87 1677.22 22.60 o
8 14 1 409.48 400.18 13.63 o
9 14 1 522.35 553.25 13.51 o
10 14 1 11.47 1.07 6.49 o
11 14 1 292.12 280.15 12.40 o
12 14 1 0.96 4.88 11.72 o
13 14 1 185.82 207.21 16.52 o
14 14 1 134.60 112.07 14.05 o
15 14 1 15.60 24.32 12.77 o
16 14 1 10.03 6.84 12.39 o
17 14 1 2.26 1.83 12.66 o
18 14 1 29.60 41.07 14.20 o
19 14 1 117.18 143.42 18.92 o
20 14 1 109.62 175.16 21.03 o
0 15 1 27.55 29.38 9.77 o
1 15 1 395.47 397.08 12.30 o
2 15 1 2239.69 2474.68 30.10 o
3 15 1 520.77 603.18 13.97 o
4 15 1 16.78 14.73 6.52 o
5 15 1 117.77 101.32 7.72 o
6 15 1 144.12 147.11 8.40 o
7 15 1 44.91 40.32 7.44 o
8 15 1 18.51 28.03 7.17 o
9 15 1 6.74 6.61 6.91 o
10 15 1 32.37 27.95 7.41 o
11 15 1 196.48 172.90 11.36 o
12 15 1 6.36 23.30 12.11 o
13 15 1 461.45 438.26 20.32 o
14 15 1 264.71 280.98 17.56 o
15 15 1 1145.75 1173.79 31.22 o
16 15 1 43.28 47.79 13.93 o
17 15 1 39.59 53.67 15.15 o
18 15 1 170.52 180.96 20.49 o
19 15 1 81.40 103.25 27.91 o
20 15 1 32.29 38.47 21.61 o
1 16 1 158.45 154.80 8.81 o
2 16 1 227.09 281.95 10.42 o
3 16 1 2.18 4.86 6.82 o
4 16 1 371.71 515.62 13.74 o
5 16 1 903.33 887.43 18.59 o
6 16 1 21.34 35.20 7.52 o
7 16 1 303.55 296.62 10.97 o
8 16 1 833.65 863.20 17.07 o
9 16 1 306.11 322.49 11.23 o
10 16 1 6.81 23.76 8.32 o
11 16 1 390.69 416.44 15.42 o
12 16 1 39.09 23.22 9.86 o
13 16 1 18.14 37.60 12.78 o
14 16 1 12.76 28.49 13.60 o
15 16 1 0.00 22.67 13.22 o
16 16 1 9.64 0.00 13.90 o
17 16 1 9.79 21.86 14.20 o
18 16 1 35.53 61.59 17.95 o
19 16 1 23.79 44.41 25.00 o
0 17 1 3.33 9.48 11.03 o
1 17 1 1596.36 1698.87 24.30 o
2 17 1 12.93 0.00 7.41 o
3 17 1 18.21 6.05 7.26 o
4 17 1 94.91 91.17 8.56 o
5 17 1 1.62 0.00 7.01 o
6 17 1 338.12 325.65 11.59 o
7 17 1 67.94 75.99 8.52 o
8 17 1 0.53 0.00 7.40 o
9 17 1 131.60 91.10 8.81 o
10 17 1 6.17 9.48 9.41 o
11 17 1 48.11 44.86 10.19 o
12 17 1 76.52 93.93 11.52 o
13 17 1 136.19 136.44 17.45 o
14 17 1 277.51 294.47 18.90 o
15 17 1 604.82 525.10 23.29 o
16 17 1 1.22 19.27 18.85 o
17 17 1 15.33 16.22 17.76 o
18 17 1 50.49 73.03 18.58 o
1 18 1 0.54 16.27 7.85 o
2 18 1 99.98 128.12 9.23 o
3 18 1 299.77 287.26 11.39 o
4 18 1 65.58 78.54 8.50 o
5 18 1 35.77 27.47 7.94 o
6 18 1 187.30 210.62 10.44 o
7 18 1 674.88 632.74 15.90 o
8 18 1 551.88 613.31 15.92 o
9 18 1 163.09 164.26 11.11 o
10 18 1 77.40 111.51 11.48 o
11 18 1 52.21 50.67 10.57 o
12 18 1 6.33 5.43 10.09 o
13 18 1 26.23 19.53 13.38 o
14 18 1 7.41 37.81 14.66 o
15 18 1 0.80 3.52 14.66 o
16 18 1 5.33 33.18 18.26 o
0 19 1 12.41 6.66 11.39 o
1 19 1 258.13 225.63 10.84 o
2 19 1 698.52 717.72 16.45 o
3 19 1 281.39 289.35 11.91 o
4 19 1 11.48 14.83 8.19 o
5 19 1 102.56 87.83 9.23 o
6 19 1 25.19 28.52 8.58 o
7 19 1 8.65 1.16 8.11 o
8 19 1 4.42 15.43 9.13 o
9 19 1 4.60 0.00 10.00 o
10 19 1 4.28 0.30 10.18 o
11 19 1 42.15 51.40 11.32 o
12 19 1 54.77 53.43 11.56 o
13 19 1 96.66 96.49 17.45 o
14 19 1 297.57 287.52 20.30 o
15 19 1 375.02 455.07 26.99 o
1 20 1 55.72 59.66 8.95 o
2 20 1 73.64 74.73 9.31 o
3 20 1 3.19 13.90 8.39 o
4 20 1 210.12 190.16 10.91 o
5 20 1 139.34 118.98 10.12 o
6 20 1 185.49 258.43 11.98 o
7 20 1 109.89 101.56 10.68 o
8 20 1 321.93 299.39 13.33 o
9 20 1 119.59 116.60 12.12 o
10 20 1 2.05 2.61 10.52 o
11 20 1 93.28 96.24 12.61 o
12 20 1 43.81 64.57 16.94 o
13 20 1 21.06 64.02 15.84 o
0 21 1 1.75 0.00 12.01 o
1 21 1 343.95 331.30 13.11 o
2 21 1 463.71 520.87 15.81 o
3 21 1 7.40 19.66 9.09 o
4 21 1 18.23 32.38 9.25 o
5 21 1 0.40 7.98 8.67 o
6 21 1 1.67 4.89 9.13 o
7 21 1 45.68 29.44 10.08 o
8 21 1 0.41 24.27 11.16 o
9 21 1 26.25 11.16 10.95 o
10 21 1 12.44 15.40 11.64 o
11 21 1 26.99 41.93 13.83 o
12 21 1 18.58 28.79 13.41 o
1 22 1 0.21 3.96 9.08 o
2 22 1 9.05 33.80 9.79 o
3 22 1 46.97 51.56 9.92 o
4 22 1 71.94 114.33 11.48 o
5 22 1 30.49 40.88 10.26 o
6 22 1 2.52 6.80 9.94 o
7 22 1 211.26 206.47 12.32 o
8 22 1 242.78 265.52 15.48 o
9 22 1 25.44 32.27 11.97 o
0 23 1 10.69 85.81 15.16 o
1 23 1 100.13 124.00 12.40 o
2 23 1 64.04 43.91 10.75 o
3 23 1 40.23 44.64 10.89 o
4 23 1 15.08 27.62 10.66 o
5 23 1 14.74 38.35 10.14 o
6 23 1 22.81 41.64 10.28 o
0 0 2 83.29 32.24 6.45 o
1 0 2 27.64 67.87 20.01 o
2 0 2 1.93 15.28 5.05 o
3 0 2 2071.03 1715.70 26.74 o
4 0 2 182.77 285.39 19.19 o
5 0 2 1197.51 1241.11 47.10 o
6 0 2 386.24 572.93 13.92 o
7 0 2 4611.78 5142.89 61.05 o
8 0 2 874.83 764.44 13.63 o
9 0 2 8410.36 7756.42 90.56 o
10 0 2 23.30 5.67 4.44 o
11 0 2 387.10 414.24 18.57 o
12 0 2 120.87 122.48 7.03 o
13 0 2 3960.63 4317.52 59.54 o
14 0 2 110.75 105.28 9.59 o
15 0 2 2549.50 2519.61 109.00 o
16 0 2 117.06 130.45 11.07 o
17 0 2 3234.06 3333.45 59.93 o
18 0 2 57.70 47.23 20.41 o
19 0 2 456.71 564.48 23.48 o
20 0 2 54.64 67.04 14.94 o
21 0 2 83.39 61.90 16.87 o
22 0 2 13.65 10.32 16.99 o
23 0 2 4.40 0.00 16.65 o
24 0 2 0.05 0.00 19.35 o
25 0 2 37.58 8.89 41.92 o
1 1 2 627.79 575.03 6.48 o
2 1 2 51.89 33.82 4.68 o
3 1 2 1063.13 941.69 15.25 o
4 1 2 470.25 540.37 14.60 o
5 1 2 5809.59 5770.62 52.77 o
6 1 2 2783.65 3057.66 26.62 o
7 1 2 21926.69 23760.09 180.47 o
8 1 2 2300.88 2458.13 21.31 o
9 1 2 9199.72 9476.91 73.33 o
10 1 2 5.88 11.02 2.33 o
11 1 2 1268.40 1135.90 24.23 o
12 1 2 144.49 170.12 10.32 o
13 1 2 437.56 183.80 14.51 o
14 1 2 41.32 54.10 6.36 o
15 1 2 27.07 21.56 5.53 o
16 1 2 11.08 0.00 6.04 o
17 1 2 271.31 266.13 11.80 o
18 1 2 0.53 0.65 8.17 o
19 1 2 558.17 549.48 20.63 o
20 1 2 92.36 84.20 10.57 o
21 1 2 1394.42 1490.03 28.78 o
22 1 2 12.37 0.29 11.85 o
23 1 2 917.20 932.34 26.36 o
24 1 2 223.23 253.03 17.89 o
25 1 2 136.39 109.37 15.88 o
0 2 2 5418.35 5905.49 94.21 o
1 2 2 21107.26 21072.78 166.00 o
2 2 2 19.82 11.71 2.77 o
3 2 2 3954.96 3499.53 29.07 o
4 2 2 4.13 8.76 3.66 o
5 2 2 2592.23 2603.50 25.36 o
6 2 2 87.65 77.42 3.27 o
7 2 2 1298.56 1477.13 13.80 o
8 2 2 858.81 635.49 8.24 o
9 2 2 708.72 683.13 8.88 o
10 2 2 28.54 40.42 3.97 o
11 2 2 881.63 849.89 11.00 o
12 2 2 118.15 100.62 4.95 o
13 2 2 1645.71 1483.14 17.78 o
14 2 2 154.80 151.59 10.20 o
15 2 2 1234.74 1339.01 22.92 o
16 2 2 526.21 440.06 12.61 o
17 2 2 1202.10 1146.09 21.51 o
18 2 2 3.87 0.00 8.13 o
19 2 2 544.66 494.78 15.98 o
20 2 2 9.82 4.37 9.45 o
21 2 2 327.36 298.54 15.33 o
22 2 2 0.02 0.00 15.04 o
23 2 2 4.85 0.00 13.73 o
24 2 2 21.70 12.54 13.61 o
25 2 2 37.88 6.41 13.84 o
1 3 2 496.48 445.00 8.27 o
2 3 2 3586.01 3371.03 26.60 o
3 3 2 1535.08 1584.10 13.92 o
4 3 2 1884.61 1504.38 17.33 o
5 3 2 5803.32 5930.92 57.75 o
6 3 2 1159.36 1390.71 13.45 o
7 3 2 23718.51 24048.96 188.53 o
8 3 2 1293.34 1338.24 13.62 o
9 3 2 3528.76 3500.75 31.55 o
10 3 2 109.29 329.27 7.84 o
11 3 2 11.02 17.49 3.70 o
12 3 2 102.28 88.49 4.59 o
13 3 2 503.72 384.25 8.31 o
14 3 2 93.73 105.50 5.96 o
15 3 2 51.12 43.13 5.43 o
16 3 2 2.02 5.46 7.20 o
17 3 2 122.77 112.86 9.85 o
18 3 2 90.65 89.60 9.65 o
19 3 2 507.04 602.34 17.47 o
20 3 2 56.91 78.87 11.66 o
21 3 2 1727.43 1741.73 31.98 o
22 3 2 15.71 11.12 11.27 o
23 3 2 844.01 939.84 26.63 o
24 3 2 389.85 388.55 20.36 o
25 3 2 196.68 174.41 18.38 o
0 4 2 25387.84 25441.01 281.98 o
1 4 2 7218.22 7181.28 59.48 o
2 4 2 2103.73 2008.07 17.53 o
3 4 2 2873.99 2471.75 20.39 o
4 4 2 526.97 384.41 8.78 o
5 4 2 5536.77 5319.36 48.83 o
6 4 2 45.93 87.09 4.25 o
7 4 2 1798.82 1937.61 17.26 o
8 4 2 0.37 16.92 3.07 o
9 4 2 1493.09 1345.96 13.50 o
10 4 2 330.41 339.14 9.15 o
11 4 2 277.76 292.38 6.58 o
12 4 2 228.84 234.20 6.17 o
13 4 2 1604.42 1563.10 18.07 o
14 4 2 577.01 584.41 10.74 o
15 4 2 1327.64 1316.24 17.40 o
16 4 2 1490.92 1445.79 21.53 o
17 4 2 2978.69 2808.34 45.06 o
18 4 2 110.42 134.99 10.33 o
19 4 2 261.42 277.22 14.24 o
20 4 2 17.51 21.14 10.91 o
21 4 2 133.19 137.21 13.36 o
22 4 2 2.85 0.00 10.99 o
23 4 2 2.93 3.55 12.48 o
24 4 2 56.77 45.08 14.13 o
25 4 2 29.11 0.00 14.69 o
1 5 2 212.71 271.75 5.42 o
2 5 2 608.09 735.74 8.72 o
3 5 2 55.58 50.51 2.71 o
4 5 2 1276.72 1313.19 14.57 o
5 5 2 1309.77 1353.98 14.95 o
6 5 2 4.78 11.50 3.12 o
7 5 2 10872.80 11773.36 93.29 o
8 5 2 4222.27 4526.65 38.15 o
9 5 2 6111.75 6386.22 50.19 o
10 5 2 217.38 314.66 8.51 o
11 5 2 1206.39 1249.44 15.48 o
12 5 2 575.30 512.35 8.74 o
13 5 2 123.43 196.96 6.77 o
14 5 2 104.46 84.37 5.76 o
15 5 2 8.21 15.37 5.57 o
16 5 2 62.23 60.25 7.61 o
17 5 2 703.61 653.03 16.79 o
18 5 2 132.23 159.33 10.80 o
19 5 2 837.34 813.57 21.40 o
20 5 2 24.56 36.23 11.05 o
21 5 2 1274.30 1337.87 27.62 o
22 5 2 87.43 76.24 12.69 o
23 5 2 863.19 793.43 23.12 o
24 5 2 329.52 382.52 32.35 o
0 6 2 450.94 381.31 8.65 o
1 6 2 6114.74 6429.44 53.09 o
2 6 2 4668.53 5036.01 40.94 o
3 6 2 288.29 368.92 7.24 o
4 6 2 1313.89 1219.33 18.35 o
5 6 2 1042.48 1131.71 16.08 o
6 6 2 280.22 251.16 5.69 o
7 6 2 72.53 72.77 4.33 o
8 6 2 69.62 102.87 4.92 o
9 6 2 220.66 154.32 5.55 o
10 6 2 208.08 263.65 6.31 o
11 6 2 565.08 556.16 9.74 o
12 6 2 956.77 1092.89 12.83 o
13 6 2 2759.90 2796.70 27.86 o
14 6 2 879.80 939.44 16.87 o
15 6 2 1806.21 1810.43 21.54 o
16 6 2 441.09 474.53 12.33 o
17 6 2 927.69 936.42 19.51 o
18 6 2 43.94 51.47 10.37 o
19 6 2 539.62 589.84 18.94 o
20 6 2 0.56 0.00 10.18 o
21 6 2 119.63 86.82 12.55 o
22 6 2 3.90 2.94 11.64 o
23 6 2 4.24 0.00 12.20 o
24 6 2 38.21 61.89 17.64 o
1 7 2 240.65 215.58 4.59 o
2 7 2 612.16 683.67 11.01 o
3 7 2 1693.77 1744.19 15.98 o
4 7 2 35.70 42.74 3.28 o
5 7 2 6499.25 6393.11 52.75 o
6 7 2 20.54 14.14 2.92 o
7 7 2 14498.34 15100.65 109.77 o
8 7 2 4208.57 4609.35 39.25 o
9 7 2 4130.20 4244.12 38.45 o
10 7 2 210.37 206.26 6.61 o
11 7 2 144.76 151.06 6.14 o
12 7 2 125.50 140.58 5.27 o
13 7 2 268.48 301.01 9.11 o
14 7 2 2.61 16.55 5.47 o
15 7 2 63.62 83.46 6.77 o
16 7 2 71.17 80.97 6.82 o
17 7 2 33.81 34.10 9.52 o
18 7 2 46.70 26.35 9.97 o
19 7 2 263.16 261.06 14.26 o
20 7 2 1.72 10.84 10.67 o
21 7 2 948.29 918.80 23.48 o
22 7 2 1.04 0.00 11.55 o
23 7 2 643.85 713.95 26.46 o
24 7 2 320.87 339.09 18.15 o
0 8 2 6532.63 6965.29 79.63 o
1 8 2 5117.85 5280.88 41.51 o
2 8 2 904.09 1124.58 13.49 o
3 8 2 1380.86 1295.38 13.69 o
4 8 2 131.29 110.32 4.27 o
5 8 2 1084.92 1039.66 11.80 o
6 8 2 83.75 102.72 3.99 o
7 8 2 17.58 16.26 3.37 o
8 8 2 51.55 49.57 4.27 o
9 8 2 553.37 639.54 9.91 o
10 8 2 313.00 315.86 7.92 o
11 8 2 518.59 471.43 9.17 o
12 8 2 206.61 171.20 9.33 o
13 8 2 896.62 810.65 14.10 o
14 8 2 166.48 161.62 7.80 o
15 8 2 391.72 421.41 10.96 o
16 8 2 493.09 425.70 11.98 o
17 8 2 1892.85 1658.50 33.75 o
18 8 2 24.39 21.20 10.13 o
19 8 2 121.84 94.37 15.24 o
20 8 2 3.16 0.00 10.17 o
21 8 2 157.87 163.45 13.88 o
22 8 2 0.13 2.64 11.60 o
23 8 2 4.46 6.28 12.08 o
1 9 2 272.07 284.59 6.48 o
2 9 2 0.24 3.09 2.47 o
3 9 2 656.88 594.72 10.11 o
4 9 2 122.09 109.65 6.72 o
5 9 2 1719.86 1621.78 21.95 o
6 9 2 698.52 785.08 14.37 o
7 9 2 7633.79 7375.04 55.59 o
8 9 2 598.37 585.57 8.73 o
9 9 2 3515.84 3306.14 29.84 o
10 9 2 52.06 92.88 5.34 o
11 9 2 925.38 875.38 13.17 o
12 9 2 122.33 113.54 7.55 o
13 9 2 577.79 491.06 12.57 o
14 9 2 31.56 21.34 6.30 o
15 9 2 38.22 30.91 6.75 o
16 9 2 1.18 0.00 7.38 o
17 9 2 124.28 111.80 9.24 o
18 9 2 3.43 20.13 11.53 o
19 9 2 230.53 291.03 22.33 o
20 9 2 0.50 8.01 10.69 o
21 9 2 815.87 873.39 26.00 o
22 9 2 0.84 2.28 12.64 o
23 9 2 434.94 467.61 19.77 o
0 10 2 62.00 32.39 4.09 o
1 10 2 1268.06 1159.83 12.01 o
2 10 2 682.37 715.37 9.05 o
3 10 2 306.93 219.24 21.91 o
4 10 2 3.62 5.60 2.25 o
5 10 2 936.80 939.05 12.45 o
6 10 2 68.15 72.28 4.14 o
7 10 2 112.90 105.89 4.50 o
8 10 2 5.82 9.14 3.89 o
9 10 2 13.00 8.03 4.31 o
10 10 2 171.33 224.37 7.33 o
11 10 2 681.11 764.06 12.55 o
12 10 2 30.01 25.18 6.56 o
13 10 2 1619.93 1625.45 22.75 o
14 10 2 32.61 24.65 7.16 o
15 10 2 1347.75 1209.19 25.84 o
16 10 2 113.07 120.02 9.96 o
17 10 2 916.91 1017.59 21.74 o
18 10 2 15.63 22.08 10.40 o
19 10 2 246.31 330.59 15.73 o
20 10 2 0.56 0.00 10.60 o
21 10 2 50.25 51.55 12.51 o
22 10 2 0.09 0.00 12.19 o
23 10 2 3.15 0.00 13.08 o
1 11 2 15.34 18.44 2.68 o
2 11 2 554.66 631.79 8.70 o
3 11 2 182.53 149.96 8.17 o
4 11 2 10.91 7.48 2.04 o
5 11 2 1358.31 1251.50 14.16 o
6 11 2 563.50 604.10 10.18 o
7 11 2 4976.31 5201.50 43.09 o
8 11 2 218.99 232.81 6.54 o
9 11 2 1932.65 1892.49 19.13 o
10 11 2 183.17 141.55 6.65 o
11 11 2 61.38 53.42 5.69 o
12 11 2 6.28 0.00 6.33 o
13 11 2 17.95 41.23 7.29 o
14 11 2 100.69 82.03 8.18 o
15 11 2 64.35 53.56 8.90 o
16 11 2 3.31 7.60 8.51 o
17 11 2 169.62 202.48 11.83 o
18 11 2 1.07 10.01 9.98 o
19 11 2 416.76 415.97 17.08 o
20 11 2 9.02 0.00 10.74 o
21 11 2 470.88 499.88 19.71 o
22 11 2 1.98 4.10 12.49 o
0 12 2 1446.22 1582.20 26.96 o
1 12 2 4330.61 4091.36 57.26 o
2 12 2 1.26 6.91 3.43 o
3 12 2 1342.24 1295.46 19.79 o
4 12 2 1.64 7.18 2.52 o
5 12 2 583.20 592.94 13.72 o
6 12 2 5.30 7.44 4.06 o
7 12 2 149.55 174.87 6.06 o
8 12 2 0.02 14.72 4.62 o
9 12 2 522.93 531.54 9.90 o
10 12 2 37.07 48.74 5.43 o
11 12 2 10.06 3.27 5.32 o
12 12 2 1.16 0.00 6.52 o
13 12 2 600.04 609.69 14.23 o
14 12 2 16.59 19.65 8.35 o
15 12 2 179.54 202.29 11.19 o
16 12 2 125.53 145.75 10.61 o
17 12 2 810.89 723.63 18.24 o
18 12 2 0.40 0.00 11.01 o
19 12 2 110.27 142.87 17.22 o
20 12 2 0.36 0.88 12.72 o
21 12 2 88.60 98.32 18.84 o
1 13 2 79.35 64.55 5.66 o
2 13 2 1.91 0.00 2.90 o
3 13 2 605.39 637.80 15.04 o
4 13 2 0.58 0.49 3.49 o
5 13 2 1510.01 1528.15 19.03 o
6 13 2 17.84 6.22 5.73 o
7 13 2 1945.14 1862.58 22.09 o
8 13 2 800.31 822.42 14.13 o
9 13 2 816.61 861.18 13.25 o
10 13 2 1.68 5.49 5.46 o
11 13 2 268.40 291.37 11.37 o
12 13 2 34.56 38.00 8.05 o
13 13 2 103.58 78.40 10.42 o
14 13 2 3.86 0.00 9.21 o
15 13 2 29.89 17.41 11.00 o
16 13 2 25.10 40.18 10.73 o
17 13 2 44.64 53.44 11.22 o
18 13 2 3.12 0.00 12.12 o
19 13 2 54.07 99.92 14.03 o
20 13 2 0.44 7.05 18.15 o
21 13 2 451.92 420.03 21.59 o
0 14 2 341.86 328.24 17.92 o
1 14 2 823.96 831.38 15.47 o
2 14 2 1.38 6.60 6.37 o
3 14 2 457.46 427.46 12.01 o
4 14 2 154.96 108.55 7.97 o
5 14 2 677.07 686.60 14.53 o
6 14 2 165.25 168.23 8.61 o
7 14 2 49.51 41.80 7.21 o
8 14 2 42.86 76.15 6.83 o
9 14 2 114.77 126.90 7.67 o
10 14 2 18.62 18.61 6.53 o
11 14 2 633.35 690.20 18.51 o
12 14 2 209.98 214.86 15.64 o
13 14 2 463.54 440.30 40.03 o
14 14 2 228.98 203.96 16.03 o
15 14 2 332.84 274.72 17.96 o
16 14 2 153.78 167.63 16.07 o
17 14 2 506.48 568.09 24.56 o
18 14 2 6.30 0.00 13.60 o
19 14 2 61.26 75.36 25.92 o
20 14 2 1.99 15.38 17.15 o
1 15 2 6.69 7.63 6.72 o
2 15 2 46.87 35.26 7.08 o
3 15 2 59.52 54.84 7.34 o
4 15 2 139.40 146.20 8.60 o
5 15 2 128.72 122.32 8.97 o
6 15 2 10.99 32.77 7.33 o
7 15 2 2591.83 2710.82 33.30 o
8 15 2 1191.07 1148.31 19.12 o
9 15 2 1271.33 1231.74 19.96 o
10 15 2 57.74 61.92 8.17 o
11 15 2 60.35 59.40 11.22 o
12 15 2 71.22 50.44 13.02 o
13 15 2 149.33 199.08 16.14 o
14 15 2 5.95 8.88 12.71 o
15 15 2 8.13 18.93 13.48 o
16 15 2 15.65 8.07 13.88 o
17 15 2 47.76 38.36 14.54 o
18 15 2 31.67 24.36 14.73 o
19 15 2 197.65 207.66 44.34 o
0 16 2 679.94 486.29 19.26 o
1 16 2 651.75 644.61 14.94 o
2 16 2 284.53 279.33 10.53 o
3 16 2 137.41 145.02 8.85 o
4 16 2 61.21 47.30 7.81 o
5 16 2 7.62 4.35 7.33 o
6 16 2 2.79 9.22 7.37 o
7 16 2 161.45 185.74 9.60 o
8 16 2 0.92 17.38 7.71 o
9 16 2 483.67 473.51 13.86 o
10 16 2 31.65 24.19 10.76 o
11 16 2 38.01 41.60 11.33 o
12 16 2 19.15 28.35 13.35 o
13 16 2 544.67 554.18 23.53 o
14 16 2 101.28 90.63 14.91 o
15 16 2 152.74 121.71 15.57 o
16 16 2 136.08 124.50 16.67 o
17 16 2 439.06 421.20 26.65 o
18 16 2 14.66 45.18 15.60 o
1 17 2 17.67 22.51 7.62 o
2 17 2 159.34 178.25 9.84 o
3 17 2 264.39 284.35 11.03 o
4 17 2 112.78 106.28 8.83 o
5 17 2 1053.76 1072.05 19.31 o
6 17 2 22.17 28.62 7.92 o
7 17 2 500.01 484.37 13.95 o
8 17 2 278.06 255.44 11.03 o
9 17 2 301.30 339.70 12.26 o
10 17 2 25.38 27.52 11.35 o
11 17 2 230.90 225.68 15.10 o
12 17 2 32.46 24.35 12.93 o
13 17 2 6.16 16.83 13.69 o
14 17 2 26.08 21.78 14.19 o
15 17 2 3.69 15.39 13.93 o
16 17 2 1.71 1.68 14.69 o
17 17 2 21.84 60.78 16.81 o
0 18 2 367.57 358.35 17.65 o
1 18 2 575.78 588.97 15.25 o
2 18 2 43.91 35.62 8.37 o
3 18 2 292.76 300.95 12.87 o
4 18 2 0.21 0.67 7.92 o
5 18 2 309.82 360.80 12.31 o
6 18 2 0.32 6.36 7.89 o
7 18 2 87.55 70.92 9.02 o
8 18 2 35.60 22.84 8.32 o
9 18 2 8.24 5.77 9.00 o
10 18 2 2.81 5.75 11.07 o
11 18 2 123.95 105.44 13.59 o
12 18 2 3.26 11.61 11.95 o
13 18 2 148.21 146.97 16.65 o
14 18 2 31.24 63.21 15.37 o
15 18 2 86.18 115.98 16.78 o
16 18 2 72.13 76.07 16.55 o
1 19 2 0.49 3.65 7.86 o
2 19 2 29.66 42.53 8.68 o
3 19 2 54.91 44.42 8.45 o
4 19 2 0.86 10.97 8.22 o
5 19 2 30.83 42.32 8.61 o
6 19 2 62.61 70.83 9.18 o
7 19 2 730.73 715.58 17.19 o
8 19 2 227.45 197.66 12.10 o
9 19 2 355.49 325.90 16.94 o
10 19 2 6.50 19.67 12.65 o
11 19 2 2.86 15.08 12.13 o
12 19 2 2.26 8.93 12.31 o
13 19 2 73.35 70.52 15.64 o
14 19 2 2.99 7.79 14.87 o
0 20 2 80.92 67.54 13.48 o
1 20 2 216.06 210.55 12.05 o
2 20 2 37.87 48.51 8.93 o
3 20 2 93.93 82.66 9.41 o
4 20 2 25.68 27.02 8.94 o
5 20 2 30.71 18.87 8.89 o
6 20 2 6.71 5.65 8.54 o
7 20 2 72.23 42.18 10.08 o
8 20 2 1.54 7.34 9.82 o
9 20 2 6.79 15.11 12.28 o
10 20 2 0.32 11.60 12.32 o
11 20 2 47.03 95.71 14.65 o
12 20 2 0.28 19.48 13.04 o
13 20 2 210.70 224.16 19.32 o
1 21 2 2.45 22.17 9.12 o
2 21 2 33.91 46.96 9.58 o
3 21 2 42.39 61.75 9.77 o
4 21 2 3.30 20.56 9.28 o
5 21 2 139.66 115.41 10.56 o
6 21 2 25.72 42.27 10.28 o
7 21 2 178.85 213.36 13.26 o
8 21 2 120.88 110.56 12.76 o
9 21 2 85.59 97.05 14.22 o
10 21 2 14.94 22.51 13.23 o
0 22 2 0.59 10.41 13.35 o
1 22 2 143.75 155.88 11.48 o
2 22 2 16.60 40.03 10.00 o
3 22 2 81.65 114.77 11.21 o
4 22 2 10.68 23.14 9.90 o
5 22 2 39.36 50.58 10.89 o
6 22 2 4.14 27.79 11.01 o
7 22 2 8.09 10.34 10.84 o
8 22 2 2.65 44.28 13.79 o
1 23 2 0.06 3.63 9.80 o
2 23 2 64.85 104.14 11.19 o
3 23 2 35.52 53.99 10.61 o
1 0 3 216.90 225.84 12.57 o
2 0 3 64.89 73.63 4.96 o
3 0 3 1474.73 1350.65 23.74 o
4 0 3 4548.37 4871.85 64.72 o
5 0 3 2619.37 2892.23 36.22 o
6 0 3 4325.85 4110.46 50.23 o
7 0 3 1033.81 1367.05 20.34 o
8 0 3 3101.77 3058.42 39.30 o
9 0 3 1530.68 1577.96 23.64 o
10 0 3 2663.51 2642.78 35.45 o
11 0 3 985.81 1221.06 20.76 o
12 0 3 817.02 842.26 17.67 o
13 0 3 138.36 175.26 9.31 o
14 0 3 50.53 50.67 7.52 o
15 0 3 153.52 242.34 12.98 o
16 0 3 126.71 98.35 12.26 o
17 0 3 46.21 26.63 11.31 o
18 0 3 221.08 167.01 14.73 o
19 0 3 87.33 56.76 13.40 o
20 0 3 255.98 328.60 24.33 o
21 0 3 281.18 226.07 22.46 o
22 0 3 856.77 849.69 39.50 o
23 0 3 19.37 15.63 18.17 o
24 0 3 181.56 151.22 29.83 o
1 1 3 219.00 323.46 9.67 o
2 1 3 4191.18 3954.57 35.66 o
3 1 3 9.67 11.46 3.91 o
4 1 3 4324.58 4109.21 47.23 o
5 1 3 114.35 208.32 5.27 o
6 1 3 1815.52 1888.11 18.26 o
7 1 3 48.77 65.08 3.47 o
8 1 3 2.96 8.93 3.17 o
9 1 3 151.78 105.35 5.23 o
10 1 3 464.42 482.12 8.65 o
11 1 3 1.26 4.62 3.60 o
12 1 3 488.65 427.38 10.48 o
13 1 3 959.28 971.74 13.72 o
14 1 3 796.89 833.63 12.32 o
15 1 3 447.86 451.37 12.50 o
16 1 3 99.54 108.59 8.34 o
17 1 3 2.23 25.08 7.70 o
18 1 3 1298.32 1172.20 21.25 o
19 1 3 184.86 154.08 10.68 o
20 1 3 279.09 268.24 16.28 o
21 1 3 8.06 0.00 11.89 o
22 1 3 5.76 0.00 13.42 o
23 1 3 0.52 4.37 13.13 o
24 1 3 1.39 0.00 14.66 o
1 2 3 861.39 857.06 10.10 o
2 2 3 835.59 986.15 10.17 o
3 2 3 2165.37 2201.40 20.10 o
4 2 3 334.13 308.78 6.76 o
5 2 3 304.20 268.91 11.39 o
6 2 3 11125.76 11455.30 91.24 o
7 2 3 1605.51 1326.16 13.51 o
8 2 3 4936.08 4965.29 38.33 o
9 2 3 364.92 341.64 7.21 o
10 2 3 2284.84 2469.97 21.49 o
11 2 3 127.32 118.36 5.45 o
12 2 3 167.44 201.18 6.32 o
13 2 3 241.10 195.37 6.51 o
14 2 3 114.67 124.46 6.65 o
15 2 3 5.61 11.63 6.21 o
16 2 3 35.39 33.55 7.16 o
17 2 3 0.95 0.00 7.29 o
18 2 3 589.14 598.59 15.70 o
19 2 3 86.92 97.63 11.21 o
20 2 3 1064.58 980.21 25.99 o
21 2 3 225.87 194.54 15.82 o
22 2 3 790.67 947.35 26.91 o
23 2 3 0.97 0.00 13.13 o
24 2 3 229.63 248.24 19.54 o
0 3 3 23.46 39.38 4.14 o
1 3 3 2823.27 2463.44 24.40 o
2 3 3 5036.16 5938.66 44.50 o
3 3 3 1032.14 962.63 11.93 o
4 3 3 830.26 1026.76 12.26 o
5 3 3 139.41 152.42 4.89 o
6 3 3 23.91 49.13 4.04 o
7 3 3 1.64 3.74 3.67 o
8 3 3 365.90 309.91 7.47 o
9 3 3 41.33 55.28 4.23 o
10 3 3 977.73 932.71 11.20 o
11 3 3 37.80 18.57 4.27 o
12 3 3 896.25 1100.96 15.09 o
13 3 3 193.60 157.67 6.21 o
14 3 3 2458.97 2102.28 23.33 o
15 3 3 121.30 135.99 7.46 o
16 3 3 777.24 986.12 18.65 o
17 3 3 67.76 46.25 8.00 o
18 3 3 2209.09 2339.92 30.52 o
19 3 3 95.71 76.03 10.58 o
20 3 3 524.41 533.06 20.50 o
21 3 3 35.26 31.30 13.28 o
22 3 3 2.39 0.00 12.29 o
23 3 3 7.56 0.00 13.59 o
24 3 3 48.28 0.00 22.81 o
1 4 3 44.26 59.47 3.49 o
2 4 3 2349.12 2246.43 18.72 o
3 4 3 70.76 68.92 3.59 o
4 4 3 10793.78 11092.06 88.94 o
5 4 3 143.31 127.23 4.75 o
6 4 3 10166.81 10038.17 80.56 o
7 4 3 894.49 791.67 10.64 o
8 4 3 4130.67 4129.93 33.90 o
9 4 3 215.82 168.03 5.27 o
10 4 3 2571.34 2598.38 23.33 o
11 4 3 1.21 5.44 4.06 o
12 4 3 2428.37 2165.16 20.71 o
13 4 3 52.45 49.03 5.39 o
14 4 3 2.44 10.42 5.90 o
15 4 3 0.77 9.73 5.95 o
16 4 3 11.21 20.97 7.26 o
17 4 3 110.34 119.52 9.04 o
18 4 3 504.48 560.93 19.46 o
19 4 3 226.19 218.36 13.64 o
20 4 3 985.90 1063.68 27.01 o
21 4 3 337.52 371.51 19.31 o
22 4 3 1339.22 1466.81 33.69 o
23 4 3 6.70 0.00 16.99 o
24 4 3 266.20 259.50 19.44 o
0 5 3 1815.25 1557.90 20.10 o
1 5 3 491.28 343.44 6.86 o
2 5 3 10027.05 9625.69 73.40 o
3 5 3 326.08 284.98 5.72 o
4 5 3 5636.01 5182.66 39.53 o
5 5 3 728.05 606.40 9.22 o
6 5 3 1116.46 995.11 11.06 o
7 5 3 320.17 256.47 5.74 o
8 5 3 150.46 228.12 9.06 o
9 5 3 0.21 3.00 4.10 o
10 5 3 1244.65 1435.55 15.16 o
11 5 3 23.40 2.89 4.34 o
12 5 3 1017.07 899.36 12.97 o
13 5 3 1163.37 1269.40 16.76 o
14 5 3 1318.74 1573.69 19.54 o
15 5 3 597.80 613.29 12.33 o
16 5 3 665.36 675.61 15.84 o
17 5 3 1.22 19.08 7.80 o
18 5 3 2076.92 1980.93 41.26 o
19 5 3 195.17 192.45 12.11 o
20 5 3 339.96 361.94 18.86 o
21 5 3 1.47 0.00 12.55 o
22 5 3 0.38 1.56 16.06 o
23 5 3 0.02 0.00 14.51 o
24 5 3 41.44 8.59 14.88 o
1 6 3 360.96 386.41 6.36 o
2 6 3 983.45 1154.05 12.82 o
3 6 3 3.59 3.31 2.96 o
4 6 3 2098.05 1903.13 16.78 o
5 6 3 1521.84 1620.88 14.96 o
6 6 3 11999.22 12145.67 97.17 o
7 6 3 281.51 376.60 8.15 o
8 6 3 7231.23 7205.13 56.75 o
9 6 3 615.21 667.01 9.89 o
10 6 3 4453.17 4435.00 36.91 o
11 6 3 244.47 362.93 8.96 o
12 6 3 55.83 72.01 5.87 o
13 6 3 25.57 35.14 6.25 o
14 6 3 281.41 225.55 8.36 o
15 6 3 18.44 46.01 6.61 o
16 6 3 181.07 213.90 8.65 o
17 6 3 41.29 48.60 8.41 o
18 6 3 563.86 564.71 16.14 o
19 6 3 75.01 56.42 10.30 o
20 6 3 745.26 727.01 23.43 o
21 6 3 201.73 184.70 15.80 o
22 6 3 860.92 993.20 31.42 o
23 6 3 2.77 0.00 16.75 o
0 7 3 135.14 241.59 7.93 o
1 7 3 913.55 1022.15 17.70 o
2 7 3 3872.76 3925.06 33.18 o
3 7 3 61.69 108.60 4.19 o
4 7 3 2639.72 2495.63 21.09 o
5 7 3 0.86 4.30 3.46 o
6 7 3 996.89 945.61 10.91 o
7 7 3 35.77 46.39 4.75 o
8 7 3 2.00 9.75 4.43 o
9 7 3 425.59 421.79 9.03 o
10 7 3 759.74 747.24 10.66 o
11 7 3 39.56 37.47 5.25 o
12 7 3 1739.25 1805.88 19.65 o
13 7 3 197.99 198.30 8.43 o
14 7 3 2448.45 2227.54 24.70 o
15 7 3 70.89 89.93 7.30 o
16 7 3 223.59 275.83 9.51 o
17 7 3 11.36 11.41 8.70 o
18 7 3 1067.05 1100.38 22.01 o
19 7 3 100.66 97.66 10.84 o
20 7 3 227.44 228.63 16.90 o
21 7 3 10.52 0.00 12.60 o
22 7 3 2.90 0.00 13.09 o
23 7 3 3.34 0.00 13.77 o
1 8 3 190.28 171.40 4.71 o
2 8 3 2.51 7.77 2.87 o
3 8 3 824.44 812.09 9.73 o
4 8 3 1624.96 1725.92 15.84 o
5 8 3 229.69 287.62 6.58 o
6 8 3 3559.45 3585.63 29.13 o
7 8 3 1386.96 1203.34 12.97 o
8 8 3 2728.57 2679.84 25.37 o
9 8 3 509.03 494.84 9.79 o
10 8 3 1450.14 1516.49 17.27 o
11 8 3 34.30 23.46 5.27 o
12 8 3 1480.43 1489.41 18.69 o
13 8 3 226.35 220.47 9.48 o
14 8 3 273.27 255.95 9.49 o
15 8 3 8.29 5.25 6.25 o
16 8 3 55.30 40.92 7.65 o
17 8 3 1.43 0.00 10.01 o
18 8 3 373.02 373.05 17.79 o
19 8 3 64.93 76.52 12.25 o
20 8 3 462.66 471.59 18.41 o
21 8 3 127.65 103.96 14.70 o
22 8 3 619.46 657.94 29.32 o
23 8 3 4.65 0.00 14.21 o
0 9 3 106.42 95.30 5.81 o
1 9 3 54.32 23.48 3.42 o
2 9 3 2435.99 2443.71 21.90 o
3 9 3 102.33 99.78 4.96 o
4 9 3 1284.08 1270.92 13.00 o
5 9 3 16.16 26.41 3.91 o
6 9 3 443.97 470.14 8.17 o
7 9 3 6.28 9.76 3.68 o
8 9 3 30.45 15.83 4.63 o
9 9 3 18.35 12.30 4.90 o
10 9 3 504.94 481.09 10.19 o
11 9 3 100.01 77.83 5.98 o
12 9 3 99.77 102.53 7.21 o
13 9 3 520.03 482.96 12.31 o
14 9 3 374.76 329.06 10.51 o
15 9 3 195.59 196.36 10.18 o
16 9 3 245.44 268.02 12.60 o
17 9 3 27.86 31.59 7.80 o
18 9 3 912.41 894.62 20.08 o
19 9 3 49.96 26.87 11.23 o
20 9 3 184.09 169.13 15.17 o
21 9 3 7.90 12.07 11.85 o
22 9 3 0.42 0.00 13.51 o
1 10 3 23.61 24.72 3.76 o
2 10 3 1048.99 1108.45 12.81 o
3 10 3 78.18 74.06 4.51 o
4 10 3 747.74 736.40 10.87 o
5 10 3 386.80 303.92 7.21 o
6 10 3 2965.96 2979.64 27.58 o
7 10 3 133.05 154.52 6.20 o
8 10 3 598.82 634.85 10.66 o
9 10 3 281.51 236.61 7.30 o
10 10 3 679.66 730.49 11.87 o
11 10 3 279.77 246.40 7.82 o
12 10 3 3.80 0.00 5.87 o
13 10 3 60.29 72.27 7.27 o
14 10 3 357.63 399.09 15.65 o
15 10 3 0.38 7.36 7.47 o
16 10 3 1.28 5.48 7.82 o
17 10 3 41.40 47.60 8.26 o
18 10 3 116.82 115.77 11.26 o
19 10 3 81.00 78.62 13.18 o
20 10 3 309.24 333.13 19.13 o
21 10 3 150.13 157.81 14.92 o
22 10 3 376.41 447.69 26.53 o
0 11 3 89.87 114.32 6.62 o
1 11 3 369.05 420.67 7.42 o
2 11 3 2322.68 2491.83 23.03 o
3 11 3 313.89 384.22 7.65 o
4 11 3 398.44 403.78 8.03 o
5 11 3 223.38 245.78 6.38 o
6 11 3 1.05 2.70 3.90 o
7 11 3 33.29 31.68 4.49 o
8 11 3 6.09 4.81 4.73 o
9 11 3 46.58 40.71 5.37 o
10 11 3 6.43 5.99 5.09 o
11 11 3 10.44 5.35 5.40 o
12 11 3 141.93 81.97 7.26 o
13 11 3 185.01 212.95 10.16 o
14 11 3 489.33 546.74 18.70 o
15 11 3 121.86 116.46 9.26 o
16 11 3 25.69 22.29 8.27 o
17 11 3 1.10 0.00 8.65 o
18 11 3 736.18 723.69 20.84 o
19 11 3 141.40 169.39 16.13 o
20 11 3 123.87 122.57 13.57 o
21 11 3 1.17 0.00 16.19 o
1 12 3 101.73 106.53 5.82 o
2 12 3 24.27 31.63 4.95 o
3 12 3 147.02 157.63 6.29 o
4 12 3 795.41 681.85 10.76 o
5 12 3 379.91 440.57 10.51 o
6 12 3 1290.75 1299.49 15.09 o
7 12 3 42.55 36.08 5.61 o
8 12 3 946.77 889.80 13.47 o
9 12 3 76.80 93.29 6.57 o
10 12 3 514.44 512.92 11.64 o
11 12 3 12.54 9.31 6.05 o
12 12 3 491.19 470.77 13.26 o
13 12 3 7.77 15.38 7.53 o
14 12 3 7.13 19.98 7.82 o
15 12 3 35.74 54.48 8.65 o
16 12 3 2.25 0.00 8.49 o
17 12 3 12.71 19.58 9.00 o
18 12 3 127.05 143.60 13.36 o
19 12 3 46.75 54.95 14.77 o
20 12 3 149.97 148.73 16.81 o
0 13 3 59.89 93.94 9.96 o
1 13 3 341.55 398.61 9.17 o
2 13 3 637.10 702.14 11.54 o
3 13 3 161.54 172.89 6.65 o
4 13 3 474.42 435.72 10.26 o
5 13 3 2.42 8.43 5.03 o
6 13 3 405.53 323.53 8.92 o
7 13 3 4.49 10.12 5.92 o
8 13 3 43.21 49.56 6.76 o
9 13 3 4.37 17.41 6.26 o
10 13 3 675.05 698.59 16.11 o
11 13 3 17.87 19.57 8.43 o
12 13 3 360.08 420.20 14.14 o
13 13 3 100.22 108.66 10.15 o
14 13 3 569.64 492.73 16.14 o
15 13 3 15.94 20.30 11.27 o
16 13 3 155.17 193.50 12.30 o
17 13 3 8.69 12.05 11.45 o
18 13 3 467.68 425.63 23.98 o
19 13 3 32.06 29.10 13.53 o
20 13 3 57.84 72.32 15.47 o
1 14 3 0.42 0.00 6.48 o
2 14 3 183.06 142.62 8.52 o
3 14 3 20.93 22.57 6.88 o
4 14 3 188.12 213.72 9.37 o
5 14 3 13.10 19.79 6.26 o
6 14 3 2073.91 2016.60 25.90 o
7 14 3 151.93 149.01 8.66 o
8 14 3 1052.81 1050.52 17.80 o
9 14 3 176.55 185.92 9.50 o
10 14 3 1027.97 1081.42 18.56 o
11 14 3 7.38 9.77 9.63 o
12 14 3 89.99 116.65 11.79 o
13 14 3 110.65 159.06 12.77 o
14 14 3 3.51 15.99 10.62 o
15 14 3 8.95 16.20 10.98 o
16 14 3 35.34 34.75 13.91 o
17 14 3 2.46 4.88 14.32 o
18 14 3 128.47 154.92 20.53 o
19 14 3 46.69 77.61 33.39 o
0 15 3 199.36 201.11 13.74 o
1 15 3 13.96 22.41 7.32 o
2 15 3 1990.29 1887.87 25.48 o
3 15 3 79.11 79.71 8.13 o
4 15 3 642.76 597.68 14.65 o
5 15 3 40.40 42.63 7.75 o
6 15 3 50.07 46.20 8.61 o
7 15 3 2.25 16.28 8.56 o
8 15 3 2.70 6.01 8.34 o
9 15 3 4.70 9.07 8.56 o
10 15 3 114.53 102.54 9.93 o
11 15 3 65.25 68.42 13.53 o
12 15 3 344.54 316.20 18.57 o
13 15 3 139.62 137.96 15.93 o
14 15 3 579.83 610.59 24.73 o
15 15 3 51.96 65.30 17.45 o
16 15 3 47.37 38.60 14.90 o
17 15 3 5.95 18.44 14.00 o
18 15 3 296.72 295.70 20.48 o
1 16 3 56.80 48.07 7.90 o
2 16 3 94.83 96.22 8.73 o
3 16 3 1.57 10.80 7.48 o
4 16 3 812.90 730.65 16.07 o
5 16 3 360.56 390.04 13.55 o
6 16 3 917.41 912.82 19.58 o
7 16 3 9.41 20.79 9.09 o
8 16 3 645.25 664.65 17.37 o
9 16 3 85.97 91.33 9.89 o
10 16 3 311.49 324.92 16.34 o
11 16 3 94.88 139.21 15.82 o
12 16 3 182.47 135.31 16.29 o
13 16 3 0.13 12.05 13.88 o
14 16 3 1.18 13.74 14.32 o
15 16 3 22.47 30.01 15.19 o
16 16 3 1.19 1.07 14.60 o
17 16 3 5.43 34.00 15.25 o
0 17 3 235.89 182.88 14.17 o
1 17 3 152.15 203.11 10.28 o
2 17 3 749.12 723.42 16.07 o
3 17 3 62.39 90.98 9.05 o
4 17 3 208.67 203.07 11.34 o
5 17 3 1.00 0.00 8.49 o
6 17 3 105.20 99.54 10.22 o
7 17 3 0.48 15.99 8.87 o
8 17 3 26.47 30.80 9.30 o
9 17 3 54.36 53.33 9.87 o
10 17 3 144.58 131.00 13.79 o
11 17 3 0.21 15.30 12.13 o
12 17 3 78.36 81.91 15.00 o
13 17 3 54.84 67.74 15.47 o
14 17 3 221.69 224.23 18.25 o
15 17 3 12.25 36.12 15.71 o
16 17 3 116.88 157.12 17.60 o
1 18 3 0.51 13.95 8.02 o
2 18 3 190.17 189.73 10.49 o
3 18 3 61.15 57.10 9.78 o
4 18 3 73.93 81.82 10.01 o
5 18 3 56.36 74.10 10.01 o
6 18 3 551.92 517.07 16.54 o
7 18 3 11.29 19.43 9.70 o
8 18 3 117.06 95.06 10.55 o
9 18 3 71.27 87.43 10.74 o
10 18 3 245.32 228.86 15.82 o
11 18 3 2.05 16.34 12.13 o
12 18 3 34.67 76.01 15.32 o
13 18 3 4.29 24.77 15.07 o
14 18 3 32.34 27.54 15.52 o
0 19 3 10.63 7.92 11.59 o
1 19 3 3.48 21.37 8.42 o
2 19 3 502.35 558.44 15.76 o
3 19 3 77.18 80.98 10.26 o
4 19 3 55.34 51.64 9.95 o
5 19 3 28.71 27.40 9.66 o
6 19 3 0.27 5.09 9.65 o
7 19 3 0.65 12.73 9.63 o
8 19 3 0.11 0.00 9.70 o
9 19 3 8.81 17.60 12.00 o
10 19 3 18.95 31.27 13.04 o
11 19 3 29.58 33.85 12.85 o
12 19 3 56.67 68.78 15.82 o
13 19 3 36.71 41.36 16.69 o
1 20 3 0.35 4.22 8.86 o
2 20 3 0.62 12.11 9.67 o
3 20 3 0.71 11.12 9.75 o
4 20 3 76.53 86.63 11.05 o
5 20 3 17.41 26.80 10.34 o
6 20 3 162.08 171.85 12.37 o
7 20 3 3.88 27.36 10.43 o
8 20 3 152.79 178.54 12.91 o
9 20 3 20.67 23.03 12.58 o
10 20 3 44.09 45.84 13.64 o
11 20 3 18.95 0.00 13.21 o
0 21 3 2.02 10.17 12.84 o
1 21 3 7.27 9.44 9.92 o
2 21 3 79.22 85.52 11.29 o
3 21 3 61.72 81.33 11.36 o
4 21 3 40.67 65.29 11.21 o
5 21 3 2.35 9.43 10.10 o
6 21 3 51.22 59.33 11.62 o
7 21 3 2.07 1.43 10.33 o
8 21 3 1.36 1.84 12.58 o
9 21 3 0.81 22.58 13.26 o
1 22 3 11.29 21.78 11.08 o
2 22 3 21.54 29.20 10.82 o
3 22 3 1.93 4.80 10.53 o
4 22 3 0.91 0.00 10.80 o
5 22 3 81.32 124.78 12.68 o
0 0 4 18284.14 17123.60 295.78 o
1 0 4 5.79 14.32 6.95 o
2 0 4 385.48 199.22 14.43 o
3 0 4 1804.64 1936.47 27.28 o
4 0 4 1447.90 1178.87 19.60 o
5 0 4 807.75 796.27 24.81 o
6 0 4 1248.30 1115.53 16.37 o
7 0 4 126.95 93.93 6.43 o
8 0 4 33.60 42.40 5.59 o
9 0 4 379.62 437.17 15.63 o
10 0 4 40.10 44.41 8.95 o
11 0 4 661.40 614.40 18.95 o
12 0 4 858.70 890.82 19.22 o
13 0 4 78.37 93.13 9.61 o
14 0 4 567.47 590.60 17.18 o
15 0 4 12.57 24.74 11.31 o
16 0 4 397.36 448.23 30.02 o
17 0 4 1010.72 1140.82 30.41 o
18 0 4 51.39 19.27 12.64 o
19 0 4 271.17 265.62 18.32 o
20 0 4 130.23 114.02 16.43 o
21 0 4 50.13 92.55 16.23 o
22 0 4 35.90 20.56 19.68 o
23 0 4 0.02 0.00 18.58 o
1 1 4 173.77 227.48 6.73 o
2 1 4 301.97 230.23 10.97 o
3 1 4 1233.83 1199.44 14.40 o
4 1 4 407.84 405.14 8.33 o
5 1 4 1382.81 1352.57 15.83 o
6 1 4 1696.19 1629.32 17.22 o
7 1 4 1160.65 1152.62 15.21 o
8 1 4 127.33 129.26 5.92 o
9 1 4 1997.74 2018.14 22.20 o
10 1 4 1841.62 1788.67 24.32 o
11 1 4 28.65 17.12 6.33 o
12 1 4 355.88 316.91 8.72 o
13 1 4 32.75 25.20 6.04 o
14 1 4 16.59 9.82 5.96 o
15 1 4 2.38 0.00 7.39 o
16 1 4 155.74 136.49 9.91 o
17 1 4 320.05 315.37 12.73 o
18 1 4 63.26 91.93 10.08 o
19 1 4 303.14 324.14 13.90 o
20 1 4 276.76 271.63 13.94 o
21 1 4 184.96 203.11 13.30 o
22 1 4 220.17 182.11 17.11 o
23 1 4 79.80 46.71 15.46 o
0 2 4 1244.18 1422.28 21.18 o
1 2 4 18.50 12.75 3.72 o
2 2 4 1702.00 1494.69 14.74 o
3 2 4 2546.68 2312.43 23.13 o
4 2 4 1486.65 1479.31 15.82 o
5 2 4 895.41 749.66 10.65 o
6 2 4 319.36 268.72 6.50 o
7 2 4 111.20 82.10 4.75 o
8 2 4 8.41 15.28 2.81 o
9 2 4 2.27 16.75 3.41 o
10 2 4 690.83 692.95 12.72 o
11 2 4 221.97 298.67 8.40 o
12 2 4 1017.93 1074.15 15.61 o
13 2 4 157.94 140.86 7.14 o
14 2 4 1103.16 1377.56 18.71 o
15 2 4 90.72 117.05 8.82 o
16 2 4 1580.35 1434.66 23.82 o
17 2 4 418.50 453.18 14.98 o
18 2 4 268.24 318.18 14.54 o
19 2 4 280.00 289.56 13.42 o
20 2 4 149.47 137.86 11.74 o
21 2 4 21.46 0.00 9.82 o
22 2 4 1.65 2.96 11.88 o
23 2 4 1.15 9.19 14.22 o
1 3 4 81.13 98.51 4.60 o
2 3 4 1265.92 1212.02 12.83 o
3 3 4 1099.81 1076.94 13.63 o
4 3 4 2099.92 2132.04 20.89 o
5 3 4 1061.38 1067.51 13.10 o
6 3 4 3217.32 3407.19 30.71 o
7 3 4 1330.79 1339.79 15.37 o
8 3 4 174.36 273.12 7.18 o
9 3 4 3893.64 3799.94 34.61 o
10 3 4 3373.25 3150.14 29.93 o
11 3 4 209.92 218.83 7.10 o
12 3 4 1200.35 1313.42 17.77 o
13 3 4 46.19 66.12 6.49 o
14 3 4 217.60 267.00 9.66 o
15 3 4 147.96 144.76 8.52 o
16 3 4 47.17 68.47 9.42 o
17 3 4 226.57 234.57 11.85 o
18 3 4 201.67 163.26 11.34 o
19 3 4 270.93 245.48 12.77 o
20 3 4 520.66 534.32 16.90 o
21 3 4 108.65 126.51 12.15 o
22 3 4 389.67 329.12 17.80 o
23 3 4 67.31 35.33 15.86 o
0 4 4 14398.50 16392.68 168.54 o
1 4 4 8.59 11.02 3.94 o
2 4 4 1973.13 2061.95 24.93 o
3 4 4 966.96 960.43 13.30 o
4 4 4 658.45 831.76 11.49 o
5 4 4 414.02 463.43 8.97 o
6 4 4 3.11 15.06 4.61 o
7 4 4 114.62 135.06 6.07 o
8 4 4 185.82 159.98 6.45 o
9 4 4 706.13 694.15 11.58 o
10 4 4 653.41 637.20 10.91 o
11 4 4 237.99 186.61 6.92 o
12 4 4 1278.77 1252.57 15.44 o
13 4 4 63.46 49.57 6.32 o
14 4 4 1241.51 1297.26 18.95 o
15 4 4 3.57 11.60 6.81 o
16 4 4 1884.68 1764.14 37.54 o
17 4 4 719.26 563.89 15.92 o
18 4 4 305.94 347.87 13.79 o
19 4 4 158.95 129.59 11.32 o
20 4 4 258.35 211.03 13.79 o
21 4 4 33.20 23.83 12.04 o
22 4 4 0.64 0.00 12.25 o
23 4 4 0.07 0.00 15.34 o
1 5 4 211.19 226.52 7.98 o
2 5 4 1893.74 1842.23 17.53 o
3 5 4 1059.72 1091.00 13.39 o
4 5 4 3407.41 3486.53 31.39 o
5 5 4 1551.49 1563.84 17.20 o
6 5 4 5310.60 5032.26 43.40 o
7 5 4 992.70 1010.68 13.37 o
8 5 4 1097.64 1021.64 17.18 o
9 5 4 1329.33 1426.66 16.67 o
10 5 4 2159.72 2238.53 22.97 o
11 5 4 72.55 85.81 5.95 o
12 5 4 642.79 596.15 11.16 o
13 5 4 73.33 67.11 6.82 o
14 5 4 148.44 107.90 7.88 o
15 5 4 0.06 0.00 7.28 o
16 5 4 53.80 25.89 8.00 o
17 5 4 152.47 111.65 10.15 o
18 5 4 93.95 141.63 11.17 o
19 5 4 132.09 151.07 11.85 o
20 5 4 565.82 543.22 17.09 o
21 5 4 163.54 165.92 14.56 o
22 5 4 389.69 369.23 26.99 o
0 6 4 6550.15 6066.92 65.74 o
1 6 4 13.93 8.44 3.78 o
2 6 4 1886.68 1803.98 20.78 o
3 6 4 1582.57 1825.00 16.94 o
4 6 4 2470.84 2398.35 23.29 o
5 6 4 679.67 763.53 11.69 o
6 6 4 1104.77 1047.73 13.64 o
7 6 4 357.81 258.29 7.38 o
8 6 4 366.08 328.24 8.37 o
9 6 4 99.36 118.72 6.26 o
10 6 4 467.20 469.97 10.43 o
11 6 4 537.38 521.42 11.18 o
12 6 4 1712.99 1708.83 18.80 o
13 6 4 130.07 116.16 7.47 o
14 6 4 1312.67 1357.31 20.77 o
15 6 4 76.20 61.50 7.54 o
16 6 4 924.94 926.51 20.82 o
17 6 4 311.28 362.28 13.64 o
18 6 4 366.54 330.21 13.83 o
19 6 4 295.17 274.32 13.48 o
20 6 4 103.91 101.16 13.18 o
21 6 4 30.37 29.93 11.94 o
22 6 4 5.93 0.00 14.38 o
1 7 4 59.65 71.65 4.65 o
2 7 4 142.13 130.50 5.36 o
3 7 4 477.88 449.04 8.29 o
4 7 4 577.70 526.09 10.84 o
5 7 4 211.14 178.29 6.53 o
6 7 4 1760.00 1777.29 19.07 o
7 7 4 777.73 728.78 12.52 o
8 7 4 505.47 491.94 10.38 o
9 7 4 1956.46 2041.03 21.66 o
10 7 4 3771.94 3556.43 33.27 o
11 7 4 9.06 12.11 5.69 o
12 7 4 553.15 548.41 11.72 o
13 7 4 54.76 54.87 7.31 o
14 7 4 1.90 1.64 6.35 o
15 7 4 56.34 40.23 7.16 o
16 7 4 327.68 334.82 11.32 o
17 7 4 212.99 228.30 12.21 o
18 7 4 231.76 220.21 12.41 o
19 7 4 264.82 267.25 13.32 o
20 7 4 295.61 311.77 16.61 o
21 7 4 92.66 100.99 14.12 o
22 7 4 267.31 185.28 17.53 o
0 8 4 2750.25 2898.31 38.29 o
1 8 4 222.29 201.73 7.94 o
2 8 4 837.62 688.50 10.20 o
3 8 4 1105.52 1064.59 13.98 o
4 8 4 1239.24 1271.48 14.62 o
5 8 4 433.03 369.93 8.41 o
6 8 4 292.61 284.84 7.96 o
7 8 4 767.44 742.06 14.78 o
8 8 4 265.39 224.61 7.58 o
9 8 4 537.78 534.13 11.05 o
10 8 4 571.70 645.55 12.05 o
11 8 4 8.18 17.67 6.03 o
12 8 4 959.46 977.31 14.51 o
13 8 4 66.34 66.22 7.45 o
14 8 4 679.02 781.05 19.88 o
15 8 4 10.88 22.99 7.00 o
16 8 4 1139.04 1076.45 18.25 o
17 8 4 598.20 548.00 18.87 o
18 8 4 30.34 57.46 10.11 o
19 8 4 94.66 114.15 12.96 o
20 8 4 132.22 117.67 13.88 o
21 8 4 16.59 17.17 12.44 o
1 9 4 58.03 57.83 4.83 o
2 9 4 249.24 240.27 6.63 o
3 9 4 545.25 524.75 10.09 o
4 9 4 605.49 676.41 10.40 o
5 9 4 949.26 882.46 12.10 o
6 9 4 1547.08 1619.52 17.44 o
7 9 4 294.25 278.58 8.00 o
8 9 4 18.03 24.25 5.73 o
9 9 4 823.13 764.48 12.68 o
10 9 4 694.87 702.09 12.42 o
11 9 4 63.25 61.35 6.49 o
12 9 4 212.04 243.12 9.03 o
13 9 4 6.19 2.14 6.72 o
14 9 4 28.99 48.68 7.56 o
15 9 4 7.89 11.47 6.88 o
16 9 4 6.25 13.78 7.32 o
17 9 4 128.58 135.14 10.41 o
18 9 4 47.56 47.22 10.83 o
19 9 4 81.29 81.44 12.40 o
20 9 4 269.08 262.87 16.36 o
21 9 4 95.73 100.97 13.79 o
0 10 4 3519.94 3524.41 41.21 o
1 10 4 6.82 5.49 4.25 o
2 10 4 804.00 827.96 16.87 o
3 10 4 613.00 535.68 10.08 o
4 10 4 308.39 369.97 8.83 o
5 10 4 265.23 226.66 7.05 o
6 10 4 37.66 54.95 5.37 o
7 10 4 425.57 451.21 9.42 o
8 10 4 272.18 264.59 8.19 o
9 10 4 1.14 3.67 5.51 o
10 10 4 13.55 16.85 5.87 o
11 10 4 322.83 299.35 8.92 o
12 10 4 110.58 126.86 8.25 o
13 10 4 134.91 138.24 8.57 o
14 10 4 104.35 102.45 8.29 o
15 10 4 32.62 23.29 7.68 o
16 10 4 317.48 328.42 13.38 o
17 10 4 110.29 123.67 10.40 o
18 10 4 187.61 169.03 13.79 o
19 10 4 192.03 167.82 13.82 o
20 10 4 79.36 57.83 15.90 o
1 11 4 103.75 106.02 5.26 o
2 11 4 526.80 515.96 9.30 o
3 11 4 280.67 263.96 7.38 o
4 11 4 620.87 608.22 10.26 o
5 11 4 175.41 157.23 6.46 o
6 11 4 490.89 439.51 9.35 o
7 11 4 719.78 649.49 11.22 o
8 11 4 10.22 11.07 5.66 o
9 11 4 1016.49 1069.24 15.24 o
10 11 4 762.73 788.81 13.25 o
11 11 4 2.83 7.57 5.94 o
12 11 4 172.51 137.83 9.33 o
13 11 4 70.35 65.74 8.88 o
14 11 4 100.77 70.78 8.92 o
15 11 4 5.04 8.05 9.12 o
16 11 4 13.00 19.48 8.86 o
17 11 4 75.39 74.14 9.23 o
18 11 4 11.95 44.57 11.55 o
19 11 4 104.14 132.06 13.55 o
20 11 4 130.43 117.44 14.04 o
0 12 4 1014.33 937.71 19.40 o
1 12 4 21.80 12.42 5.31 o
2 12 4 13.10 5.34 5.86 o
3 12 4 375.08 343.18 9.69 o
4 12 4 286.48 282.07 8.45 o
5 12 4 168.86 133.82 7.04 o
6 12 4 31.97 25.97 5.87 o
7 12 4 92.78 72.03 6.73 o
8 12 4 1.35 0.00 5.90 o
9 12 4 76.93 76.44 7.19 o
10 12 4 140.09 184.90 8.56 o
11 12 4 115.41 151.82 8.88 o
12 12 4 507.36 525.45 18.52 o
13 12 4 90.97 78.17 9.08 o
14 12 4 244.38 274.49 11.81 o
15 12 4 10.27 9.72 8.93 o
16 12 4 496.42 492.35 21.03 o
17 12 4 315.04 309.34 13.33 o
18 12 4 46.10 47.96 11.92 o
19 12 4 31.88 15.44 11.82 o
1 13 4 14.68 14.78 5.81 o
2 13 4 7.51 3.30 5.88 o
3 13 4 271.95 280.64 9.07 o
4 13 4 300.70 316.06 9.78 o
5 13 4 266.96 263.32 9.34 o
6 13 4 915.74 979.42 16.01 o
7 13 4 192.53 174.45 8.52 o
8 13 4 117.52 131.97 8.29 o
9 13 4 632.82 649.41 17.18 o
10 13 4 1218.25 1136.53 18.86 o
11 13 4 56.59 52.75 9.44 o
12 13 4 147.56 202.54 12.00 o
13 13 4 40.42 46.31 11.22 o
14 13 4 10.38 9.05 10.78 o
15 13 4 8.34 10.88 11.40 o
16 13 4 23.79 14.83 12.13 o
17 13 4 70.36 87.83 13.20 o
18 13 4 54.61 41.55 20.81 o
0 14 4 632.40 746.92 18.14 o
1 14 4 137.08 154.86 7.89 o
2 14 4 633.95 701.42 16.61 o
3 14 4 430.20 458.19 12.99 o
4 14 4 428.47 460.53 13.94 o
5 14 4 146.18 148.90 8.87 o
6 14 4 101.82 133.11 9.07 o
7 14 4 5.88 9.53 7.41 o
8 14 4 0.84 0.63 7.36 o
9 14 4 21.41 31.13 8.04 o
10 14 4 277.85 296.84 12.42 o
11 14 4 21.78 19.62 10.24 o
12 14 4 403.01 399.31 17.15 o
13 14 4 59.96 56.38 11.83 o
14 14 4 209.19 226.21 15.04 o
15 14 4 24.34 24.65 11.87 o
16 14 4 305.62 313.82 17.07 o
17 14 4 61.88 53.99 13.20 o
1 15 4 55.50 79.20 9.51 o
2 15 4 392.55 401.61 16.18 o
3 15 4 90.19 80.00 9.58 o
4 15 4 322.95 302.58 12.49 o
5 15 4 120.74 103.19 10.30 o
6 15 4 797.63 787.82 18.53 o
7 15 4 151.44 133.52 10.66 o
8 15 4 61.01 62.23 9.67 o
9 15 4 269.11 233.15 12.37 o
10 15 4 633.34 747.45 23.20 o
11 15 4 3.83 0.00 13.14 o
12 15 4 106.49 141.30 16.33 o
13 15 4 5.37 20.38 14.02 o
14 15 4 0.18 14.48 14.48 o
15 15 4 10.94 35.08 14.94 o
16 15 4 39.88 69.80 15.84 o
0 16 4 1886.82 1712.87 42.40 o
1 16 4 12.60 9.84 8.76 o
2 16 4 159.58 159.89 10.75 o
3 16 4 147.14 120.23 10.34 o
4 16 4 477.82 508.86 19.41 o
5 16 4 83.54 70.66 10.00 o
6 16 4 80.92 111.80 10.46 o
7 16 4 3.52 16.09 9.31 o
8 16 4 27.58 34.41 9.97 o
9 16 4 3.99 15.54 9.61 o
10 16 4 48.02 66.12 14.34 o
11 16 4 39.24 37.95 14.91 o
12 16 4 248.80 267.15 18.83 o
13 16 4 82.86 116.98 16.78 o
14 16 4 110.80 139.13 16.78 o
15 16 4 5.26 12.22 15.60 o
1 17 4 2.81 3.55 9.91 o
2 17 4 2.94 6.84 9.08 o
3 17 4 53.31 53.81 9.96 o
4 17 4 380.17 361.31 14.06 o
5 17 4 29.97 31.90 9.58 o
6 17 4 356.97 324.44 13.91 o
7 17 4 63.45 37.45 9.86 o
8 17 4 9.20 13.33 9.80 o
9 17 4 205.49 219.79 12.75 o
10 17 4 422.69 390.30 20.60 o
11 17 4 9.82 36.06 14.17 o
12 17 4 53.86 72.76 16.03 o
13 17 4 42.15 54.25 15.88 o
14 17 4 28.18 30.33 16.11 o
0 18 4 220.75 227.21 19.76 o
1 18 4 13.99 25.43 10.70 o
2 18 4 187.14 169.93 13.18 o
3 18 4 104.90 110.99 10.86 o
4 18 4 87.77 108.54 11.21 o
5 18 4 45.02 45.68 10.13 o
6 18 4 1.04 7.77 9.74 o
7 18 4 1.18 0.00 9.78 o
8 18 4 0.24 0.00 9.72 o
9 18 4 0.12 12.17 11.05 o
10 18 4 30.08 37.65 13.33 o
11 18 4 41.37 58.41 15.54 o
12 18 4 128.16 125.43 17.44 o
1 19 4 16.84 21.03 11.13 o
2 19 4 74.45 95.00 12.42 o
3 19 4 59.28 88.13 12.17 o
4 19 4 89.11 95.82 11.25 o
5 19 4 18.59 38.25 10.44 o
6 19 4 197.00 198.16 12.94 o
7 19 4 68.68 99.57 11.53 o
8 19 4 5.79 2.40 10.49 o
9 19 4 161.76 160.44 19.26 o
10 19 4 270.77 283.46 17.76 o
11 19 4 5.74 25.97 15.64 o
0 20 4 201.16 179.09 20.06 o
1 20 4 11.36 13.62 11.51 o
2 20 4 2.65 16.00 11.64 o
3 20 4 47.26 44.64 12.42 o
4 20 4 95.51 110.61 13.35 o
5 20 4 7.79 2.79 10.61 o
6 20 4 8.10 38.32 11.05 o
7 20 4 0.06 17.56 10.93 o
8 20 4 0.74 7.24 11.87 o
1 21 4 2.21 5.29 11.80 o
2 21 4 1.71 16.18 12.32 o
3 21 4 3.87 0.59 12.14 o
4 21 4 15.64 18.36 12.39 o
5 21 4 47.68 58.86 13.18 o
1 0 5 21.37 59.92 6.03 o
2 0 5 11.75 10.72 5.09 o
3 0 5 1192.79 1127.17 32.81 o
4 0 5 66.17 73.85 13.41 o
5 0 5 3539.92 3782.78 56.22 o
6 0 5 1873.40 1711.38 31.53 o
7 0 5 255.84 215.26 16.52 o
8 0 5 672.44 545.92 23.60 o
9 0 5 721.19 769.61 20.90 o
10 0 5 1055.34 1077.91 25.73 o
11 0 5 2603.70 2828.06 40.76 o
12 0 5 72.32 46.50 9.61 o
13 0 5 318.85 265.02 12.99 o
14 0 5 0.17 0.00 9.52 o
15 0 5 6.69 21.15 13.35 o
16 0 5 34.75 47.77 12.97 o
17 0 5 201.53 239.05 18.00 o
18 0 5 21.47 11.66 12.62 o
19 0 5 369.89 317.47 20.58 o
20 0 5 49.76 18.01 15.08 o
21 0 5 294.23 273.13 21.47 o
22 0 5 42.82 35.39 19.40 o
0 1 5 232.45 203.54 14.51 o
2 1 5 0.08 2.25 4.73 o
3 1 5 2691.85 2832.61 31.15 o
4 1 5 45.44 46.16 6.28 o
5 1 5 582.24 632.70 13.40 o
6 1 5 63.83 49.04 6.56 o
7 1 5 89.08 96.30 8.99 o
8 1 5 14.42 27.24 5.47 o
9 1 5 602.93 603.05 12.68 o
10 1 5 23.14 21.84 6.24 o
11 1 5 1651.25 1643.07 19.91 o
12 1 5 0.76 8.43 6.54 o
13 1 5 1216.88 1276.02 17.78 o
14 1 5 104.34 107.28 8.23 o
15 1 5 1155.08 1173.99 20.06 o
16 1 5 31.03 11.52 8.77 o
17 1 5 817.66 949.26 20.53 o
18 1 5 32.48 22.13 9.94 o
19 1 5 288.83 286.09 14.19 o
20 1 5 3.51 1.21 10.40 o
21 1 5 29.38 18.59 11.74 o
22 1 5 5.07 0.00 11.45 o
1 2 5 321.27 231.50 9.91 o
2 2 5 70.94 51.35 10.17 o
3 2 5 2558.99 2554.14 30.96 o
4 2 5 492.79 473.61 11.53 o
5 2 5 2733.86 2546.12 27.01 o
6 2 5 430.39 446.51 12.11 o
7 2 5 128.17 146.69 7.54 o
8 2 5 1002.56 902.12 13.55 o
9 2 5 647.08 672.24 18.22 o
10 2 5 829.83 827.93 14.67 o
11 2 5 3651.10 3430.21 33.39 o
12 2 5 411.41 340.90 9.95 o
13 2 5 346.53 328.71 10.09 o
14 2 5 5.23 1.94 6.93 o
15 2 5 20.88 21.25 8.16 o
16 2 5 0.10 0.00 8.73 o
17 2 5 142.38 142.69 11.50 o
18 2 5 3.08 0.00 9.18 o
19 2 5 269.90 310.38 14.48 o
20 2 5 0.19 0.00 10.26 o
21 2 5 268.60 248.38 14.57 o
0 3 5 1120.08 1094.88 22.64 o
1 3 5 3117.86 2707.70 47.07 o
2 3 5 17.53 20.42 5.76 o
3 3 5 3116.25 2794.70 26.78 o
4 3 5 157.49 182.41 6.77 o
5 3 5 1261.20 1111.45 15.56 o
6 3 5 43.33 28.18 4.79 o
7 3 5 159.44 141.38 7.44 o
8 3 5 46.69 56.03 6.18 o
9 3 5 421.12 411.82 10.37 o
10 3 5 4.39 13.60 6.57 o
11 3 5 1039.56 1089.27 19.25 o
12 3 5 0.80 0.00 6.25 o
13 3 5 833.02 861.20 14.85 o
14 3 5 319.34 235.33 12.11 o
15 3 5 770.28 725.60 15.47 o
16 3 5 20.03 15.41 8.54 o
17 3 5 558.57 587.73 16.45 o
18 3 5 4.76 0.00 10.45 o
19 3 5 254.47 219.31 13.46 o
20 3 5 3.06 0.00 10.47 o
21 3 5 34.73 20.07 11.17 o
1 4 5 96.36 85.45 6.09 o
2 4 5 815.12 836.79 16.00 o
3 4 5 675.45 739.54 12.12 o
4 4 5 104.40 113.51 6.22 o
5 4 5 4071.64 4096.48 37.00 o
6 4 5 104.49 82.74 6.05 o
7 4 5 129.29 130.24 6.48 o
8 4 5 1412.65 1292.19 18.38 o
9 4 5 644.08 690.49 15.64 o
10 4 5 409.62 446.58 16.82 o
11 4 5 2763.86 2844.13 29.01 o
12 4 5 116.48 130.42 7.75 o
13 4 5 208.10 206.09 8.70 o
14 4 5 137.15 141.98 9.03 o
15 4 5 4.43 10.66 7.59 o
16 4 5 3.08 0.00 8.89 o
17 4 5 134.95 157.67 17.42 o
18 4 5 0.88 0.00 9.40 o
19 4 5 241.80 233.91 13.54 o
20 4 5 10.29 9.43 10.32 o
21 4 5 360.64 331.98 15.74 o
0 5 5 804.98 1027.24 21.34 o
1 5 5 2080.59 1978.72 24.16 o
2 5 5 359.23 378.13 9.74 o
3 5 5 1939.62 2021.27 21.23 o
4 5 5 2.30 3.44 5.48 o
5 5 5 303.28 335.17 10.04 o
6 5 5 79.67 47.72 5.79 o
7 5 5 220.68 193.93 7.46 o
8 5 5 273.82 244.97 9.34 o
9 5 5 422.79 442.96 11.02 o
10 5 5 22.34 18.93 6.22 o
11 5 5 1382.01 1429.12 18.53 o
12 5 5 63.06 32.45 6.54 o
13 5 5 923.63 956.01 16.21 o
14 5 5 255.62 238.16 10.34 o
15 5 5 872.08 869.83 16.92 o
16 5 5 13.65 1.92 8.21 o
17 5 5 634.24 698.20 18.18 o
18 5 5 2.35 0.00 9.38 o
19 5 5 217.87 206.37 13.17 o
20 5 5 1.30 5.36 10.81 o
21 5 5 32.42 24.38 11.50 o
1 6 5 48.11 81.53 6.33 o
2 6 5 6.02 0.00 4.46 o
3 6 5 2150.37 1989.93 21.04 o
4 6 5 118.49 90.94 6.11 o
5 6 5 1027.84 1131.51 15.21 o
6 6 5 237.15 221.51 7.72 o
7 6 5 209.69 221.42 7.77 o
8 6 5 1676.74 1635.49 19.31 o
9 6 5 576.02 625.90 14.58 o
10 6 5 238.13 226.27 9.22 o
11 6 5 2271.72 2185.68 26.78 o
12 6 5 124.36 142.45 7.99 o
13 6 5 325.54 304.83 10.25 o
14 6 5 0.00 0.00 7.42 o
15 6 5 18.69 26.85 9.06 o
16 6 5 35.21 39.63 8.99 o
17 6 5 124.16 126.20 11.25 o
18 6 5 5.85 0.00 9.77 o
19 6 5 297.67 282.48 14.43 o
20 6 5 0.02 0.00 10.97 o
21 6 5 141.51 173.40 13.77 o
0 7 5 479.59 415.86 13.50 o
1 7 5 1692.33 1709.41 23.94 o
2 7 5 11.71 0.00 4.99 o
3 7 5 2129.38 2221.79 23.04 o
4 7 5 7.43 1.05 5.62 o
5 7 5 914.94 950.27 14.09 o
6 7 5 603.85 634.10 12.05 o
7 7 5 31.35 45.43 6.11 o
8 7 5 6.77 5.59 5.93 o
9 7 5 271.53 255.62 8.67 o
10 7 5 2.16 11.94 6.60 o
11 7 5 732.45 725.30 14.50 o
12 7 5 88.98 104.34 7.51 o
13 7 5 582.77 605.73 13.89 o
14 7 5 363.40 352.78 11.56 o
15 7 5 636.17 642.51 19.73 o
16 7 5 2.27 1.72 7.93 o
17 7 5 511.59 550.23 16.94 o
18 7 5 0.72 0.00 9.98 o
19 7 5 246.09 224.86 13.67 o
20 7 5 7.90 0.00 11.90 o
1 8 5 166.18 112.25 6.39 o
2 8 5 159.57 139.38 6.53 o
3 8 5 323.34 336.59 8.54 o
4 8 5 619.01 543.93 13.44 o
5 8 5 3533.24 3287.27 31.42 o
6 8 5 226.52 224.12 8.15 o
7 8 5 38.24 21.85 5.81 o
8 8 5 909.84 898.03 14.28 o
9 8 5 231.09 205.51 8.21 o
10 8 5 315.44 338.20 9.63 o
11 8 5 2040.21 2000.47 34.28 o
12 8 5 87.86 75.55 8.62 o
13 8 5 135.75 101.76 9.35 o
14 8 5 0.06 0.00 7.28 o
15 8 5 0.77 8.52 10.44 o
16 8 5 13.97 16.69 8.24 o
17 8 5 73.18 93.99 10.94 o
18 8 5 0.42 0.00 9.96 o
19 8 5 123.82 160.62 15.17 o
20 8 5 1.97 0.00 11.04 o
0 9 5 142.51 127.31 9.30 o
1 9 5 1452.51 1358.89 16.68 o
2 9 5 79.48 67.83 5.88 o
3 9 5 935.41 877.87 12.83 o
4 9 5 8.10 27.69 5.67 o
5 9 5 168.41 144.03 7.29 o
6 9 5 7.17 11.95 5.91 o
7 9 5 126.46 103.14 6.99 o
8 9 5 12.21 18.68 6.07 o
9 9 5 349.81 364.32 9.95 o
10 9 5 29.69 32.23 6.77 o
11 9 5 716.74 778.87 19.40 o
12 9 5 26.23 23.85 7.64 o
13 9 5 573.78 604.47 15.11 o
14 9 5 27.79 17.38 7.64 o
15 9 5 536.32 565.00 20.41 o
16 9 5 9.66 0.00 8.27 o
17 9 5 367.33 401.82 15.18 o
18 9 5 0.98 2.13 9.83 o
19 9 5 132.18 123.32 12.42 o
1 10 5 16.13 19.32 5.46 o
2 10 5 2.94 2.04 5.58 o
3 10 5 1163.48 1106.03 14.50 o
4 10 5 169.09 160.67 6.91 o
5 10 5 772.44 831.15 12.68 o
6 10 5 562.23 507.88 11.16 o
7 10 5 187.27 179.25 7.81 o
8 10 5 133.20 121.12 7.38 o
9 10 5 444.04 498.15 11.54 o
10 10 5 790.18 805.02 16.50 o
11 10 5 1331.11 1343.23 18.42 o
12 10 5 14.00 10.78 8.19 o
13 10 5 115.47 97.89 9.49 o
14 10 5 12.29 16.20 8.88 o
15 10 5 12.66 11.80 8.15 o
16 10 5 13.39 0.37 8.39 o
17 10 5 75.02 67.03 11.38 o
18 10 5 10.99 7.74 17.38 o
19 10 5 199.34 162.18 14.49 o
0 11 5 25.45 21.25 8.84 o
1 11 5 548.27 550.98 11.06 o
2 11 5 12.68 24.73 5.94 o
3 11 5 1056.74 1122.23 15.30 o
4 11 5 207.60 199.26 7.45 o
5 11 5 345.26 341.86 9.14 o
6 11 5 38.04 35.90 6.08 o
7 11 5 37.97 30.05 6.20 o
8 11 5 30.32 27.98 6.98 o
9 11 5 222.77 243.56 9.89 o
10 11 5 16.32 19.70 7.55 o
11 11 5 634.98 655.03 22.63 o
12 11 5 8.29 8.05 8.41 o
13 11 5 342.47 355.39 14.28 o
14 11 5 6.48 17.82 9.96 o
15 11 5 356.64 353.53 14.90 o
16 11 5 1.78 0.00 12.00 o
17 11 5 289.73 336.39 15.42 o
18 11 5 0.06 0.00 11.58 o
1 12 5 61.66 64.87 7.92 o
2 12 5 11.46 13.95 7.00 o
3 12 5 257.02 253.55 10.06 o
4 12 5 52.00 33.25 7.09 o
5 12 5 1544.50 1606.92 21.47 o
6 12 5 334.75 325.44 9.86 o
7 12 5 78.98 96.60 7.89 o
8 12 5 552.75 631.43 14.09 o
9 12 5 198.05 213.95 10.90 o
10 12 5 154.48 148.99 8.94 o
11 12 5 1118.98 1191.55 19.93 o
12 12 5 34.37 36.76 9.09 o
13 12 5 90.40 113.06 11.06 o
14 12 5 33.78 15.67 9.95 o
15 12 5 9.94 2.55 10.34 o
16 12 5 0.03 0.90 10.51 o
17 12 5 53.35 52.55 10.60 o
0 13 5 4.04 11.29 10.38 o
1 13 5 1090.31 1120.93 18.77 o
2 13 5 2.44 4.05 7.36 o
3 13 5 567.72 570.78 14.10 o
4 13 5 0.27 7.51 7.11 o
5 13 5 230.01 236.78 9.56 o
6 13 5 63.33 75.76 7.85 o
7 13 5 77.96 84.82 8.30 o
8 13 5 6.95 13.62 8.02 o
9 13 5 85.98 67.70 8.97 o
10 13 5 4.25 10.72 8.37 o
11 13 5 258.02 273.62 13.40 o
12 13 5 8.70 23.23 10.06 o
13 13 5 247.92 259.36 13.79 o
14 13 5 94.83 72.10 17.69 o
15 13 5 236.21 199.58 18.38 o
16 13 5 9.33 0.00 13.70 o
1 14 5 15.90 11.28 7.38 o
2 14 5 16.03 21.47 7.53 o
3 14 5 352.52 304.77 11.29 o
4 14 5 0.08 8.88 7.58 o
5 14 5 687.91 667.32 19.00 o
6 14 5 27.29 21.39 8.09 o
7 14 5 53.25 43.75 8.51 o
8 14 5 451.69 478.32 15.30 o
9 14 5 117.01 126.00 10.77 o
10 14 5 141.82 142.35 12.57 o
11 14 5 702.09 638.71 22.27 o
12 14 5 75.02 82.69 12.89 o
13 14 5 32.12 13.12 12.03 o
14 14 5 18.80 20.18 14.38 o
15 14 5 3.08 0.00 13.86 o
0 15 5 70.74 100.02 19.02 o
1 15 5 213.05 191.69 13.22 o
2 15 5 145.07 162.46 13.03 o
3 15 5 455.69 451.19 16.75 o
4 15 5 1.59 10.21 10.29 o
5 15 5 108.98 93.76 11.67 o
6 15 5 0.24 2.43 9.43 o
7 15 5 30.03 15.91 9.70 o
8 15 5 0.00 4.90 10.46 o
9 15 5 142.23 150.84 13.12 o
10 15 5 12.67 10.05 12.71 o
11 15 5 249.70 285.26 19.30 o
12 15 5 15.74 37.82 15.52 o
13 15 5 138.48 176.35 20.19 o
14 15 5 25.80 26.01 19.21 o
1 16 5 14.55 20.27 10.72 o
2 16 5 2.00 0.00 10.40 o
3 16 5 115.09 112.96 12.30 o
4 16 5 81.35 62.19 11.35 o
5 16 5 492.39 473.56 17.81 o
6 16 5 117.65 119.28 12.74 o
7 16 5 18.39 18.42 10.33 o
8 16 5 325.28 317.06 14.41 o
9 16 5 97.69 128.89 13.38 o
10 16 5 64.81 87.16 15.93 o
11 16 5 482.04 507.25 23.36 o
12 16 5 3.67 8.61 15.00 o
13 16 5 37.58 46.25 16.28 o
0 17 5 40.97 25.80 16.10 o
1 17 5 260.68 284.82 15.38 o
2 17 5 14.44 7.83 11.06 o
3 17 5 136.42 149.95 13.12 o
4 17 5 0.77 2.54 10.96 o
5 17 5 48.33 45.59 11.83 o
6 17 5 2.75 13.22 12.43 o
7 17 5 36.15 40.96 11.84 o
8 17 5 10.45 18.93 10.82 o
9 17 5 43.56 34.60 13.59 o
10 17 5 13.58 20.43 15.59 o
11 17 5 125.95 143.88 17.77 o
1 18 5 1.06 4.53 11.64 o
2 18 5 28.09 39.20 13.58 o
3 18 5 111.58 88.00 12.84 o
4 18 5 3.42 9.14 11.66 o
5 18 5 275.33 270.80 15.97 o
6 18 5 60.60 59.44 12.80 o
7 18 5 41.24 46.85 12.53 o
8 18 5 192.24 222.41 17.54 o
9 18 5 26.23 32.89 18.43 o
0 19 5 7.84 15.60 17.26 o
1 19 5 70.99 78.13 12.95 o
2 19 5 3.90 17.20 12.35 o
3 19 5 143.96 129.36 14.78 o
4 19 5 12.38 27.40 12.26 o
5 19 5 65.38 69.15 13.22 o
6 19 5 0.21 0.00 11.98 o
7 19 5 2.34 1.05 12.56 o
1 20 5 11.18 20.65 12.73 o
2 20 5 0.46 8.45 12.25 o
0 0 6 1188.97 1192.17 36.98 o
1 0 6 204.85 254.32 14.13 o
2 0 6 2752.92 2389.84 35.54 o
3 0 6 733.98 767.88 20.84 o
4 0 6 799.33 850.85 20.03 o
5 0 6 511.77 359.79 14.41 o
6 0 6 2.62 0.00 8.34 o
7 0 6 102.30 62.80 10.07 o
8 0 6 23.14 17.28 9.35 o
9 0 6 37.96 57.49 10.06 o
10 0 6 326.15 324.26 14.62 o
11 0 6 318.69 284.17 14.35 o
12 0 6 829.34 783.54 21.42 o
13 0 6 527.15 506.61 17.83 o
14 0 6 495.17 489.61 17.66 o
15 0 6 388.13 331.55 19.18 o
16 0 6 485.01 438.13 21.87 o
17 0 6 102.41 74.49 16.23 o
18 0 6 406.07 513.23 27.49 o
19 0 6 260.91 272.49 23.56 o
20 0 6 4.95 2.60 16.10 o
1 1 6 153.75 156.47 7.84 o
2 1 6 472.92 494.49 14.74 o
3 1 6 529.62 476.48 10.59 o
4 1 6 2458.94 2371.59 25.13 o
5 1 6 63.44 58.44 6.62 o
6 1 6 17.03 18.99 6.45 o
7 1 6 977.53 942.41 17.14 o
8 1 6 770.44 770.68 14.22 o
9 1 6 489.05 445.35 11.27 o
10 1 6 653.33 665.50 13.63 o
11 1 6 263.25 220.77 9.24 o
12 1 6 704.59 668.32 14.09 o
13 1 6 186.37 172.80 9.23 o
14 1 6 123.96 108.49 9.04 o
15 1 6 0.64 0.00 8.57 o
16 1 6 7.90 0.00 9.38 o
17 1 6 60.50 75.70 11.06 o
18 1 6 260.11 289.77 14.75 o
19 1 6 86.36 94.96 12.26 o
20 1 6 173.39 167.80 15.69 o
0 2 6 393.70 443.00 16.65 o
1 2 6 859.84 955.78 15.11 o
2 2 6 1870.45 1961.68 23.11 o
3 2 6 760.30 651.80 12.43 o
4 2 6 756.85 731.34 13.14 o
5 2 6 148.78 213.67 9.24 o
6 2 6 63.28 61.10 6.83 o
7 2 6 14.96 28.35 6.49 o
8 2 6 144.15 124.67 7.75 o
9 2 6 44.09 27.10 6.93 o
10 2 6 317.00 282.71 9.91 o
11 2 6 231.15 226.83 9.52 o
12 2 6 1003.64 1005.60 17.98 o
13 2 6 355.99 314.63 10.53 o
14 2 6 440.26 461.94 13.15 o
15 2 6 175.33 158.42 10.80 o
16 2 6 185.91 206.60 12.39 o
17 2 6 109.09 78.99 11.17 o
18 2 6 427.77 407.66 16.62 o
19 2 6 161.57 165.03 13.02 o
1 3 6 88.52 78.54 8.03 o
2 3 6 341.72 314.11 11.45 o
3 3 6 546.21 510.84 13.23 o
4 3 6 895.57 945.46 14.97 o
5 3 6 95.57 114.47 7.39 o
6 3 6 41.04 44.62 6.50 o
7 3 6 815.82 845.82 17.51 o
8 3 6 560.85 597.02 12.65 o
9 3 6 335.86 327.15 10.09 o
10 3 6 351.60 379.23 10.96 o
11 3 6 108.73 109.53 8.33 o
12 3 6 319.81 321.58 10.68 o
13 3 6 87.20 98.87 8.29 o
14 3 6 7.05 0.00 12.13 o
15 3 6 3.76 0.00 8.28 o
16 3 6 34.93 22.61 9.79 o
17 3 6 41.76 54.38 10.94 o
18 3 6 174.08 192.69 17.06 o
19 3 6 83.38 108.37 13.58 o
0 4 6 426.09 405.19 16.01 o
1 4 6 408.89 368.71 11.30 o
2 4 6 736.86 638.69 13.98 o
3 4 6 967.42 791.98 15.61 o
4 4 6 620.91 674.38 13.67 o
5 4 6 496.27 435.17 11.95 o
6 4 6 113.90 138.93 7.90 o
7 4 6 4.12 9.45 6.35 o
8 4 6 66.88 39.15 6.98 o
9 4 6 40.61 60.34 7.29 o
10 4 6 247.13 242.69 10.32 o
11 4 6 155.29 189.00 9.05 o
12 4 6 706.29 726.33 16.93 o
13 4 6 326.86 357.13 11.22 o
14 4 6 272.29 297.07 11.77 o
15 4 6 203.65 221.17 11.30 o
16 4 6 154.98 187.68 12.46 o
17 4 6 82.35 64.37 12.64 o
18 4 6 172.17 231.47 14.24 o
19 4 6 194.45 205.34 14.15 o
1 5 6 149.36 145.59 8.65 o
2 5 6 7.10 0.04 7.01 o
3 5 6 258.13 269.50 10.23 o
4 5 6 958.44 885.50 16.24 o
5 5 6 8.55 5.55 6.81 o
6 5 6 133.45 110.16 8.11 o
7 5 6 710.58 688.38 14.30 o
8 5 6 244.08 196.84 8.68 o
9 5 6 409.11 404.63 10.86 o
10 5 6 294.93 299.34 9.94 o
11 5 6 266.29 226.04 9.50 o
12 5 6 393.86 383.99 11.21 o
13 5 6 134.02 128.97 11.21 o
14 5 6 42.20 23.33 8.63 o
15 5 6 3.90 0.00 8.25 o
16 5 6 8.71 15.39 10.08 o
17 5 6 70.82 65.71 11.37 o
18 5 6 120.44 138.83 20.43 o
19 5 6 79.78 80.36 12.69 o
0 6 6 5.96 2.94 10.14 o
1 6 6 452.71 432.03 11.13 o
2 6 6 1634.80 1457.01 19.43 o
3 6 6 516.40 524.97 12.01 o
4 6 6 312.69 277.08 10.50 o
5 6 6 282.16 206.30 9.39 o
6 6 6 1.14 0.00 7.08 o
7 6 6 22.15 22.21 7.22 o
8 6 6 14.29 10.36 7.26 o
9 6 6 1.51 0.00 6.95 o
10 6 6 49.48 54.30 7.56 o
11 6 6 203.90 205.47 9.30 o
12 6 6 318.07 343.24 10.86 o
13 6 6 313.97 290.46 11.16 o
14 6 6 150.79 160.26 10.43 o
15 6 6 198.10 196.93 10.94 o
16 6 6 74.36 73.31 10.31 o
17 6 6 67.38 73.13 14.57 o
18 6 6 284.50 317.50 15.49 o
1 7 6 39.87 44.48 6.77 o
2 7 6 677.19 728.02 13.85 o
3 7 6 444.77 405.30 10.91 o
4 7 6 1117.88 1134.28 17.11 o
5 7 6 63.70 58.43 7.87 o
6 7 6 20.95 15.20 7.17 o
7 7 6 610.68 577.44 13.52 o
8 7 6 242.28 261.21 9.87 o
9 7 6 231.60 175.78 9.39 o
10 7 6 104.08 112.34 8.62 o
11 7 6 73.30 72.67 11.08 o
12 7 6 283.10 276.58 10.46 o
13 7 6 116.51 111.53 9.65 o
14 7 6 82.08 106.45 9.80 o
15 7 6 1.72 0.00 10.05 o
16 7 6 0.25 0.00 9.45 o
17 7 6 21.58 33.63 11.27 o
18 7 6 98.25 96.49 12.62 o
0 8 6 1030.60 1021.00 21.36 o
1 8 6 236.88 292.03 9.22 o
2 8 6 371.02 447.30 11.44 o
3 8 6 508.24 404.66 11.19 o
4 8 6 207.00 210.53 8.92 o
5 8 6 60.73 115.22 8.13 o
6 8 6 3.70 11.37 7.53 o
7 8 6 32.71 33.63 7.57 o
8 8 6 45.36 53.13 7.97 o
9 8 6 92.43 72.96 8.31 o
10 8 6 216.54 212.05 10.06 o
11 8 6 96.10 92.25 8.71 o
12 8 6 424.35 404.41 13.42 o
13 8 6 204.70 213.29 13.07 o
14 8 6 196.75 199.99 11.06 o
15 8 6 115.36 119.07 10.32 o
16 8 6 157.23 175.07 13.72 o
17 8 6 88.15 68.42 13.70 o
18 8 6 224.81 229.50 14.49 o
1 9 6 121.16 95.65 7.20 o
2 9 6 61.18 54.73 6.82 o
3 9 6 268.03 267.30 9.33 o
4 9 6 923.21 956.62 15.77 o
5 9 6 19.49 24.66 6.84 o
6 9 6 12.59 8.63 7.60 o
7 9 6 437.71 448.99 13.48 o
8 9 6 581.27 544.96 13.40 o
9 9 6 251.28 256.59 10.49 o
10 9 6 333.39 374.21 11.83 o
11 9 6 144.19 147.45 9.50 o
12 9 6 400.90 439.04 13.43 o
13 9 6 74.89 89.18 9.80 o
14 9 6 21.56 28.65 9.22 o
15 9 6 1.06 2.78 9.05 o
16 9 6 18.75 2.09 10.36 o
17 9 6 30.48 30.03 11.75 o
0 10 6 6.16 13.82 9.12 o
1 10 6 147.85 133.05 7.61 o
2 10 6 1444.48 1341.05 17.77 o
3 10 6 257.55 303.00 9.68 o
4 10 6 646.63 685.39 13.86 o
5 10 6 182.05 157.42 8.54 o
6 10 6 130.46 119.70 8.37 o
7 10 6 9.36 9.46 7.49 o
8 10 6 1.61 0.07 7.16 o
9 10 6 1.78 2.46 7.69 o
10 10 6 101.26 88.29 8.83 o
11 10 6 155.23 169.06 10.01 o
12 10 6 598.60 574.49 15.84 o
13 10 6 234.98 228.09 13.68 o
14 10 6 341.19 336.73 14.35 o
15 10 6 130.37 122.90 12.85 o
16 10 6 84.78 93.79 11.98 o
1 11 6 26.76 41.66 6.71 o
2 11 6 136.46 133.61 7.86 o
3 11 6 137.17 160.07 8.22 o
4 11 6 703.60 662.36 15.19 o
5 11 6 25.73 47.16 8.07 o
6 11 6 3.12 0.07 7.77 o
7 11 6 493.62 522.48 18.17 o
8 11 6 502.68 439.76 14.93 o
9 11 6 170.42 169.50 11.81 o
10 11 6 280.66 223.96 11.47 o
11 11 6 66.49 74.37 10.56 o
12 11 6 199.78 151.30 12.54 o
13 11 6 52.29 58.67 11.33 o
14 11 6 6.82 0.00 11.45 o
15 11 6 0.52 0.00 9.99 o
16 11 6 35.03 34.76 10.96 o
0 12 6 503.45 399.43 18.47 o
1 12 6 246.57 268.89 11.27 o
2 12 6 469.02 472.59 13.59 o
3 12 6 436.46 469.57 13.63 o
4 12 6 231.06 200.91 10.51 o
5 12 6 108.02 121.41 10.45 o
6 12 6 20.66 13.33 8.44 o
7 12 6 10.07 18.48 9.14 o
8 12 6 4.44 11.96 10.94 o
9 12 6 3.79 14.69 9.88 o
10 12 6 160.86 208.20 12.50 o
11 12 6 58.94 56.92 11.74 o
12 12 6 265.36 253.54 16.33 o
13 12 6 112.92 108.66 16.02 o
14 12 6 142.58 150.50 15.03 o
15 12 6 57.48 47.49 12.10 o
1 13 6 46.96 47.68 8.71 o
2 13 6 113.87 122.94 9.60 o
3 13 6 260.89 245.76 11.31 o
4 13 6 427.08 385.27 13.02 o
5 13 6 9.02 13.07 8.47 o
6 13 6 3.74 6.03 8.96 o
7 13 6 197.38 197.09 11.74 o
8 13 6 176.02 172.94 12.71 o
9 13 6 126.35 127.03 12.04 o
10 13 6 24.38 11.71 10.55 o
11 13 6 29.23 39.19 12.25 o
12 13 6 172.04 185.93 15.19 o
13 13 6 24.70 22.03 14.08 o
14 13 6 12.65 14.39 16.52 o
0 14 6 11.77 3.44 11.80 o
1 14 6 101.44 93.96 9.33 o
2 14 6 266.90 238.63 11.22 o
3 14 6 165.95 159.55 10.27 o
4 14 6 64.84 72.23 10.57 o
5 14 6 50.83 65.84 9.04 o
6 14 6 6.97 4.94 9.07 o
7 14 6 0.95 17.53 10.72 o
8 14 6 25.23 30.96 10.94 o
9 14 6 10.58 11.14 12.66 o
10 14 6 2.48 0.00 13.74 o
11 14 6 49.02 59.80 16.98 o
12 14 6 117.74 143.36 17.02 o
1 15 6 19.62 18.82 12.98 o
2 15 6 39.04 33.51 11.95 o
3 15 6 37.11 54.94 12.10 o
4 15 6 281.93 299.64 15.89 o
5 15 6 7.13 14.86 11.54 o
6 15 6 40.51 27.85 13.74 o
7 15 6 231.04 247.02 20.42 o
8 15 6 105.51 101.93 14.98 o
9 15 6 65.44 73.49 23.50 o
10 15 6 50.52 90.31 29.83 o
11 15 6 51.59 64.38 25.00 o
0 16 6 4.08 11.86 34.82 o
1 16 6 38.62 51.62 12.46 o
2 16 6 123.67 118.61 13.39 o
3 16 6 111.34 144.56 14.14 o
4 16 6 72.72 76.12 13.12 o
5 16 6 30.36 17.09 12.02 o
6 16 6 1.28 4.57 11.98 o
7 16 6 10.88 0.00 13.45 o
8 16 6 2.05 1.59 13.77 o
9 16 6 0.11 4.93 18.57 o
1 17 6 24.19 41.03 12.88 o
2 17 6 3.45 3.12 12.09 o
3 17 6 101.14 107.98 13.98 o
4 17 6 141.15 161.35 18.16 o
5 17 6 1.26 12.29 12.30 o
6 17 6 3.31 25.72 12.74 o
7 17 6 98.25 112.33 15.90 o
0 18 6 2.02 0.00 17.70 o
1 18 6 25.57 10.75 12.82 o
2 18 6 103.51 131.37 14.94 o
3 18 6 73.20 109.68 14.59 o
1 0 7 3.26 4.15 11.27 o
2 0 7 682.08 656.36 22.22 o
3 0 7 14.44 33.27 14.96 o
4 0 7 1124.96 1102.96 27.62 o
5 0 7 145.79 131.76 14.26 o
6 0 7 686.59 688.06 28.62 o
7 0 7 125.41 120.64 12.15 o
8 0 7 844.84 941.60 23.70 o
9 0 7 39.05 0.00 11.85 o
10 0 7 579.49 510.32 18.55 o
11 0 7 155.19 164.77 13.85 o
12 0 7 396.65 448.38 18.23 o
13 0 7 8.92 0.00 11.45 o
14 0 7 65.69 50.78 13.93 o
15 0 7 4.70 0.00 22.59 o
16 0 7 29.68 44.48 19.92 o
17 0 7 0.37 0.00 15.89 o
0 1 7 1335.46 1200.52 28.35 o
1 1 7 21.04 23.76 8.04 o
2 1 7 600.17 615.36 14.80 o
3 1 7 503.60 481.20 13.81 o
4 1 7 1079.95 997.43 18.70 o
5 1 7 14.75 7.79 8.43 o
6 1 7 133.61 125.93 9.14 o
7 1 7 1.34 0.00 7.41 o
8 1 7 22.09 33.79 7.86 o
9 1 7 19.54 4.91 7.74 o
10 1 7 448.45 501.66 13.01 o
11 1 7 84.58 83.04 8.68 o
12 1 7 436.78 447.47 12.84 o
13 1 7 171.88 187.80 10.41 o
14 1 7 91.16 77.44 9.84 o
15 1 7 1.62 0.00 9.70 o
16 1 7 583.63 613.54 18.52 o
17 1 7 2.13 0.00 10.61 o
1 2 7 9.41 0.00 7.70 o
2 2 7 157.05 153.64 9.82 o
3 2 7 75.85 39.90 8.49 o
4 2 7 691.73 722.00 15.87 o
5 2 7 0.28 1.24 8.02 o
6 2 7 807.61 782.15 15.92 o
7 2 7 24.59 4.76 7.56 o
8 2 7 824.66 741.83 15.00 o
9 2 7 0.41 0.00 7.67 o
10 2 7 477.42 511.19 13.17 o
11 2 7 254.74 269.51 10.92 o
12 2 7 277.48 249.21 10.76 o
13 2 7 1.42 0.00 8.44 o
14 2 7 24.13 16.82 8.96 o
15 2 7 23.53 23.40 10.13 o
16 2 7 35.07 61.92 11.54 o
17 2 7 2.54 0.00 10.60 o
0 3 7 380.68 406.79 18.01 o
1 3 7 0.52 0.03 7.67 o
2 3 7 339.46 322.78 11.57 o
3 3 7 469.72 443.82 13.44 o
4 3 7 855.68 854.28 17.54 o
5 3 7 14.20 7.65 7.38 o
6 3 7 141.68 136.89 9.13 o
7 3 7 2.56 0.00 7.51 o
8 3 7 0.09 2.47 7.92 o
9 3 7 48.04 43.09 8.17 o
10 3 7 488.20 500.86 13.22 o
11 3 7 78.10 64.76 8.42 o
12 3 7 498.86 544.63 14.03 o
13 3 7 227.38 243.42 11.57 o
14 3 7 92.07 43.00 9.75 o
15 3 7 0.25 0.00 9.62 o
16 3 7 410.22 446.32 16.86 o
17 3 7 1.48 0.00 10.65 o
1 4 7 0.78 1.54 7.97 o
2 4 7 139.56 105.18 9.20 o
3 4 7 36.74 51.07 8.90 o
4 4 7 378.22 366.36 11.58 o
5 4 7 133.98 139.16 8.95 o
6 4 7 228.55 209.03 9.85 o
7 4 7 56.43 62.90 8.33 o
8 4 7 581.37 573.58 13.80 o
9 4 7 8.45 7.49 8.15 o
10 4 7 389.00 376.90 14.21 o
11 4 7 207.32 211.11 10.35 o
12 4 7 288.53 228.60 10.77 o
13 4 7 1.51 0.00 10.19 o
14 4 7 1.89 0.00 9.07 o
15 4 7 14.65 17.05 10.28 o
16 4 7 31.14 28.63 13.58 o
0 5 7 575.14 531.48 19.90 o
1 5 7 15.12 14.14 8.09 o
2 5 7 103.13 130.59 9.60 o
3 5 7 257.12 276.07 11.31 o
4 5 7 679.46 622.81 14.91 o
5 5 7 57.59 53.33 7.81 o
6 5 7 164.97 176.40 9.68 o
7 5 7 28.14 8.71 7.57 o
8 5 7 5.76 10.95 7.75 o
9 5 7 0.13 5.48 7.83 o
10 5 7 260.41 259.84 11.05 o
11 5 7 92.05 94.72 9.21 o
12 5 7 232.11 233.36 13.33 o
13 5 7 133.29 115.26 10.11 o
14 5 7 15.66 1.54 13.26 o
15 5 7 1.36 0.00 9.93 o
16 5 7 315.17 360.07 17.51 o
1 6 7 1.53 0.69 7.66 o
2 6 7 225.00 241.16 10.98 o
3 6 7 73.45 80.98 9.02 o
4 6 7 337.50 334.67 12.10 o
5 6 7 15.97 19.89 8.23 o
6 6 7 390.36 397.74 13.12 o
7 6 7 13.82 13.04 7.60 o
8 6 7 309.58 322.97 11.50 o
9 6 7 4.88 0.00 7.83 o
10 6 7 196.78 173.29 10.08 o
11 6 7 152.12 129.88 9.95 o
12 6 7 116.15 156.93 10.03 o
13 6 7 2.90 0.00 9.02 o
14 6 7 74.75 57.37 10.29 o
15 6 7 9.90 11.44 10.30 o
16 6 7 11.06 0.00 10.81 o
0 7 7 529.94 511.19 19.38 o
1 7 7 0.82 0.00 7.83 o
2 7 7 262.20 274.99 11.33 o
3 7 7 460.55 396.77 12.78 o
4 7 7 379.38 360.20 12.50 o
5 7 7 0.45 0.00 8.15 o
6 7 7 12.17 2.53 10.36 o
7 7 7 2.16 7.73 8.25 o
8 7 7 11.28 19.27 8.95 o
9 7 7 30.75 39.16 8.48 o
10 7 7 207.61 226.20 10.93 o
11 7 7 54.81 40.88 8.98 o
12 7 7 191.37 212.97 14.95 o
13 7 7 180.40 190.97 11.62 o
14 7 7 31.56 15.81 9.76 o
15 7 7 0.23 0.00 12.64 o
1 8 7 3.40 0.00 7.55 o
2 8 7 159.76 150.73 10.08 o
3 8 7 6.97 7.29 8.04 o
4 8 7 600.64 691.02 16.20 o
5 8 7 36.00 36.62 8.81 o
6 8 7 294.91 362.96 13.23 o
7 8 7 25.23 17.42 8.71 o
8 8 7 431.15 446.28 13.41 o
9 8 7 1.33 3.17 8.87 o
10 8 7 231.84 304.63 13.17 o
11 8 7 163.67 180.04 13.74 o
12 8 7 300.10 250.82 12.95 o
13 8 7 0.04 0.00 9.81 o
14 8 7 6.54 11.72 9.93 o
0 9 7 504.61 498.38 22.16 o
1 9 7 22.60 12.89 8.76 o
2 9 7 249.54 267.82 11.38 o
3 9 7 251.25 227.49 10.91 o
4 9 7 688.40 695.09 15.98 o
5 9 7 2.38 6.86 8.39 o
6 9 7 135.23 139.06 10.10 o
7 9 7 0.18 0.00 8.43 o
8 9 7 1.85 11.90 8.60 o
9 9 7 8.81 0.00 8.96 o
10 9 7 292.72 288.82 12.57 o
11 9 7 37.14 46.03 9.15 o
12 9 7 255.20 264.76 12.67 o
13 9 7 85.33 92.15 10.80 o
14 9 7 50.34 35.50 10.07 o
1 10 7 5.41 17.74 8.21 o
2 10 7 151.84 154.14 10.27 o
3 10 7 74.52 68.82 8.98 o
4 10 7 191.47 201.23 10.62 o
5 10 7 7.91 5.31 8.31 o
6 10 7 430.98 394.54 13.11 o
7 10 7 6.73 18.26 8.65 o
8 10 7 527.18 548.32 15.11 o
9 10 7 11.23 3.08 17.20 o
10 10 7 313.17 299.27 18.23 o
11 10 7 68.98 42.21 16.51 o
12 10 7 119.21 130.94 12.59 o
13 10 7 0.40 0.38 11.07 o
0 11 7 664.75 625.03 23.04 o
1 11 7 3.09 0.00 9.32 o
2 11 7 173.06 202.51 14.66 o
3 11 7 145.43 143.24 11.19 o
4 11 7 414.59 408.52 14.69 o
5 11 7 19.60 15.24 9.91 o
6 11 7 109.95 116.45 11.23 o
7 11 7 8.59 7.71 9.94 o
8 11 7 3.45 5.47 12.17 o
9 11 7 2.73 0.00 10.28 o
10 11 7 197.88 237.48 15.22 o
11 11 7 21.18 30.31 11.86 o
12 11 7 302.61 326.54 17.29 o
1 12 7 0.19 7.70 9.08 o
2 12 7 86.45 75.85 11.86 o
3 12 7 0.21 0.00 10.98 o
4 12 7 281.32 283.08 15.06 o
5 12 7 32.89 29.30 11.26 o
6 12 7 207.92 233.32 14.92 o
7 12 7 14.98 11.14 11.31 o
8 12 7 291.40 289.79 15.47 o
9 12 7 1.05 0.00 20.55 o
10 12 7 148.59 136.30 13.85 o
11 12 7 125.78 170.03 16.71 o
0 13 7 194.77 177.80 16.32 o
1 13 7 1.42 0.00 8.96 o
2 13 7 99.26 119.76 10.79 o
3 13 7 103.60 104.95 13.70 o
4 13 7 245.37 279.52 15.04 o
5 13 7 5.56 20.52 11.23 o
6 13 7 14.87 0.07 12.24 o
7 13 7 3.72 0.00 11.42 o
8 13 7 7.84 13.32 19.11 o
9 13 7 4.38 6.37 18.27 o
1 14 7 0.13 0.67 10.21 o
2 14 7 82.73 92.59 10.54 o
3 14 7 43.28 35.48 11.66 o
4 14 7 113.32 151.17 13.24 o
5 14 7 0.09 0.00 13.29 o
6 14 7 112.78 111.77 15.56 o
7 14 7 0.11 0.00 13.53 o
8 14 7 108.15 112.85 22.25 o
0 15 7 233.82 295.07 33.43 o
1 15 7 0.30 0.00 13.07 o
2 15 7 28.82 30.54 13.48 o
3 15 7 94.93 62.35 16.10 o
4 15 7 82.95 59.52 18.71 o
5 15 7 1.04 4.23 17.71 o
0 0 8 61.00 48.37 30.63 o
1 0 8 224.00 275.21 18.02 o
2 0 8 274.88 223.02 16.48 o
3 0 8 388.04 381.44 19.38 o
4 0 8 56.87 72.31 14.58 o
5 0 8 194.83 214.08 16.48 o
6 0 8 2.33 0.00 14.43 o
7 0 8 0.15 11.87 12.93 o
8 0 8 43.04 7.80 13.63 o
9 0 8 45.22 34.05 16.99 o
10 0 8 1.53 0.00 13.38 o
11 0 8 242.48 254.12 18.97 o
12 0 8 0.52 0.00 20.99 o
13 0 8 49.99 30.06 15.53 o
1 1 8 0.43 0.00 8.79 o
2 1 8 68.06 60.41 9.55 o
3 1 8 239.16 260.63 12.58 o
4 1 8 77.00 80.44 10.72 o
5 1 8 281.24 278.81 12.66 o
6 1 8 351.55 364.49 13.85 o
7 1 8 393.28 406.22 14.44 o
8 1 8 37.60 34.90 10.29 o
9 1 8 468.02 506.19 15.38 o
10 1 8 182.29 188.78 12.63 o
11 1 8 61.19 51.85 10.81 o
12 1 8 2.85 0.00 11.74 o
13 1 8 39.71 38.64 10.65 o
0 2 8 16.48 15.95 19.55 o
1 2 8 228.51 206.97 11.38 o
2 2 8 76.99 87.44 11.46 o
3 2 8 297.34 341.69 13.43 o
4 2 8 78.46 68.15 10.02 o
5 2 8 222.25 210.71 11.96 o
6 2 8 24.76 38.73 9.74 o
7 2 8 0.29 5.99 9.38 o
8 2 8 0.05 7.13 9.69 o
9 2 8 4.60 14.25 9.75 o
10 2 8 58.80 54.80 10.59 o
11 2 8 319.47 310.34 13.77 o
12 2 8 0.77 0.00 9.57 o
13 2 8 44.44 13.63 11.04 o
1 3 8 0.50 4.42 8.66 o
2 3 8 16.46 11.98 8.76 o
3 3 8 247.68 233.82 12.31 o
4 3 8 0.57 0.00 8.74 o
5 3 8 204.57 222.91 12.02 o
6 3 8 248.63 218.67 12.04 o
7 3 8 435.41 402.85 14.46 o
8 3 8 30.87 20.91 9.86 o
9 3 8 536.24 615.72 16.53 o
10 3 8 222.88 199.53 12.49 o
11 3 8 57.40 63.09 10.40 o
12 3 8 3.60 0.00 9.58 o
13 3 8 76.84 57.15 11.18 o
0 4 8 17.30 11.63 12.83 o
1 4 8 183.39 186.12 11.02 o
2 4 8 36.36 30.58 9.25 o
3 4 8 270.27 300.29 12.98 o
4 4 8 24.48 18.73 9.78 o
5 4 8 143.77 133.90 10.99 o
6 4 8 11.36 9.99 10.59 o
7 4 8 1.76 8.58 9.55 o
8 4 8 2.72 0.00 9.15 o
9 4 8 28.44 59.80 10.65 o
10 4 8 7.30 0.00 10.89 o
11 4 8 229.88 209.72 12.05 o
12 4 8 0.58 0.00 12.49 o
1 5 8 1.04 6.58 8.92 o
2 5 8 9.49 4.86 9.21 o
3 5 8 260.07 285.67 12.46 o
4 5 8 6.10 0.00 9.02 o
5 5 8 311.25 305.44 13.25 o
6 5 8 128.93 130.19 11.03 o
7 5 8 341.10 366.69 13.98 o
8 5 8 3.56 0.00 9.55 o
9 5 8 366.36 349.25 14.16 o
10 5 8 77.47 80.87 11.03 o
11 5 8 61.01 46.19 10.32 o
12 5 8 1.00 0.00 11.35 o
0 6 8 1.84 0.00 12.36 o
1 6 8 205.36 191.28 11.56 o
2 6 8 28.61 31.52 10.43 o
3 6 8 242.91 244.33 13.48 o
4 6 8 6.64 16.71 10.05 o
5 6 8 154.23 189.43 11.66 o
6 6 8 0.72 4.71 9.50 o
7 6 8 2.42 10.99 9.67 o
8 6 8 15.00 14.98 9.86 o
9 6 8 2.57 13.30 9.77 o
10 6 8 3.51 0.75 10.17 o
11 6 8 248.70 271.54 12.84 o
1 7 8 0.34 4.21 9.21 o
2 7 8 39.45 45.93 9.86 o
3 7 8 140.15 150.62 13.71 o
4 7 8 10.75 14.53 9.47 o
5 7 8 140.31 129.97 11.13 o
6 7 8 150.93 162.38 11.74 o
7 7 8 340.97 317.88 13.57 o
8 7 8 0.86 0.00 10.66 o
9 7 8 397.08 425.58 14.94 o
10 7 8 98.33 104.08 10.59 o
11 7 8 33.79 26.87 9.84 o
0 8 8 12.31 0.00 12.12 o
1 8 8 175.77 158.95 11.04 o
2 8 8 86.48 92.76 10.37 o
3 8 8 225.68 262.27 12.44 o
4 8 8 32.53 21.52 9.67 o
5 8 8 189.60 143.15 11.35 o
6 8 8 5.05 18.90 9.86 o
7 8 8 3.34 13.89 10.27 o
8 8 8 0.03 10.72 9.46 o
9 8 8 5.97 15.77 9.39 o
10 8 8 9.14 9.88 9.81 o
1 9 8 0.77 3.47 8.97 o
2 9 8 25.25 24.54 9.44 o
3 9 8 173.53 192.86 11.63 o
4 9 8 4.06 21.52 9.40 o
5 9 8 129.04 137.98 11.23 o
6 9 8 207.39 227.73 12.48 o
7 9 8 223.26 225.77 12.65 o
8 9 8 29.03 40.58 10.61 o
9 9 8 249.01 260.96 12.27 o
0 10 8 21.38 25.48 19.31 o
1 10 8 126.64 126.60 10.82 o
2 10 8 72.19 89.50 10.49 o
3 10 8 123.42 121.24 12.14 o
4 10 8 45.91 74.90 11.72 o
5 10 8 83.38 83.81 12.12 o
6 10 8 16.71 12.96 10.97 o
7 10 8 12.53 16.82 12.36 o
1 11 8 0.40 9.45 12.25 o
2 11 8 9.71 19.59 12.23 o
3 11 8 88.70 111.62 16.28 o
4 11 8 14.21 12.30 12.60 o
5 11 8 95.45 110.56 19.97 o
6 11 8 146.19 166.55 14.99 o
0 12 8 4.71 6.15 16.50 o
1 12 8 73.33 66.19 13.66 o
2 12 8 44.58 22.65 13.10 o
3 12 8 70.77 87.23 20.81 o
1 0 9 2.82 7.38 21.87 o
2 0 9 1.64 7.49 14.22 o
3 0 9 68.14 85.06 15.90 o
4 0 9 0.97 0.00 14.89 o
5 0 9 238.44 233.55 19.57 o
6 0 9 131.30 159.19 18.25 o
7 0 9 117.04 138.41 17.89 o
0 1 9 13.72 0.00 25.07 o
1 1 9 254.12 277.50 13.99 o
2 1 9 1.07 0.00 12.26 o
3 1 9 47.96 34.93 10.56 o
4 1 9 75.13 86.93 11.42 o
5 1 9 60.99 68.53 11.98 o
6 1 9 0.11 15.08 15.92 o
7 1 9 36.73 22.37 11.30 o
1 2 9 2.85 0.00 10.44 o
2 2 9 9.46 12.36 14.85 o
3 2 9 84.10 66.41 11.68 o
4 2 9 13.38 5.86 11.20 o
5 2 9 208.74 241.71 14.27 o
6 2 9 173.98 174.97 14.55 o
0 3 9 93.26 110.70 16.58 o
1 3 9 223.51 227.20 13.62 o
2 3 9 14.78 0.00 10.57 o
3 3 9 41.37 20.42 10.63 o
4 3 9 82.83 82.82 11.63 o
5 3 9 64.40 88.94 11.79 o
6 3 9 5.69 0.53 12.37 o
1 4 9 4.27 13.02 10.54 o
2 4 9 10.98 0.00 10.11 o
3 4 9 78.11 69.72 12.76 o
4 4 9 42.51 31.98 11.17 o
5 4 9 217.77 248.68 13.68 o
0 5 9 93.80 109.60 16.72 o
1 5 9 248.10 257.31 13.91 o
2 5 9 18.76 6.74 10.62 o
3 5 9 35.01 25.83 11.07 o
4 5 9 121.82 107.12 13.17 o
1 6 9 2.99 6.54 10.42 o
2 6 9 7.37 11.40 10.62 o
