#------------------------------------------------------------------------------
#$Date: 2016-02-13 14:50:18 +0200 (Sat, 13 Feb 2016) $
#$Revision: 176428 $
#$URL: svn://www.crystallography.net/cod/cif/4/34/38/4343894.cif $
#------------------------------------------------------------------------------
#
# This file is available in the Crystallography Open Database (COD),
# http://www.crystallography.net/
#
# All data on this site have been placed in the public domain by the
# contributors.
#
data_4343894
loop_
_publ_author_name
'Wen, Lili'
'Zheng, Xiaofang'
'Lv, Kangle'
'Wang, Chenggang'
'Xu, Xiaoyue'
_publ_section_title
;
 Two Amino-Decorated Metal-Organic Frameworks for Highly Selective and
 Quantitatively Sensing of Hg(II) and Cr(VI) in Aqueous Solution.
;
_journal_issue                   15
_journal_name_full               'Inorganic chemistry'
_journal_page_first              7133
_journal_page_last               7135
_journal_paper_doi               10.1021/acs.inorgchem.5b00098
_journal_volume                  54
_journal_year                    2015
_chemical_formula_sum            'C23 H16 Cd N7 O4'
_chemical_formula_weight         566.83
_chemical_name_systematic
; 
 ? 
;
_space_group_IT_number           60
_symmetry_cell_setting           orthorhombic
_symmetry_space_group_name_Hall  '-P 2n 2ab'
_symmetry_space_group_name_H-M   'P b c n'
_atom_sites_solution_hydrogens   geom
_atom_sites_solution_primary     direct
_atom_sites_solution_secondary   difmap
_audit_creation_method           SHELXL-97
_cell_angle_alpha                90.00
_cell_angle_beta                 90.00
_cell_angle_gamma                90.00
_cell_formula_units_Z            8
_cell_length_a                   23.614(3)
_cell_length_b                   13.7299(15)
_cell_length_c                   20.772(2)
_cell_measurement_temperature    273(2)
_cell_volume                     6734.7(13)
_computing_cell_refinement       SMART
_computing_data_collection       'SMART (Bruker, 2000)'
_computing_data_reduction        'SAINT (Bruker, 2000)'
_computing_molecular_graphics    SHELXTL
_computing_publication_material  SHELXTL
_computing_structure_refinement  SHELXTL
_computing_structure_solution    'SHELXTL (Bruker, 2000)'
_diffrn_ambient_temperature      273(2)
_diffrn_measured_fraction_theta_full 0.995
_diffrn_measured_fraction_theta_max 0.995
_diffrn_measurement_device_type  'Bruker Smart Aepex CCD'
_diffrn_radiation_monochromator  graphite
_diffrn_radiation_source         'fine-focus sealed tube'
_diffrn_radiation_type           MoK\a
_diffrn_radiation_wavelength     0.71073
_diffrn_reflns_av_R_equivalents  0.0000
_diffrn_reflns_av_sigmaI/netI    0.0458
_diffrn_reflns_limit_h_max       31
_diffrn_reflns_limit_h_min       0
_diffrn_reflns_limit_k_max       18
_diffrn_reflns_limit_k_min       0
_diffrn_reflns_limit_l_max       27
_diffrn_reflns_limit_l_min       0
_diffrn_reflns_number            8062
_diffrn_reflns_theta_full        27.97
_diffrn_reflns_theta_max         27.97
_diffrn_reflns_theta_min         1.72
_exptl_absorpt_coefficient_mu    0.680
_exptl_absorpt_correction_T_max  0.903
_exptl_absorpt_correction_T_min  0.878
_exptl_absorpt_correction_type   multi-scan
_exptl_absorpt_process_details   'SADABS; Bruker, 2000'
_exptl_crystal_colour            coloress
_exptl_crystal_density_diffrn    1.118
_exptl_crystal_density_method    'not measured'
_exptl_crystal_description       block
_exptl_crystal_F_000             2264
_exptl_crystal_size_max          0.20
_exptl_crystal_size_mid          0.16
_exptl_crystal_size_min          0.15
_platon_squeeze_details
;
;
_refine_diff_density_max         1.425
_refine_diff_density_min         -3.101
_refine_diff_density_rms         0.131
_refine_ls_extinction_method     none
_refine_ls_goodness_of_fit_ref   1.092
_refine_ls_hydrogen_treatment    constr
_refine_ls_matrix_type           full
_refine_ls_number_parameters     320
_refine_ls_number_reflns         8062
_refine_ls_number_restraints     1
_refine_ls_restrained_S_all      1.092
_refine_ls_R_factor_all          0.0810
_refine_ls_R_factor_gt           0.0610
_refine_ls_shift/su_max          0.001
_refine_ls_shift/su_mean         0.000
_refine_ls_structure_factor_coef Fsqd
_refine_ls_weighting_details
'calc w=1/[\s^2^(Fo^2^)+(0.1168P)^2^+0.0000P] where P=(Fo^2^+2Fc^2^)/3'
_refine_ls_weighting_scheme      calc
_refine_ls_wR_factor_gt          0.1851
_refine_ls_wR_factor_ref         0.1925
_reflns_number_gt                5367
_reflns_number_total             8062
_reflns_threshold_expression     >2sigma(I)
_cod_data_source_file            ic5b00098_si_003.cif
_cod_data_source_block           2
_cod_depositor_comments
;
The following automatic conversions were performed:

'_symmetry_cell_setting' value 'Orthorhombic' changed to
'orthorhombic' according to
/usr/data/users/saulius/crontab/automatic-downloads/rss-feeds/ACS/lib/dictionaries/cif_core.dic
dictionary named 'cif_core.dic' version 2.4.2 from 2011-04-26.

Automatic conversion script
Id: cif_fix_values 3271 2015-04-21 07:52:19Z andrius 

 Adding full bibliography for 4343893--4343894.cif.
;
_cod_original_cell_volume        6734.4(13)
_cod_original_sg_symbol_H-M      Pbcn
_cod_database_code               4343894
loop_
_symmetry_equiv_pos_as_xyz
'x, y, z'
'x+1/2, -y+1/2, -z'
'-x, y, -z+1/2'
'-x+1/2, -y+1/2, z+1/2'
'-x, -y, -z'
'-x-1/2, y-1/2, z'
'x, -y, z-1/2'
'x-1/2, y-1/2, -z-1/2'
loop_
_atom_site_label
_atom_site_type_symbol
_atom_site_fract_x
_atom_site_fract_y
_atom_site_fract_z
_atom_site_U_iso_or_equiv
_atom_site_adp_type
_atom_site_occupancy
_atom_site_symmetry_multiplicity
_atom_site_calc_flag
_atom_site_refinement_flags
_atom_site_disorder_assembly
_atom_site_disorder_group
N5 N 1.16490(17) 0.3940(3) 0.6006(2) 0.0463(10) Uani 1 1 d . . .
C10 C 1.2140(2) 0.4436(4) 0.6150(3) 0.0673(18) Uani 1 1 d . . .
H10 H 1.2470 0.4143 0.6297 0.081 Uiso 1 1 calc R . .
C9 C 1.1306(2) 0.4625(3) 0.5779(2) 0.0468(12) Uani 1 1 d . . .
H9 H 1.0941 0.4503 0.5629 0.056 Uiso 1 1 calc R . .
C11 C 1.2079(2) 0.5403(4) 0.6049(3) 0.0687(18) Uani 1 1 d . . .
H11 H 1.2342 0.5890 0.6135 0.082 Uiso 1 1 calc R . .
N6 N 1.15445(15) 0.5515(3) 0.5790(2) 0.0404(9) Uani 1 1 d . . .
C1 C 0.8058(3) 0.7888(4) 0.5164(3) 0.0619(16) Uani 1 1 d . . .
C2 C 0.7796(2) 0.7775(4) 0.5821(2) 0.0502(13) Uani 1 1 d . A .
C3 C 0.8136(3) 0.7703(5) 0.6383(3) 0.0697(19) Uani 1 1 d D . .
C4 C 0.7872(3) 0.7596(6) 0.6981(3) 0.0753(19) Uani 1 1 d . A .
H4 H 0.8090 0.7563 0.7353 0.090 Uiso 1 1 calc R . .
C5 C 0.7023(3) 0.7407(3) 0.7683(2) 0.0453(11) Uani 1 1 d . . .
C6 C 0.7290(2) 0.7539(4) 0.7024(2) 0.0462(12) Uani 1 1 d . . .
C7 C 0.6972(3) 0.7507(5) 0.6481(3) 0.0628(15) Uani 1 1 d D A .
C8 C 0.7232(3) 0.7640(4) 0.5879(3) 0.0606(15) Uani 1 1 d . . .
H8 H 0.7009 0.7636 0.5509 0.073 Uiso 1 1 calc R A .
C12 C 0.9711(2) 0.7696(3) 0.4469(2) 0.0473(11) Uani 1 1 d . . .
H12 H 0.9592 0.8091 0.4807 0.057 Uiso 1 1 calc R . .
C13 C 0.9724(2) 0.6913(4) 0.3579(3) 0.0576(14) Uani 1 1 d . . .
H13 H 0.9616 0.6661 0.3182 0.069 Uiso 1 1 calc R . .
C14 C 1.0227(3) 0.6744(5) 0.3872(3) 0.0679(17) Uani 1 1 d . . .
H14 H 1.0522 0.6361 0.3715 0.081 Uiso 1 1 calc R . .
C15 C 1.0637(2) 0.7257(3) 0.4928(2) 0.0409(10) Uani 1 1 d . . .
C16 C 1.0888(2) 0.6398(3) 0.5113(2) 0.0429(10) Uani 1 1 d . . .
H16 H 1.0794 0.5816 0.4909 0.052 Uiso 1 1 calc R . .
C17 C 1.1285(2) 0.6407(3) 0.5607(2) 0.0417(10) Uani 1 1 d . . .
C18 C 1.1431(2) 0.7265(3) 0.5914(3) 0.0409(11) Uani 1 1 d . . .
H18 H 1.1706 0.7272 0.6234 0.049 Uiso 1 1 calc R . .
C19 C 1.1154(2) 0.8121(3) 0.5732(2) 0.0416(11) Uani 1 1 d . . .
C20 C 1.0766(2) 0.8140(3) 0.5233(2) 0.0457(11) Uani 1 1 d . . .
H20 H 1.0597 0.8720 0.5103 0.055 Uiso 1 1 calc R . .
C21 C 1.1367(3) 0.9107(4) 0.6719(2) 0.0597(14) Uani 1 1 d . . .
H21 H 1.1350 0.8621 0.7029 0.072 Uiso 1 1 calc R . .
C22 C 1.1466(2) 1.0049(4) 0.6811(2) 0.0529(14) Uani 1 1 d . . .
H22 H 1.1529 1.0334 0.7211 0.063 Uiso 1 1 calc R . .
C23 C 1.1367(2) 0.9896(3) 0.5764(2) 0.0452(11) Uani 1 1 d . . .
H23 H 1.1352 1.0028 0.5325 0.054 Uiso 1 1 calc R . .
Cd1 Cd 0.843474(13) 0.775170(19) 0.389257(15) 0.03175(13) Uani 1 1 d . . .
N1 N 0.94013(19) 0.7504(3) 0.39527(19) 0.0460(10) Uani 1 1 d . . .
N2 N 1.02199(17) 0.7247(2) 0.44473(19) 0.0399(9) Uani 1 1 d . . .
N3 N 1.12948(19) 0.9005(3) 0.60517(18) 0.0446(9) Uani 1 1 d . . .
N4 N 1.14633(17) 1.0546(3) 0.62403(19) 0.0449(10) Uani 1 1 d . . .
O1 O 0.7746(2) 0.7828(3) 0.46758(16) 0.0631(11) Uani 1 1 d . . .
O2 O 0.8561(2) 0.8014(5) 0.5108(2) 0.0976(18) Uani 1 1 d . . .
O3 O 0.64879(19) 0.7408(3) 0.7745(2) 0.0680(12) Uani 1 1 d . . .
O4 O 0.73411(17) 0.7322(3) 0.81582(17) 0.0538(9) Uani 1 1 d . . .
N7 N 0.8707(5) 0.7644(10) 0.6360(5) 0.103(4) Uani 0.570(9) 1 d PD A 1
H7A H 0.8897 0.7543 0.6707 0.124 Uiso 0.570(9) 1 calc PR A 1
H7B H 0.8881 0.7707 0.5998 0.124 Uiso 0.570(9) 1 calc PR A 1
N7' N 0.6427(6) 0.7200(13) 0.6500(7) 0.103(4) Uani 0.430(9) 1 d PD A 2
H7C H 0.6279 0.7023 0.6859 0.124 Uiso 0.430(9) 1 calc PR A 2
H7D H 0.6230 0.7183 0.6152 0.124 Uiso 0.430(9) 1 calc PR A 2
loop_
_atom_site_aniso_label
_atom_site_aniso_U_11
_atom_site_aniso_U_22
_atom_site_aniso_U_33
_atom_site_aniso_U_23
_atom_site_aniso_U_13
_atom_site_aniso_U_12
N5 0.051(2) 0.0227(18) 0.065(3) 0.0076(17) -0.0125(19) 0.0023(16)
C10 0.047(3) 0.030(2) 0.125(5) 0.010(3) -0.026(3) 0.003(2)
C9 0.046(3) 0.030(2) 0.064(3) 0.006(2) -0.023(2) -0.003(2)
C11 0.047(3) 0.032(2) 0.128(6) 0.013(3) -0.020(3) -0.006(2)
N6 0.042(2) 0.0237(17) 0.056(2) 0.0077(16) -0.0109(17) -0.0005(15)
C1 0.084(5) 0.059(3) 0.043(3) -0.004(2) 0.016(3) 0.009(3)
C2 0.064(4) 0.054(3) 0.033(2) -0.004(2) 0.012(2) -0.004(3)
C3 0.057(4) 0.106(6) 0.046(3) -0.009(3) 0.010(3) -0.013(3)
C4 0.074(4) 0.110(5) 0.041(3) -0.015(3) 0.001(3) -0.025(4)
C5 0.063(3) 0.035(2) 0.038(2) 0.0014(19) 0.005(2) -0.007(2)
C6 0.059(3) 0.048(3) 0.031(2) -0.0028(19) 0.010(2) -0.003(2)
C7 0.060(4) 0.088(4) 0.040(3) 0.022(3) 0.005(3) -0.009(3)
C8 0.073(4) 0.076(4) 0.032(2) 0.008(2) -0.008(3) 0.001(3)
C12 0.054(3) 0.042(3) 0.046(3) -0.007(2) -0.007(2) 0.005(2)
C13 0.062(3) 0.067(3) 0.044(3) -0.018(3) -0.006(3) 0.009(3)
C14 0.068(4) 0.072(4) 0.064(4) -0.025(3) -0.013(3) 0.018(3)
C15 0.040(3) 0.033(2) 0.049(3) -0.0037(19) -0.005(2) -0.0027(19)
C16 0.050(3) 0.027(2) 0.052(3) -0.0051(19) -0.008(2) -0.0043(19)
C17 0.047(3) 0.0220(19) 0.056(3) -0.0035(18) -0.011(2) -0.0002(18)
C18 0.052(3) 0.018(2) 0.053(3) 0.0081(17) -0.014(2) -0.0014(18)
C19 0.047(3) 0.0196(19) 0.058(3) -0.0013(19) -0.014(2) -0.0020(18)
C20 0.051(3) 0.025(2) 0.061(3) 0.001(2) -0.016(2) 0.004(2)
C21 0.099(4) 0.036(2) 0.044(3) 0.015(2) -0.016(3) -0.001(3)
C22 0.104(4) 0.040(2) 0.0145(18) -0.0022(16) -0.010(2) -0.007(3)
C23 0.080(3) 0.028(2) 0.028(2) -0.0047(17) -0.020(2) -0.008(2)
Cd1 0.0441(2) 0.02233(18) 0.02886(18) -0.00203(11) -0.00608(12) 0.00081(12)
N1 0.047(2) 0.045(2) 0.046(2) -0.0052(18) -0.0147(18) -0.0008(19)
N2 0.044(2) 0.037(2) 0.038(2) -0.0073(15) -0.0124(17) 0.0044(17)
N3 0.058(3) 0.0245(18) 0.051(2) -0.0003(16) -0.0166(19) 0.0009(17)
N4 0.066(3) 0.0278(19) 0.041(2) -0.0017(16) -0.0095(18) -0.0029(18)
O1 0.104(3) 0.061(2) 0.0246(17) 0.0032(15) 0.0057(18) 0.016(2)
O2 0.079(3) 0.175(6) 0.039(2) 0.009(3) 0.019(2) 0.002(3)
O3 0.082(3) 0.068(3) 0.054(3) 0.004(2) 0.021(2) 0.001(2)
O4 0.073(3) 0.056(2) 0.0328(17) 0.0008(15) 0.0119(17) 0.0071(18)
N7 0.081(6) 0.187(12) 0.040(4) 0.019(5) -0.003(4) -0.013(6)
N7' 0.081(6) 0.187(12) 0.040(4) 0.019(5) -0.003(4) -0.013(6)
loop_
_atom_type_symbol
_atom_type_description
_atom_type_scat_dispersion_real
_atom_type_scat_dispersion_imag
_atom_type_scat_source
C C 0.0033 0.0016 'International Tables Vol C Tables 4.2.6.8 and 6.1.1.4'
H H 0.0000 0.0000 'International Tables Vol C Tables 4.2.6.8 and 6.1.1.4'
N N 0.0061 0.0033 'International Tables Vol C Tables 4.2.6.8 and 6.1.1.4'
O O 0.0106 0.0060 'International Tables Vol C Tables 4.2.6.8 and 6.1.1.4'
Cd Cd -0.8075 1.2024 'International Tables Vol C Tables 4.2.6.8 and 6.1.1.4'
loop_
_geom_angle_atom_site_label_1
_geom_angle_atom_site_label_2
_geom_angle_atom_site_label_3
_geom_angle
_geom_angle_site_symmetry_1
_geom_angle_site_symmetry_3
C9 N5 C10 104.0(4) . .
C9 N5 Cd1 133.1(3) . 5_766
C10 N5 Cd1 122.8(3) . 5_766
C11 C10 N5 111.2(5) . .
C11 C10 H10 124.4 . .
N5 C10 H10 124.4 . .
N5 C9 N6 112.4(4) . .
N5 C9 H9 123.8 . .
N6 C9 H9 123.8 . .
C10 C11 N6 105.5(5) . .
C10 C11 H11 127.2 . .
N6 C11 H11 127.2 . .
C9 N6 C11 106.7(4) . .
C9 N6 C17 126.7(4) . .
C11 N6 C17 126.5(4) . .
O2 C1 O1 120.7(6) . .
O2 C1 C2 120.3(6) . .
O1 C1 C2 119.0(6) . .
C8 C2 C3 118.3(5) . .
C8 C2 C1 119.9(6) . .
C3 C2 C1 121.4(6) . .
N7 C3 C4 118.1(7) . .
N7 C3 C2 122.6(6) . .
C4 C3 C2 119.0(6) . .
C6 C4 C3 120.6(6) . .
C6 C4 H4 119.7 . .
C3 C4 H4 119.7 . .
O4 C5 O3 121.3(5) . .
O4 C5 C6 118.4(5) . .
O3 C5 C6 120.3(5) . .
O4 C5 Cd1 60.3(3) . 4_665
O3 C5 Cd1 61.0(3) . 4_665
C6 C5 Cd1 177.3(4) . 4_665
C7 C6 C4 120.0(5) . .
C7 C6 C5 121.0(5) . .
C4 C6 C5 118.7(5) . .
N7' C7 C6 120.8(7) . .
N7' C7 C8 118.8(8) . .
C6 C7 C8 119.6(6) . .
C2 C8 C7 121.9(6) . .
C2 C8 H8 119.1 . .
C7 C8 H8 119.1 . .
N1 C12 N2 111.9(4) . .
N1 C12 H12 124.0 . .
N2 C12 H12 124.0 . .
C14 C13 N1 109.8(5) . .
C14 C13 H13 125.1 . .
N1 C13 H13 125.1 . .
C13 C14 N2 106.9(5) . .
C13 C14 H14 126.5 . .
N2 C14 H14 126.5 . .
C16 C15 C20 121.5(4) . .
C16 C15 N2 119.6(4) . .
C20 C15 N2 118.8(4) . .
C15 C16 C17 119.3(4) . .
C15 C16 H16 120.4 . .
C17 C16 H16 120.4 . .
C18 C17 C16 121.1(4) . .
C18 C17 N6 120.2(4) . .
C16 C17 N6 118.7(4) . .
C17 C18 C19 118.3(5) . .
C17 C18 H18 120.8 . .
C19 C18 H18 120.8 . .
C20 C19 C18 121.9(4) . .
C20 C19 N3 119.3(4) . .
C18 C19 N3 118.7(4) . .
C19 C20 C15 117.7(4) . .
C19 C20 H20 121.1 . .
C15 C20 H20 121.1 . .
C22 C21 N3 105.1(4) . .
C22 C21 H21 127.4 . .
N3 C21 H21 127.4 . .
C21 C22 N4 111.1(4) . .
C21 C22 H22 124.5 . .
N4 C22 H22 124.5 . .
N4 C23 N3 106.9(4) . .
N4 C23 H23 126.6 . .
N3 C23 H23 126.6 . .
O1 Cd1 N1 131.77(14) . .
O1 Cd1 N5 85.52(14) . 5_766
N1 Cd1 N5 86.14(15) . 5_766
O1 Cd1 N4 96.28(14) . 5_776
N1 Cd1 N4 92.92(15) . 5_776
N5 Cd1 N4 178.17(15) 5_766 5_776
O1 Cd1 O4 84.90(15) . 4_664
N1 Cd1 O4 141.87(14) . 4_664
N5 Cd1 O4 87.16(13) 5_766 4_664
N4 Cd1 O4 92.61(13) 5_776 4_664
O1 Cd1 O3 139.40(15) . 4_664
N1 Cd1 O3 88.00(15) . 4_664
N5 Cd1 O3 90.29(16) 5_766 4_664
N4 Cd1 O3 88.10(15) 5_776 4_664
O4 Cd1 O3 54.53(14) 4_664 4_664
O1 Cd1 O2 51.79(15) . .
N1 Cd1 O2 81.51(15) . .
N5 Cd1 O2 93.47(19) 5_766 .
N4 Cd1 O2 87.95(18) 5_776 .
O4 Cd1 O2 136.39(14) 4_664 .
O3 Cd1 O2 168.59(17) 4_664 .
O1 Cd1 C5 111.83(16) . 4_664
N1 Cd1 C5 115.29(16) . 4_664
N5 Cd1 C5 88.30(14) 5_766 4_664
N4 Cd1 C5 90.67(13) 5_776 4_664
O4 Cd1 C5 26.95(15) 4_664 4_664
O3 Cd1 C5 27.59(14) 4_664 4_664
O2 Cd1 C5 163.19(17) . 4_664
C12 N1 C13 105.8(4) . .
C12 N1 Cd1 124.0(4) . .
C13 N1 Cd1 127.7(3) . .
C12 N2 C14 105.6(4) . .
C12 N2 C15 126.6(4) . .
C14 N2 C15 127.7(4) . .
C23 N3 C21 109.0(4) . .
C23 N3 C19 125.9(4) . .
C21 N3 C19 125.1(4) . .
C23 N4 C22 107.9(4) . .
C23 N4 Cd1 125.7(3) . 5_776
C22 N4 Cd1 126.4(3) . 5_776
C1 O1 Cd1 99.1(4) . .
C1 O2 Cd1 87.6(4) . .
C5 O3 Cd1 91.4(3) . 4_665
C5 O4 Cd1 92.8(3) . 4_665
C3 N7 H7A 120.0 . .
C3 N7 H7B 120.0 . .
H7A N7 H7B 120.0 . .
C7 N7' H7C 120.0 . .
C7 N7' H7D 120.0 . .
H7C N7' H7D 120.0 . .
loop_
_geom_bond_atom_site_label_1
_geom_bond_atom_site_label_2
_geom_bond_distance
_geom_bond_site_symmetry_2
N5 C9 1.328(6) .
N5 C10 1.376(6) .
N5 Cd1 2.341(4) 5_766
C10 C11 1.352(7) .
C10 H10 0.9300 .
C9 N6 1.346(6) .
C9 H9 0.9300 .
C11 N6 1.380(6) .
C11 H11 0.9300 .
N6 C17 1.421(5) .
C1 O2 1.208(8) .
C1 O1 1.255(7) .
C1 C2 1.506(7) .
C2 C8 1.352(8) .
C2 C3 1.421(9) .
C3 N7 1.352(14) .
C3 C4 1.397(8) .
C4 C6 1.378(9) .
C4 H4 0.9300 .
C5 O4 1.245(6) .
C5 O3 1.271(6) .
C5 C6 1.518(6) .
C5 Cd1 2.744(5) 4_665
C6 C7 1.357(7) .
C7 N7' 1.353(14) .
C7 C8 1.405(8) .
C8 H8 0.9300 .
C12 N1 1.325(6) .
C12 N2 1.351(6) .
C12 H12 0.9300 .
C13 C14 1.356(8) .
C13 N1 1.357(7) .
C13 H13 0.9300 .
C14 N2 1.381(6) .
C14 H14 0.9300 .
C15 C16 1.375(6) .
C15 C20 1.402(6) .
C15 N2 1.403(6) .
C16 C17 1.389(6) .
C16 H16 0.9300 .
C17 C18 1.383(6) .
C18 C19 1.398(6) .
C18 H18 0.9300 .
C19 C20 1.383(6) .
C19 N3 1.424(5) .
C20 H20 0.9300 .
C21 C22 1.328(7) .
C21 N3 1.403(6) .
C21 H21 0.9300 .
C22 N4 1.367(6) .
C22 H22 0.9300 .
C23 N4 1.351(5) .
C23 N3 1.372(6) .
C23 H23 0.9300 .
Cd1 O1 2.303(4) .
Cd1 N1 2.311(4) .
Cd1 N5 2.341(4) 5_766
Cd1 N4 2.366(4) 5_776
Cd1 O4 2.386(4) 4_664
Cd1 O3 2.401(5) 4_664
Cd1 O2 2.568(5) .
Cd1 C5 2.744(5) 4_664
N4 Cd1 2.366(4) 5_776
O3 Cd1 2.401(5) 4_665
O4 Cd1 2.386(4) 4_665
N7 H7A 0.8600 .
N7 H7B 0.8600 .
N7' H7C 0.8600 .
N7' H7D 0.8600 .
loop_
_platon_squeeze_void_nr
_platon_squeeze_void_average_x
_platon_squeeze_void_average_y
_platon_squeeze_void_average_z
_platon_squeeze_void_volume
_platon_squeeze_void_count_electrons
_platon_squeeze_void_content
1 0.757 0.007 0.250 1430 31 ' '
2 0.755 -0.009 0.750 1422 31 ' '
loop_
_refln_index_h
_refln_index_k
_refln_index_l
_refln_F_squared_calc
_refln_F_squared_meas
_refln_F_squared_sigma
_refln_observed_status
4 0 0 188949.39 195553.05 4321.55 o
6 0 0 208521.84 191161.63 6975.73 o
8 0 0 17434.72 8993.41 594.39 o
10 0 0 145003.73 125195.59 3972.18 o
12 0 0 38.13 101.46 71.79 o
14 0 0 59521.83 64576.24 2142.11 o
16 0 0 45796.62 47265.17 1593.66 o
18 0 0 5.48 1.91 103.37 o
20 0 0 2394.22 2368.95 265.13 o
22 0 0 9731.09 10328.64 670.96 o
24 0 0 415.03 393.39 142.62 o
26 0 0 2151.53 1536.23 361.80 o
28 0 0 2036.14 1862.62 378.08 o
30 0 0 117.55 128.26 337.88 o
1 1 0 1359.62 833.68 24.89 o
3 1 0 20338.53 23157.36 413.49 o
5 1 0 9862.62 8348.29 67.00 o
7 1 0 25544.97 27752.65 938.01 o
9 1 0 1913.28 1820.50 133.04 o
11 1 0 4935.89 4847.02 160.80 o
13 1 0 1377.27 1085.41 109.12 o
15 1 0 586.57 535.05 65.09 o
17 1 0 8.56 4.79 72.74 o
19 1 0 28.81 0.00 73.70 o
21 1 0 699.77 589.61 99.54 o
23 1 0 331.38 185.69 124.43 o
25 1 0 6.95 0.96 138.79 o
27 1 0 270.75 97.63 253.65 o
29 1 0 25.91 22.01 223.97 o
31 1 0 0.08 5.74 235.46 o
0 2 0 971074.13 1105519.25 15302.96 o
2 2 0 44309.42 54805.62 821.24 o
4 2 0 4604.80 5114.07 309.16 o
6 2 0 35148.67 30439.38 647.04 o
8 2 0 5613.07 6563.20 313.95 o
10 2 0 35841.82 33654.45 742.75 o
12 2 0 9061.97 8534.93 413.49 o
14 2 0 4555.88 4915.94 214.40 o
16 2 0 24305.94 25831.64 719.78 o
18 2 0 1878.49 2124.88 156.97 o
20 2 0 1654.36 1553.46 154.10 o
22 2 0 8479.30 7945.33 320.65 o
24 2 0 1666.37 1393.61 157.93 o
26 2 0 3805.02 3400.76 302.46 o
28 2 0 1629.68 2092.34 275.66 o
30 2 0 100.22 38.29 223.02 o
1 3 0 1810.06 2461.80 98.59 o
3 3 0 84687.03 106286.09 4849.89 o
5 3 0 3906.73 5029.84 141.66 o
7 3 0 183.52 175.16 62.21 o
9 3 0 832.18 677.66 30.63 o
11 3 0 1740.35 2243.57 100.50 o
13 3 0 7621.13 7282.02 186.64 o
15 3 0 421.55 374.25 64.13 o
17 3 0 386.40 344.58 62.21 o
19 3 0 5260.99 5589.77 254.60 o
21 3 0 237.48 117.73 122.52 o
23 3 0 755.01 693.94 142.62 o
25 3 0 1550.42 1410.84 176.12 o
27 3 0 275.01 251.73 139.74 o
29 3 0 370.76 405.83 236.42 o
0 4 0 584973.44 540316.69 35669.26 o
2 4 0 104396.91 95090.27 2811.16 o
4 4 0 1691.53 2051.18 139.74 o
6 4 0 58635.34 45816.04 1411.80 o
8 4 0 398.77 292.89 24.89 o
10 4 0 44255.11 38318.66 1023.20 o
12 4 0 1404.17 1676.93 58.39 o
14 4 0 17417.31 18560.15 415.40 o
16 4 0 20384.87 21220.08 658.52 o
18 4 0 1029.86 667.14 138.79 o
20 4 0 4541.39 4875.74 309.16 o
22 4 0 5719.22 5900.85 255.56 o
24 4 0 1454.80 1061.48 154.10 o
26 4 0 1985.70 1619.50 179.94 o
28 4 0 506.33 389.56 160.80 o
30 4 0 82.01 117.73 305.33 o
1 5 0 26054.62 27377.45 535.05 o
3 5 0 150012.42 145966.77 2534.54 o
5 5 0 4183.13 3648.67 169.42 o
7 5 0 9479.31 8289.90 212.49 o
9 5 0 15892.86 14938.29 517.82 o
11 5 0 908.72 890.15 94.76 o
13 5 0 27965.03 26851.97 811.67 o
15 5 0 6476.53 6351.67 221.10 o
17 5 0 2154.89 1941.11 158.89 o
19 5 0 8418.53 8196.10 308.20 o
21 5 0 76.30 19.14 123.47 o
23 5 0 1659.23 1554.42 168.46 o
25 5 0 2848.00 3059.06 211.53 o
27 5 0 282.76 72.74 305.33 o
29 5 0 1028.08 1007.88 180.90 o
0 6 0 175869.83 160636.09 5240.41 o
2 6 0 54166.63 42998.18 1042.34 o
4 6 0 1343.26 1720.96 57.43 o
6 6 0 21816.24 21303.35 435.50 o
8 6 0 926.24 1513.26 103.37 o
10 6 0 20806.17 20445.74 633.64 o
12 6 0 2350.15 2231.12 227.80 o
14 6 0 5543.67 5847.25 242.16 o
16 6 0 7746.18 8342.54 311.07 o
18 6 0 1980.58 2023.42 154.10 o
20 6 0 2147.07 2315.35 180.90 o
22 6 0 2287.70 1910.48 184.73 o
24 6 0 217.48 42.11 136.87 o
26 6 0 580.60 449.86 150.27 o
28 6 0 525.31 344.58 159.84 o
1 7 0 22269.69 19312.47 735.09 o
3 7 0 77857.68 72375.12 2489.55 o
5 7 0 1595.86 1220.37 85.19 o
7 7 0 15713.95 14473.11 410.62 o
9 7 0 8656.64 7474.41 206.75 o
11 7 0 1662.13 1431.90 106.24 o
13 7 0 16638.54 16650.63 621.19 o
15 7 0 5248.57 4956.14 268.96 o
17 7 0 2338.72 2478.07 168.46 o
19 7 0 4695.43 4047.80 335.00 o
21 7 0 31.35 3.83 134.00 o
23 7 0 1352.76 1262.48 140.70 o
25 7 0 2924.63 3141.38 253.65 o
27 7 0 52.64 60.30 156.02 o
0 8 0 23101.16 22864.47 1663.53 o
2 8 0 5678.03 4953.27 237.37 o
4 8 0 1308.88 1211.76 95.72 o
6 8 0 2162.78 1886.55 105.29 o
8 8 0 65.97 42.11 49.77 o
10 8 0 4683.83 4083.21 145.49 o
12 8 0 738.83 546.53 165.59 o
14 8 0 497.71 516.86 101.46 o
16 8 0 306.94 360.85 123.47 o
18 8 0 235.00 200.04 121.56 o
20 8 0 315.85 393.39 130.17 o
22 8 0 11.28 7.66 98.59 o
24 8 0 14.99 0.00 107.20 o
26 8 0 9.66 0.96 155.06 o
1 9 0 20022.10 20626.64 484.32 o
3 9 0 70168.87 68944.68 2359.38 o
5 9 0 8158.64 8019.98 216.32 o
7 9 0 17171.49 17577.15 469.00 o
9 9 0 6248.32 7360.51 216.32 o
11 9 0 6027.21 5968.81 184.73 o
13 9 0 14931.20 14162.04 458.48 o
15 9 0 3324.65 3461.06 182.82 o
17 9 0 5346.02 5133.21 248.86 o
19 9 0 6659.13 6264.57 268.00 o
21 9 0 213.12 80.40 167.50 o
23 9 0 1511.02 1470.19 289.06 o
25 9 0 2253.04 2261.75 213.45 o
0 10 0 2506.74 3898.48 129.22 o
2 10 0 1396.05 1573.56 112.94 o
4 10 0 1069.03 896.85 118.69 o
6 10 0 267.82 274.70 75.62 o
8 10 0 556.83 687.24 86.14 o
10 10 0 39.38 77.53 67.00 o
12 10 0 143.46 170.37 101.46 o
14 10 0 735.46 680.54 119.64 o
16 10 0 230.52 193.34 115.82 o
18 10 0 0.56 18.19 111.03 o
20 10 0 330.39 203.87 164.63 o
22 10 0 0.07 5.74 212.49 o
24 10 0 0.86 2.87 151.23 o
1 11 0 645.68 687.24 74.66 o
3 11 0 12014.97 12279.32 403.92 o
5 11 0 10214.21 9915.15 343.62 o
7 11 0 7452.36 7144.19 267.05 o
9 11 0 15729.17 16103.14 436.46 o
11 11 0 1.06 6.70 147.40 o
13 11 0 10382.51 10209.95 358.93 o
15 11 0 10597.69 11458.08 411.58 o
17 11 0 1537.85 1512.30 173.24 o
19 11 0 6413.03 6667.53 389.56 o
21 11 0 80.41 39.24 119.64 o
23 11 0 2650.08 2914.53 290.97 o
0 12 0 2549.02 2267.50 245.03 o
2 12 0 703.55 415.40 120.60 o
4 12 0 1225.98 1630.03 124.43 o
6 12 0 2203.73 1898.03 138.79 o
8 12 0 0.24 12.44 77.53 o
10 12 0 576.61 617.36 117.73 o
12 12 0 601.64 584.82 114.86 o
14 12 0 317.34 225.89 113.90 o
16 12 0 1685.23 1778.39 169.42 o
18 12 0 114.93 20.10 198.13 o
20 12 0 218.25 153.14 136.87 o
22 12 0 386.50 143.57 147.40 o
1 13 0 3989.27 4365.57 156.97 o
3 13 0 20780.88 22826.18 533.13 o
5 13 0 4015.57 3226.56 192.39 o
7 13 0 8897.71 9529.42 387.65 o
9 13 0 6474.37 6606.27 320.65 o
11 13 0 1098.39 1056.70 134.96 o
13 13 0 6562.50 6308.60 335.96 o
15 13 0 2859.00 2753.73 237.37 o
17 13 0 2219.41 2017.68 187.60 o
19 13 0 3860.33 3420.86 335.96 o
21 13 0 123.38 18.19 178.99 o
0 14 0 3056.15 2892.52 229.72 o
2 14 0 462.55 372.33 81.36 o
4 14 0 2162.24 2589.10 140.70 o
6 14 0 3428.86 3321.32 191.43 o
8 14 0 109.23 142.62 177.07 o
10 14 0 2831.57 2993.97 277.57 o
12 14 0 1684.93 1369.69 206.75 o
14 14 0 554.51 372.33 166.54 o
16 14 0 2207.45 1647.26 193.34 o
18 14 0 21.30 7.66 121.56 o
1 15 0 1119.53 1124.65 181.86 o
3 15 0 4060.09 3739.60 221.10 o
5 15 0 178.13 247.90 79.44 o
7 15 0 1820.32 1646.30 155.06 o
9 15 0 1405.63 1108.38 146.44 o
11 15 0 57.58 16.27 161.76 o
13 15 0 1939.97 1680.76 178.99 o
15 15 0 1094.63 1183.04 172.29 o
17 15 0 610.86 360.85 230.67 o
0 16 0 5365.47 5012.61 458.48 o
2 16 0 970.41 950.45 167.50 o
4 16 0 2246.55 2190.92 502.51 o
6 16 0 5823.80 5335.17 316.82 o
8 16 0 76.98 18.19 111.99 o
10 16 0 3767.22 3366.31 289.06 o
12 16 0 1360.36 1341.93 190.47 o
14 16 0 458.93 364.68 147.40 o
1 17 0 795.24 971.51 173.24 o
3 17 0 1520.94 1972.69 235.46 o
5 17 0 25.17 121.56 184.73 o
7 17 0 752.27 907.38 182.82 o
9 17 0 381.91 224.93 150.27 o
0 18 0 7289.04 7573.95 643.21 o
2 18 0 1414.45 1474.02 218.23 o
1 1 1 58516.09 56789.80 246.95 o
2 1 1 39644.87 39203.07 837.51 o
3 1 1 24705.14 25779.96 633.64 o
4 1 1 124913.62 113587.25 1330.44 o
5 1 1 39489.02 42245.86 526.43 o
6 1 1 964.04 1214.63 66.04 o
7 1 1 10130.99 12088.84 175.16 o
8 1 1 54350.58 48987.09 867.18 o
9 1 1 23257.86 24589.26 497.72 o
10 1 1 3575.86 3447.66 74.66 o
11 1 1 6834.08 8020.94 165.59 o
12 1 1 20430.36 18624.28 309.16 o
13 1 1 31097.99 29729.17 479.53 o
14 1 1 19287.25 19234.95 316.82 o
15 1 1 11859.60 11587.29 187.60 o
16 1 1 1694.71 2057.88 67.96 o
17 1 1 4149.07 4111.93 115.82 o
18 1 1 13672.76 13972.52 292.89 o
19 1 1 5509.56 6530.65 177.07 o
20 1 1 3137.74 3065.76 114.86 o
21 1 1 122.55 139.74 59.34 o
22 1 1 766.55 834.64 70.83 o
23 1 1 5035.62 5763.98 186.64 o
24 1 1 2933.92 3755.87 178.99 o
25 1 1 1411.97 1352.46 179.94 o
26 1 1 204.42 307.25 153.14 o
27 1 1 2.83 19.14 149.32 o
28 1 1 578.76 565.68 160.80 o
29 1 1 761.61 742.75 175.16 o
30 1 1 826.37 905.47 180.90 o
31 1 1 303.10 493.89 177.07 o
0 2 1 2759.53 3887.96 34.46 o
1 2 1 23141.54 29503.28 223.02 o
2 2 1 4592.05 3601.77 30.63 o
3 2 1 82.60 131.13 27.76 o
4 2 1 2066.32 3049.49 140.70 o
5 2 1 1725.06 1469.23 47.86 o
6 2 1 1273.05 1580.26 28.71 o
7 2 1 4634.78 3847.75 87.10 o
8 2 1 340.45 264.17 41.16 o
9 2 1 2273.95 2166.99 74.66 o
10 2 1 3092.38 3194.98 80.40 o
11 2 1 2431.35 1851.13 101.46 o
12 2 1 3119.18 3001.63 84.23 o
13 2 1 87.78 73.70 54.56 o
14 2 1 823.33 722.65 48.81 o
15 2 1 5648.29 5642.42 141.66 o
16 2 1 1348.49 1329.49 82.32 o
17 2 1 706.30 569.51 51.69 o
18 2 1 97.30 120.60 44.99 o
19 2 1 723.38 805.92 61.26 o
20 2 1 1397.06 1391.70 77.53 o
21 2 1 845.17 830.81 94.76 o
22 2 1 222.02 156.02 89.02 o
23 2 1 26.08 54.56 88.06 o
24 2 1 12.19 31.59 89.97 o
25 2 1 189.72 146.44 92.84 o
26 2 1 286.31 311.07 112.94 o
27 2 1 185.80 202.92 118.69 o
28 2 1 37.12 1.91 146.44 o
29 2 1 31.79 45.94 159.84 o
30 2 1 15.90 64.13 166.54 o
1 3 1 41994.60 40425.36 1007.88 o
2 3 1 81484.94 78051.04 782.95 o
3 3 1 38500.44 39313.14 615.45 o
4 3 1 33031.83 26058.49 569.51 o
5 3 1 6858.46 9567.70 216.32 o
6 3 1 2491.39 2808.29 110.07 o
7 3 1 12432.59 12177.86 231.63 o
8 3 1 24167.30 19057.87 355.10 o
9 3 1 7590.72 7345.19 131.13 o
10 3 1 594.56 513.99 24.89 o
11 3 1 9569.24 10457.85 187.60 o
12 3 1 13953.80 12884.24 210.57 o
13 3 1 17723.43 16318.50 293.85 o
14 3 1 9617.96 9127.41 173.24 o
15 3 1 3069.74 2850.40 80.40 o
16 3 1 54.39 52.64 40.20 o
17 3 1 2233.60 2171.78 106.24 o
18 3 1 7322.00 7282.98 197.17 o
19 3 1 2626.21 2823.60 120.60 o
20 3 1 1316.95 1093.07 88.06 o
21 3 1 2.18 0.96 77.53 o
22 3 1 444.66 444.12 88.06 o
23 3 1 3567.98 3604.64 154.10 o
24 3 1 2480.20 2672.37 138.79 o
25 3 1 1433.23 1524.74 118.69 o
26 3 1 547.93 573.33 103.37 o
27 3 1 11.73 20.10 116.77 o
28 3 1 543.40 629.81 127.30 o
29 3 1 661.51 788.69 170.37 o
30 3 1 939.91 1187.83 189.52 o
0 4 1 7869.20 6702.94 133.04 o
1 4 1 72407.86 75673.48 1878.89 o
2 4 1 9871.42 9493.04 128.26 o
3 4 1 270.60 361.80 33.50 o
4 4 1 15475.82 15597.76 179.94 o
5 4 1 11498.42 11244.63 263.22 o
6 4 1 4673.29 4753.22 134.00 o
7 4 1 6971.45 6604.35 146.44 o
8 4 1 660.35 536.01 75.62 o
9 4 1 12745.30 12284.10 194.30 o
10 4 1 8875.44 8766.56 159.84 o
11 4 1 2535.01 1838.69 67.96 o
12 4 1 2604.75 2558.47 72.74 o
13 4 1 122.92 205.79 31.59 o
14 4 1 1532.16 1350.54 52.64 o
15 4 1 5302.77 5194.47 121.56 o
16 4 1 1443.13 1287.37 95.72 o
17 4 1 1172.42 855.69 111.99 o
18 4 1 539.97 508.25 85.19 o
19 4 1 0.95 13.40 67.00 o
20 4 1 709.06 580.03 81.36 o
21 4 1 383.38 389.56 82.32 o
22 4 1 291.07 127.30 89.97 o
23 4 1 2.37 1.91 84.23 o
24 4 1 126.51 130.17 93.80 o
25 4 1 24.90 30.63 92.84 o
26 4 1 177.86 131.13 103.37 o
27 4 1 144.61 81.36 134.96 o
28 4 1 189.35 113.90 122.52 o
29 4 1 270.39 279.49 135.92 o
30 4 1 0.09 0.96 127.30 o
1 5 1 17077.90 16581.72 204.83 o
2 5 1 52742.58 54562.50 1094.03 o
3 5 1 34874.94 36498.16 536.01 o
4 5 1 3910.53 2989.19 59.34 o
5 5 1 1479.14 2382.35 102.42 o
6 5 1 3881.12 4350.26 68.92 o
7 5 1 4403.95 4159.79 134.96 o
8 5 1 6166.76 5418.44 121.56 o
9 5 1 3403.73 3179.66 99.54 o
10 5 1 172.75 130.17 30.63 o
11 5 1 5281.23 6256.91 154.10 o
12 5 1 5306.24 5092.05 148.36 o
13 5 1 11899.21 11660.04 261.30 o
14 5 1 4955.00 5150.44 158.89 o
15 5 1 1281.26 1291.20 89.02 o
16 5 1 30.59 12.44 71.79 o
17 5 1 608.07 497.72 82.32 o
18 5 1 1559.45 1584.09 111.03 o
19 5 1 1727.72 1737.23 99.54 o
20 5 1 630.41 565.68 85.19 o
21 5 1 0.23 0.00 72.74 o
22 5 1 2.61 0.00 76.57 o
23 5 1 1358.08 1222.28 115.82 o
24 5 1 621.57 636.51 105.29 o
25 5 1 634.05 564.72 104.33 o
26 5 1 325.88 256.52 102.42 o
27 5 1 0.04 15.31 102.42 o
28 5 1 242.84 209.62 111.03 o
29 5 1 355.51 468.05 139.74 o
0 6 1 33059.64 38218.16 1563.03 o
1 6 1 81373.36 75550.95 1313.21 o
2 6 1 9882.84 12362.59 341.70 o
3 6 1 1970.78 1646.30 68.92 o
4 6 1 20597.53 20401.71 426.89 o
5 6 1 25639.54 25348.28 396.26 o
6 6 1 23925.93 24229.37 347.45 o
7 6 1 30657.66 32236.91 594.39 o
8 6 1 73.92 79.44 34.46 o
9 6 1 14217.75 14788.01 268.96 o
10 6 1 22569.58 22171.49 580.03 o
11 6 1 18813.15 18289.28 402.96 o
12 6 1 8249.89 8362.65 249.82 o
13 6 1 85.89 57.43 61.26 o
14 6 1 2734.52 2489.55 110.07 o
15 6 1 12842.82 12350.14 279.49 o
16 6 1 6866.94 7343.28 223.02 o
17 6 1 6683.47 6816.84 190.47 o
18 6 1 474.56 533.13 91.89 o
19 6 1 141.57 111.99 85.19 o
20 6 1 3530.19 3497.44 138.79 o
21 6 1 5637.17 6388.04 183.77 o
22 6 1 1888.84 1661.62 111.99 o
23 6 1 343.79 331.17 97.63 o
24 6 1 0.31 2.87 90.93 o
25 6 1 1406.99 1424.24 133.04 o
26 6 1 894.85 982.04 159.84 o
27 6 1 640.89 571.42 117.73 o
28 6 1 285.51 293.85 148.36 o
29 6 1 77.20 4.79 113.90 o
1 7 1 1786.17 1621.42 105.29 o
2 7 1 6985.46 6986.26 174.20 o
3 7 1 9669.92 8784.75 206.75 o
4 7 1 2240.96 2143.07 57.43 o
5 7 1 2912.55 3889.87 99.54 o
6 7 1 112.87 102.42 20.10 o
7 7 1 51.40 52.64 29.67 o
8 7 1 4282.60 3885.08 110.07 o
9 7 1 3386.88 3155.73 83.27 o
10 7 1 5138.42 5013.57 117.73 o
11 7 1 29.97 50.73 35.41 o
12 7 1 814.42 569.51 56.47 o
13 7 1 4856.42 4547.43 193.34 o
14 7 1 5030.21 4718.76 191.43 o
15 7 1 1481.40 1490.29 103.37 o
16 7 1 492.46 442.20 80.40 o
17 7 1 45.61 77.53 75.62 o
18 7 1 1600.29 1242.38 101.46 o
19 7 1 2175.32 2158.38 130.17 o
20 7 1 2357.73 2261.75 113.90 o
21 7 1 8.46 0.00 71.79 o
22 7 1 26.24 6.70 77.53 o
23 7 1 1146.57 995.44 103.37 o
24 7 1 1550.26 1352.46 119.64 o
25 7 1 651.10 759.02 140.70 o
26 7 1 153.92 80.40 114.86 o
27 7 1 0.03 0.96 125.39 o
28 7 1 196.50 239.29 113.90 o
0 8 1 11787.42 13323.57 317.77 o
1 8 1 33527.95 30660.48 817.41 o
2 8 1 1862.19 2598.67 54.56 o
3 8 1 26.17 7.66 32.54 o
4 8 1 4509.32 3885.08 79.44 o
5 8 1 6293.44 5909.46 134.00 o
6 8 1 8767.28 7992.23 143.57 o
7 8 1 8944.87 9498.79 149.32 o
8 8 1 17.93 4.79 29.67 o
9 8 1 6542.63 6433.98 135.92 o
10 8 1 10691.69 10158.26 213.45 o
11 8 1 10046.04 9704.57 235.46 o
12 8 1 5505.98 5609.87 208.66 o
13 8 1 97.67 30.63 40.20 o
14 8 1 731.49 826.98 80.40 o
15 8 1 7269.26 6942.23 200.04 o
16 8 1 5318.92 5869.26 175.16 o
17 8 1 3701.52 4046.84 158.89 o
18 8 1 411.39 351.28 85.19 o
19 8 1 4.97 0.96 85.19 o
20 8 1 1823.33 1789.88 111.03 o
21 8 1 2619.62 2986.32 159.84 o
22 8 1 1580.99 1476.89 110.07 o
23 8 1 215.78 268.96 91.89 o
24 8 1 8.31 34.46 86.14 o
25 8 1 1358.23 1368.73 127.30 o
26 8 1 857.92 1110.30 124.43 o
27 8 1 548.90 599.18 123.47 o
1 9 1 1381.37 1416.59 53.60 o
2 9 1 376.71 524.52 67.00 o
3 9 1 2997.89 3090.65 123.47 o
4 9 1 577.66 913.12 44.99 o
5 9 1 1.54 1.91 32.54 o
6 9 1 857.66 910.25 38.29 o
7 9 1 59.44 163.67 48.81 o
8 9 1 756.01 752.32 52.64 o
9 9 1 19.39 51.69 43.07 o
10 9 1 123.05 156.02 42.11 o
11 9 1 753.57 812.62 60.30 o
12 9 1 212.98 353.19 73.70 o
13 9 1 522.02 585.78 78.49 o
14 9 1 3.00 10.53 75.62 o
15 9 1 11.19 13.40 73.70 o
16 9 1 112.56 90.93 74.66 o
17 9 1 50.15 33.50 78.49 o
18 9 1 85.16 109.12 80.40 o
19 9 1 20.97 20.10 76.57 o
20 9 1 194.62 137.83 79.44 o
21 9 1 55.00 40.20 83.27 o
22 9 1 0.30 3.83 81.36 o
23 9 1 137.84 120.60 89.02 o
24 9 1 184.42 223.02 85.19 o
25 9 1 44.69 52.64 108.16 o
26 9 1 0.08 0.00 106.24 o
0 10 1 23869.22 26297.78 730.31 o
1 10 1 36442.92 35942.05 555.15 o
2 10 1 2480.31 2734.59 109.12 o
3 10 1 955.61 964.81 67.96 o
4 10 1 6639.44 6505.77 178.99 o
5 10 1 6878.63 6915.43 145.49 o
6 10 1 9882.56 9956.30 243.12 o
7 10 1 4736.43 5198.30 138.79 o
8 10 1 171.06 157.93 46.90 o
9 10 1 3417.90 3797.03 110.07 o
10 10 1 8670.23 9071.89 179.94 o
11 10 1 7109.07 6987.22 193.34 o
12 10 1 2684.48 2888.69 120.60 o
13 10 1 132.17 81.36 70.83 o
14 10 1 1062.96 1140.93 92.84 o
15 10 1 7657.66 7560.55 203.87 o
16 10 1 4902.11 5459.60 183.77 o
17 10 1 3381.45 3635.27 143.57 o
18 10 1 199.73 143.57 109.12 o
19 10 1 1.29 5.74 76.57 o
20 10 1 1429.97 1634.82 153.14 o
21 10 1 2320.98 2671.41 132.09 o
22 10 1 1873.47 2012.89 186.64 o
23 10 1 781.77 826.02 157.93 o
24 10 1 3.49 2.87 105.29 o
25 10 1 709.70 733.18 100.50 o
1 11 1 27.77 16.27 33.50 o
2 11 1 363.34 254.60 45.94 o
3 11 1 1.05 7.66 40.20 o
4 11 1 1673.45 1794.66 91.89 o
5 11 1 84.18 89.97 56.47 o
6 11 1 0.66 1.91 52.64 o
7 11 1 1193.95 964.81 78.49 o
8 11 1 393.87 541.75 61.26 o
9 11 1 722.12 614.49 81.36 o
10 11 1 77.06 97.63 55.51 o
11 11 1 197.75 234.50 68.92 o
12 11 1 7.52 0.96 68.92 o
13 11 1 89.09 108.16 101.46 o
14 11 1 794.44 862.39 111.99 o
15 11 1 277.20 347.45 86.14 o
16 11 1 22.84 30.63 84.23 o
17 11 1 24.80 34.46 75.62 o
18 11 1 112.39 110.07 118.69 o
19 11 1 48.39 51.69 82.32 o
20 11 1 1.55 24.89 86.14 o
21 11 1 38.08 31.59 93.80 o
22 11 1 4.40 0.96 93.80 o
23 11 1 0.95 0.00 101.46 o
24 11 1 59.66 0.96 116.77 o
0 12 1 20655.06 20323.23 425.93 o
1 12 1 30249.74 29109.89 472.83 o
2 12 1 1395.37 1508.47 92.84 o
3 12 1 5323.26 5349.53 163.67 o
4 12 1 9628.49 9198.24 246.95 o
5 12 1 13989.62 13225.94 335.96 o
6 12 1 9325.93 8541.63 207.70 o
7 12 1 2637.76 3015.99 118.69 o
8 12 1 539.30 595.35 67.00 o
9 12 1 7067.15 6996.79 173.24 o
10 12 1 8546.53 8394.23 221.10 o
11 12 1 7789.60 7310.73 195.26 o
12 12 1 2044.95 2031.08 116.77 o
13 12 1 90.67 5.74 77.53 o
14 12 1 595.29 647.04 89.97 o
15 12 1 4968.34 4805.86 172.29 o
16 12 1 2546.50 2522.10 142.62 o
17 12 1 1195.06 1072.97 130.17 o
18 12 1 64.61 6.70 129.22 o
19 12 1 1.35 21.06 89.97 o
20 12 1 787.48 738.92 121.56 o
21 12 1 1171.83 963.85 153.14 o
22 12 1 1168.37 922.70 114.86 o
23 12 1 627.68 609.71 119.64 o
1 13 1 305.49 455.60 50.73 o
2 13 1 1901.18 1908.56 81.36 o
3 13 1 1257.98 1560.16 96.67 o
4 13 1 2813.41 2767.13 112.94 o
5 13 1 51.21 34.46 50.73 o
6 13 1 103.59 227.80 65.09 o
7 13 1 1649.70 1428.07 92.84 o
8 13 1 474.82 590.56 74.66 o
9 13 1 300.00 266.09 89.97 o
10 13 1 134.07 11.49 85.19 o
11 13 1 113.42 134.00 71.79 o
12 13 1 740.79 763.81 93.80 o
13 13 1 552.34 412.53 87.10 o
14 13 1 502.10 456.56 85.19 o
15 13 1 47.32 46.90 84.23 o
16 13 1 37.39 77.53 120.60 o
17 13 1 231.14 134.00 105.29 o
18 13 1 404.29 122.52 108.16 o
19 13 1 252.13 18.19 141.66 o
20 13 1 99.96 5.74 128.26 o
21 13 1 26.07 0.00 98.59 o
0 14 1 3516.09 3797.03 262.26 o
1 14 1 4622.86 4293.79 137.83 o
2 14 1 629.93 679.58 71.79 o
3 14 1 175.25 163.67 52.64 o
4 14 1 753.44 675.75 71.79 o
5 14 1 828.79 983.00 75.62 o
6 14 1 1815.02 1611.85 94.76 o
7 14 1 1633.60 1855.92 99.54 o
8 14 1 27.00 2.87 68.92 o
9 14 1 882.83 875.79 99.54 o
10 14 1 1499.32 1673.10 121.56 o
11 14 1 1882.15 1568.77 127.30 o
12 14 1 928.71 904.51 111.03 o
13 14 1 216.32 115.82 117.73 o
14 14 1 104.21 46.90 191.43 o
15 14 1 1616.22 1306.51 131.13 o
16 14 1 1428.04 1376.39 140.70 o
17 14 1 1095.48 969.60 131.13 o
18 14 1 199.51 9.57 110.07 o
19 14 1 86.40 1.91 116.77 o
1 15 1 219.65 346.49 77.53 o
2 15 1 1756.17 1846.35 129.22 o
3 15 1 980.03 1460.62 96.67 o
4 15 1 2217.05 2256.01 126.34 o
5 15 1 9.47 8.61 60.30 o
6 15 1 72.62 112.94 62.21 o
7 15 1 1208.37 1145.71 117.73 o
8 15 1 995.29 1036.60 114.86 o
9 15 1 1175.48 1022.24 119.64 o
10 15 1 468.78 609.71 108.16 o
11 15 1 43.15 10.53 85.19 o
12 15 1 416.13 607.79 111.03 o
13 15 1 908.15 983.95 135.92 o
14 15 1 1736.63 1678.85 159.84 o
15 15 1 547.98 402.96 120.60 o
16 15 1 88.19 0.00 118.69 o
17 15 1 151.10 135.92 123.47 o
0 16 1 1692.64 1313.21 196.22 o
1 16 1 1489.26 1607.06 155.06 o
2 16 1 346.69 397.22 88.06 o
3 16 1 6.88 10.53 78.49 o
4 16 1 620.75 521.65 108.16 o
5 16 1 1107.36 1023.20 96.67 o
6 16 1 1163.60 936.10 133.04 o
7 16 1 1344.44 1446.26 149.32 o
8 16 1 0.34 0.00 94.76 o
9 16 1 1157.22 1200.27 223.02 o
10 16 1 960.78 961.94 146.44 o
11 16 1 1286.96 1177.30 136.87 o
12 16 1 344.17 273.75 96.67 o
13 16 1 13.59 2.87 108.16 o
14 16 1 191.17 110.07 95.72 o
1 17 1 701.51 677.66 122.52 o
2 17 1 4187.38 3816.17 216.32 o
3 17 1 1877.70 1875.06 168.46 o
4 17 1 1846.74 1919.09 156.97 o
5 17 1 9.79 50.73 129.22 o
6 17 1 850.38 1175.38 209.62 o
7 17 1 1826.09 1515.17 140.70 o
8 17 1 1451.03 1444.34 149.32 o
9 17 1 1205.81 968.64 151.23 o
10 17 1 282.59 240.25 104.33 o
0 18 1 421.88 458.48 183.77 o
1 18 1 168.38 295.76 119.64 o
2 18 1 71.01 107.20 102.42 o
0 0 2 167619.19 148742.53 3865.94 o
1 0 2 371642.59 407951.06 4142.56 o
2 0 2 21193.95 18317.99 49.77 o
3 0 2 92319.00 80156.77 607.79 o
4 0 2 19054.03 20968.35 670.01 o
5 0 2 282367.31 287738.34 6386.12 o
6 0 2 22.51 70.83 174.20 o
7 0 2 14332.37 15632.22 194.30 o
8 0 2 39.10 360.85 126.34 o
9 0 2 113178.56 108784.26 2169.87 o
10 0 2 2834.68 3978.88 159.84 o
11 0 2 106038.10 98939.95 2162.21 o
12 0 2 579.34 544.62 43.07 o
13 0 2 1353.74 2037.78 101.46 o
14 0 2 1592.74 1628.12 102.42 o
15 0 2 28554.58 25076.45 595.35 o
16 0 2 787.86 696.81 160.80 o
17 0 2 16489.21 16494.62 463.26 o
18 0 2 2.25 21.06 128.26 o
19 0 2 982.64 671.92 117.73 o
20 0 2 411.04 644.16 124.43 o
21 0 2 11412.80 11277.18 315.86 o
22 0 2 492.10 794.44 149.32 o
23 0 2 4508.83 4125.33 229.72 o
24 0 2 0.10 5.74 82.32 o
25 0 2 570.04 726.48 223.97 o
26 0 2 0.64 60.30 213.45 o
27 0 2 2224.82 2047.35 275.66 o
28 0 2 91.25 93.80 221.10 o
29 0 2 200.97 148.36 232.59 o
30 0 2 7.52 13.40 235.46 o
31 0 2 747.34 750.41 249.82 o
1 1 2 3425.38 4478.52 78.49 o
2 1 2 5291.32 4672.82 379.03 o
3 1 2 4398.59 4421.09 30.63 o
4 1 2 1891.07 1595.57 27.76 o
5 1 2 344.22 210.57 40.20 o
6 1 2 18318.62 19646.52 404.88 o
7 1 2 885.45 1200.27 75.62 o
8 1 2 10897.25 10142.95 88.06 o
9 1 2 0.11 0.00 30.63 o
10 1 2 284.04 205.79 22.01 o
11 1 2 2.79 2.87 24.89 o
12 1 2 1658.22 1362.99 41.16 o
13 1 2 310.42 379.99 41.16 o
14 1 2 199.58 146.44 28.71 o
15 1 2 1.16 16.27 30.63 o
16 1 2 150.93 143.57 41.16 o
17 1 2 103.52 92.84 46.90 o
18 1 2 13.33 0.00 36.37 o
19 1 2 2.03 0.00 49.77 o
20 1 2 142.77 84.23 55.51 o
21 1 2 0.13 0.00 58.39 o
22 1 2 476.84 384.78 72.74 o
23 1 2 35.50 4.79 96.67 o
24 1 2 109.19 2.87 82.32 o
25 1 2 2.73 0.00 78.49 o
26 1 2 29.41 5.74 141.66 o
27 1 2 52.48 2.87 149.32 o
28 1 2 78.90 27.76 149.32 o
29 1 2 1.74 1.91 157.93 o
30 1 2 15.60 10.53 159.84 o
0 2 2 17393.93 14313.26 696.81 o
1 2 2 1989.25 4597.21 244.07 o
2 2 2 21380.36 21594.33 283.32 o
3 2 2 22835.61 23386.12 563.76 o
4 2 2 255.61 210.57 24.89 o
5 2 2 14425.79 13140.75 205.79 o
6 2 2 244.59 481.45 58.39 o
7 2 2 15711.36 14018.46 216.32 o
8 2 2 1040.57 1071.05 20.10 o
9 2 2 13644.56 14991.89 227.80 o
10 2 2 2104.22 2532.63 57.43 o
11 2 2 80580.08 76936.91 1091.15 o
12 2 2 989.90 523.56 41.16 o
13 2 2 10796.19 10455.94 168.46 o
14 2 2 53.65 60.30 30.63 o
15 2 2 5437.51 3995.16 106.24 o
16 2 2 435.56 372.33 44.99 o
17 2 2 15716.93 15745.17 312.99 o
18 2 2 65.21 104.33 44.99 o
19 2 2 82.53 14.36 44.03 o
20 2 2 105.53 212.49 55.51 o
21 2 2 9988.04 10185.06 259.39 o
22 2 2 631.30 925.57 118.69 o
23 2 2 2315.64 2251.22 146.44 o
24 2 2 165.47 115.82 101.46 o
25 2 2 1816.15 1996.62 149.32 o
26 2 2 35.35 102.42 93.80 o
27 2 2 2628.71 2985.36 254.60 o
28 2 2 7.41 49.77 160.80 o
29 2 2 134.27 213.45 160.80 o
30 2 2 13.95 44.03 162.72 o
1 3 2 2239.08 2547.94 22.97 o
2 3 2 9365.95 7260.96 27.76 o
3 3 2 6279.79 6188.95 50.73 o
4 3 2 3172.57 2993.97 19.14 o
5 3 2 1142.49 1188.78 57.43 o
6 3 2 789.78 797.31 105.29 o
7 3 2 86.22 69.87 25.84 o
8 3 2 1973.99 2220.59 84.23 o
9 3 2 547.25 384.78 22.97 o
10 3 2 84.83 170.37 31.59 o
11 3 2 559.93 501.55 29.67 o
12 3 2 1498.33 1346.71 51.69 o
13 3 2 376.19 250.77 38.29 o
14 3 2 6489.38 6222.45 128.26 o
15 3 2 48.31 16.27 36.37 o
16 3 2 62.30 63.17 36.37 o
17 3 2 127.19 67.96 53.60 o
18 3 2 2165.55 2018.64 89.02 o
19 3 2 213.53 236.42 71.79 o
20 3 2 3489.95 3344.29 122.52 o
21 3 2 52.14 67.00 83.27 o
22 3 2 66.38 91.89 85.19 o
23 3 2 105.20 101.46 90.93 o
24 3 2 1648.45 1337.14 115.82 o
25 3 2 139.64 138.79 111.03 o
26 3 2 230.27 178.03 113.90 o
27 3 2 151.05 112.94 92.84 o
28 3 2 226.51 349.36 110.07 o
29 3 2 10.88 70.83 153.14 o
30 3 2 259.66 284.27 171.33 o
0 4 2 61.37 93.80 57.43 o
1 4 2 21415.29 22664.42 113.90 o
2 4 2 6604.77 6215.75 143.57 o
3 4 2 10863.14 9597.37 134.00 o
4 4 2 432.59 1055.74 74.66 o
5 4 2 35148.06 36074.14 485.28 o
6 4 2 2102.81 2219.64 79.44 o
7 4 2 15760.81 10989.07 482.41 o
8 4 2 53.72 141.66 30.63 o
9 4 2 22467.80 23640.72 377.12 o
10 4 2 2399.11 2548.90 73.70 o
11 4 2 51236.52 46761.70 773.38 o
12 4 2 6.10 66.04 30.63 o
13 4 2 341.81 224.93 38.29 o
14 4 2 22.27 55.51 42.11 o
15 4 2 14013.21 13010.58 269.92 o
16 4 2 146.60 253.65 66.04 o
17 4 2 9143.00 9227.91 208.66 o
18 4 2 172.15 234.50 69.87 o
19 4 2 1012.46 1084.45 87.10 o
20 4 2 21.24 38.29 69.87 o
21 4 2 9143.21 9002.98 227.80 o
22 4 2 506.84 710.21 102.42 o
23 4 2 951.96 849.95 139.74 o
24 4 2 184.63 107.20 95.72 o
25 4 2 1019.64 992.57 112.94 o
26 4 2 0.83 6.70 110.07 o
27 4 2 1093.76 962.90 137.83 o
28 4 2 2.74 5.74 97.63 o
29 4 2 20.90 23.93 101.46 o
30 4 2 0.44 29.67 166.54 o
1 5 2 4497.10 5483.53 196.22 o
2 5 2 33544.00 35177.29 820.28 o
3 5 2 8053.98 8346.37 254.60 o
4 5 2 16110.56 16033.27 461.35 o
5 5 2 23.59 47.86 22.97 o
6 5 2 993.40 1127.53 43.07 o
7 5 2 111.23 88.06 25.84 o
8 5 2 27825.49 26950.56 511.12 o
9 5 2 33.80 31.59 36.37 o
10 5 2 5087.36 4639.32 101.46 o
11 5 2 5.12 0.96 31.59 o
12 5 2 7487.36 6845.56 127.30 o
13 5 2 358.83 398.18 46.90 o
14 5 2 23978.53 23615.83 494.85 o
15 5 2 265.51 250.77 67.00 o
16 5 2 707.31 651.82 76.57 o
17 5 2 193.07 155.06 64.13 o
18 5 2 5599.59 5110.24 160.80 o
19 5 2 17.62 103.37 74.66 o
20 5 2 5075.65 4731.21 156.02 o
21 5 2 25.81 31.59 74.66 o
22 5 2 418.06 332.13 82.32 o
23 5 2 1.77 14.36 92.84 o
24 5 2 3748.53 3696.52 165.59 o
25 5 2 244.16 424.02 110.07 o
26 5 2 382.06 359.89 103.37 o
27 5 2 38.28 1.91 113.90 o
28 5 2 505.46 545.58 136.87 o
29 5 2 42.58 219.19 109.12 o
0 6 2 2448.22 2659.93 142.62 o
1 6 2 18630.95 25079.32 769.55 o
2 6 2 3424.82 3381.62 75.62 o
3 6 2 3300.71 2111.48 60.30 o
4 6 2 833.96 1286.41 45.94 o
5 6 2 22129.54 23005.17 435.50 o
6 6 2 1637.04 1988.96 61.26 o
7 6 2 8958.13 8674.68 173.24 o
8 6 2 689.01 818.37 37.33 o
9 6 2 12311.28 13151.28 245.03 o
10 6 2 1424.32 1849.22 93.80 o
11 6 2 27360.98 25761.77 496.76 o
12 6 2 561.52 422.10 51.69 o
13 6 2 454.76 490.06 73.70 o
14 6 2 218.48 197.17 69.87 o
15 6 2 5793.02 5687.40 165.59 o
16 6 2 431.40 381.90 81.36 o
17 6 2 4240.36 4276.56 147.40 o
18 6 2 437.77 359.89 75.62 o
19 6 2 135.15 98.59 73.70 o
20 6 2 3.15 39.24 78.49 o
21 6 2 3991.34 3781.71 145.49 o
22 6 2 306.64 194.30 89.97 o
23 6 2 535.56 354.15 97.63 o
24 6 2 71.01 21.06 93.80 o
25 6 2 160.78 181.86 101.46 o
26 6 2 3.42 2.87 105.29 o
27 6 2 523.55 560.89 119.64 o
28 6 2 1.96 0.96 127.30 o
29 6 2 92.69 136.87 133.04 o
1 7 2 658.81 563.76 45.94 o
2 7 2 31646.81 37303.13 498.68 o
3 7 2 2988.11 2871.46 57.43 o
4 7 2 9716.33 10580.37 109.12 o
5 7 2 0.45 0.00 22.97 o
6 7 2 6214.81 6348.79 113.90 o
7 7 2 57.85 78.49 21.06 o
8 7 2 29117.64 27822.52 456.56 o
9 7 2 1.52 44.99 46.90 o
10 7 2 1881.20 1697.99 88.06 o
11 7 2 86.64 59.34 38.29 o
12 7 2 8752.95 8994.37 242.16 o
13 7 2 133.29 159.84 98.59 o
14 7 2 15437.86 15198.63 411.58 o
15 7 2 530.84 453.69 83.27 o
16 7 2 274.61 158.89 67.96 o
17 7 2 194.63 246.95 72.74 o
18 7 2 4275.03 4499.58 145.49 o
19 7 2 30.53 26.80 75.62 o
20 7 2 2808.16 2787.23 125.39 o
21 7 2 3.14 1.91 79.44 o
22 7 2 395.99 382.86 85.19 o
23 7 2 26.09 73.70 85.19 o
24 7 2 3787.32 3950.17 173.24 o
25 7 2 261.55 455.60 109.12 o
26 7 2 545.76 501.55 134.00 o
27 7 2 0.45 0.96 166.54 o
28 7 2 498.22 653.74 142.62 o
0 8 2 2812.41 3351.95 156.97 o
1 8 2 289.38 324.47 34.46 o
2 8 2 3673.63 4486.18 117.73 o
3 8 2 2558.13 2278.02 78.49 o
4 8 2 2.62 5.74 32.54 o
5 8 2 4485.29 3636.22 71.79 o
6 8 2 4.32 4.79 30.63 o
7 8 2 1202.18 1027.98 49.77 o
8 8 2 3.67 12.44 32.54 o
9 8 2 2871.84 2737.46 93.80 o
10 8 2 109.76 249.82 55.51 o
11 8 2 7438.39 6963.29 156.02 o
12 8 2 41.54 82.32 50.73 o
13 8 2 314.44 294.80 82.32 o
14 8 2 344.14 501.55 76.57 o
15 8 2 109.64 47.86 62.21 o
16 8 2 0.09 5.74 66.04 o
17 8 2 192.04 133.04 69.87 o
18 8 2 5.02 0.96 68.92 o
19 8 2 5.60 2.87 70.83 o
20 8 2 33.97 55.51 81.36 o
21 8 2 331.78 243.12 87.10 o
22 8 2 19.33 42.11 82.32 o
23 8 2 21.21 3.83 81.36 o
24 8 2 2.37 8.61 87.10 o
25 8 2 0.18 0.96 100.50 o
26 8 2 135.81 158.89 174.20 o
27 8 2 122.01 53.60 188.56 o
1 9 2 1.04 5.74 33.50 o
2 9 2 39094.00 41846.73 891.11 o
3 9 2 2045.18 2121.05 113.90 o
4 9 2 18135.28 17905.46 474.75 o
5 9 2 370.06 335.00 35.41 o
6 9 2 2495.23 3153.82 72.74 o
7 9 2 708.82 763.81 48.81 o
8 9 2 22454.72 21752.26 431.68 o
9 9 2 43.63 27.76 47.86 o
10 9 2 178.97 120.60 44.03 o
11 9 2 108.18 112.94 54.56 o
12 9 2 11867.64 11683.97 271.83 o
13 9 2 127.12 187.60 71.79 o
14 9 2 11830.30 11676.31 275.66 o
15 9 2 330.56 433.59 74.66 o
16 9 2 49.78 104.33 68.92 o
17 9 2 165.40 173.24 75.62 o
18 9 2 6942.03 7331.79 201.00 o
19 9 2 181.04 240.25 78.49 o
20 9 2 3197.74 2947.07 134.96 o
21 9 2 0.22 0.00 79.44 o
22 9 2 240.20 227.80 89.97 o
23 9 2 1.72 63.17 96.67 o
24 9 2 3146.62 3515.62 208.66 o
25 9 2 130.36 303.42 145.49 o
26 9 2 507.29 491.98 138.79 o
0 10 2 767.48 893.02 60.30 o
1 10 2 2.97 41.16 38.29 o
2 10 2 1346.77 1735.32 60.30 o
3 10 2 35.50 57.43 36.37 o
4 10 2 295.26 332.13 48.81 o
5 10 2 295.57 354.15 39.24 o
6 10 2 2.51 2.87 56.47 o
7 10 2 79.87 97.63 48.81 o
8 10 2 67.50 126.34 51.69 o
9 10 2 105.66 174.20 51.69 o
10 10 2 122.21 162.72 52.64 o
11 10 2 151.64 164.63 67.96 o
12 10 2 41.02 76.57 67.96 o
13 10 2 344.95 325.43 67.96 o
14 10 2 11.97 23.93 65.09 o
15 10 2 144.16 123.47 69.87 o
16 10 2 47.59 125.39 104.33 o
17 10 2 35.44 8.61 70.83 o
18 10 2 6.05 1.91 73.70 o
19 10 2 100.41 22.01 75.62 o
20 10 2 0.35 1.91 97.63 o
21 10 2 146.24 82.32 86.14 o
22 10 2 15.48 0.96 91.89 o
23 10 2 1.29 6.70 89.02 o
24 10 2 7.65 2.87 123.47 o
25 10 2 5.99 0.00 160.80 o
1 11 2 1429.39 1474.97 63.17 o
2 11 2 6292.53 5875.00 113.90 o
3 11 2 23.38 80.40 42.11 o
4 11 2 6945.27 6651.26 131.13 o
5 11 2 1264.31 1234.73 74.66 o
6 11 2 34.70 1.91 50.73 o
7 11 2 402.49 397.22 59.34 o
8 11 2 20738.89 19296.20 379.03 o
9 11 2 619.12 638.42 57.43 o
10 11 2 5786.09 5436.63 138.79 o
11 11 2 15.93 7.66 59.34 o
12 11 2 3823.72 4023.87 134.00 o
13 11 2 43.30 128.26 67.96 o
14 11 2 16914.42 17138.78 359.89 o
15 11 2 879.83 898.77 90.93 o
16 11 2 728.83 778.17 86.14 o
17 11 2 3.54 8.61 85.19 o
18 11 2 4855.23 5204.04 178.03 o
19 11 2 412.92 424.02 95.72 o
20 11 2 2424.21 2488.60 144.53 o
21 11 2 0.33 0.96 92.84 o
22 11 2 770.48 701.59 151.23 o
23 11 2 36.99 44.03 139.74 o
24 11 2 3065.10 3373.01 248.86 o
0 12 2 4596.55 5222.23 200.04 o
1 12 2 3358.26 3923.37 111.03 o
2 12 2 1132.60 1218.46 65.09 o
3 12 2 101.85 55.51 50.73 o
4 12 2 109.76 151.23 60.30 o
5 12 2 2354.19 2601.54 116.77 o
6 12 2 233.19 294.80 67.00 o
7 12 2 705.60 716.91 73.70 o
8 12 2 11.72 0.00 49.77 o
9 12 2 361.34 290.97 76.57 o
10 12 2 32.80 73.70 74.66 o
11 12 2 438.82 362.76 77.53 o
12 12 2 11.93 16.27 72.74 o
13 12 2 26.38 22.97 73.70 o
14 12 2 261.68 347.45 86.14 o
15 12 2 1629.11 1435.73 112.94 o
16 12 2 105.31 77.53 88.06 o
17 12 2 742.22 594.39 100.50 o
18 12 2 6.61 0.96 91.89 o
19 12 2 35.29 1.91 101.46 o
20 12 2 32.92 0.96 127.30 o
21 12 2 409.14 181.86 115.82 o
22 12 2 9.58 0.00 119.64 o
23 12 2 200.94 68.92 130.17 o
1 13 2 232.40 171.33 45.94 o
2 13 2 13937.91 14245.31 317.77 o
3 13 2 239.57 326.39 69.87 o
4 13 2 8440.76 8352.12 217.27 o
5 13 2 292.37 218.23 62.21 o
6 13 2 383.13 424.02 69.87 o
7 13 2 592.58 483.36 69.87 o
8 13 2 12878.49 12605.71 280.45 o
9 13 2 236.55 208.66 75.62 o
10 13 2 676.75 518.78 87.10 o
11 13 2 4.52 4.79 72.74 o
12 13 2 3843.33 3929.11 153.14 o
13 13 2 52.18 91.89 84.23 o
14 13 2 7353.80 7023.59 208.66 o
15 13 2 409.86 305.33 89.97 o
16 13 2 3.23 7.66 86.14 o
17 13 2 26.55 1.91 90.93 o
18 13 2 3175.33 3184.45 197.17 o
19 13 2 202.63 186.64 101.46 o
20 13 2 1625.29 1543.89 156.02 o
21 13 2 0.21 1.91 111.99 o
0 14 2 1157.98 1202.18 147.40 o
1 14 2 2132.02 2375.65 125.39 o
2 14 2 216.85 134.00 60.30 o
3 14 2 12.63 12.44 54.56 o
4 14 2 14.62 10.53 66.04 o
5 14 2 4243.67 4029.61 161.76 o
6 14 2 48.02 30.63 60.30 o
7 14 2 820.56 783.91 82.32 o
8 14 2 0.08 1.91 76.57 o
9 14 2 1507.26 1404.14 112.94 o
10 14 2 2.15 5.74 81.36 o
11 14 2 2803.05 2877.20 147.40 o
12 14 2 2.07 1.91 85.19 o
13 14 2 109.95 46.90 82.32 o
14 14 2 47.79 0.00 117.73 o
15 14 2 1866.73 1838.69 147.40 o
16 14 2 101.97 77.53 115.82 o
17 14 2 843.90 797.31 120.60 o
18 14 2 11.13 0.00 152.19 o
19 14 2 256.29 24.89 116.77 o
1 15 2 0.38 0.00 73.70 o
2 15 2 3265.72 3192.10 161.76 o
3 15 2 23.29 14.36 61.26 o
4 15 2 1309.98 1117.95 81.36 o
5 15 2 39.54 3.83 65.09 o
6 15 2 151.87 121.56 65.09 o
7 15 2 155.79 158.89 88.06 o
8 15 2 3328.17 3049.49 174.20 o
9 15 2 49.93 35.41 89.02 o
10 15 2 127.34 199.09 105.29 o
11 15 2 24.26 6.70 89.97 o
12 15 2 846.92 944.71 122.52 o
13 15 2 69.98 118.69 109.12 o
14 15 2 2382.36 1872.19 167.50 o
15 15 2 218.28 123.47 115.82 o
16 15 2 4.21 0.96 175.16 o
17 15 2 41.67 0.00 113.90 o
0 16 2 706.79 675.75 257.47 o
1 16 2 3836.94 4237.32 245.99 o
2 16 2 202.36 141.66 90.93 o
3 16 2 57.82 8.61 102.42 o
4 16 2 14.19 4.79 82.32 o
5 16 2 6368.96 6596.70 199.09 o
6 16 2 426.15 352.23 104.33 o
7 16 2 1189.69 1284.50 127.30 o
8 16 2 0.35 0.96 114.86 o
9 16 2 1670.83 1407.01 137.83 o
10 16 2 146.10 47.86 103.37 o
11 16 2 3407.80 3041.83 192.39 o
12 16 2 2.31 0.96 104.33 o
13 16 2 72.50 0.96 144.53 o
14 16 2 47.29 0.00 135.92 o
1 17 2 71.12 111.03 97.63 o
2 17 2 1434.27 1612.80 161.76 o
3 17 2 5.24 0.00 95.72 o
4 17 2 323.83 182.82 108.16 o
5 17 2 205.52 315.86 224.93 o
6 17 2 165.82 334.05 224.93 o
7 17 2 52.53 188.56 146.44 o
8 17 2 1002.99 1145.71 153.14 o
9 17 2 1.26 0.96 133.04 o
10 17 2 22.35 2.87 147.40 o
0 18 2 390.38 418.28 170.37 o
1 18 2 5118.81 5117.90 251.73 o
1 1 3 37682.07 40143.96 558.02 o
2 1 3 50695.34 53807.31 872.92 o
3 1 3 124.65 144.53 15.31 o
4 1 3 944.50 1800.40 51.69 o
5 1 3 33276.59 30949.54 420.19 o
6 1 3 73.13 104.33 26.80 o
7 1 3 17356.17 15864.81 260.35 o
8 1 3 11015.57 8864.19 186.64 o
9 1 3 53243.63 48123.74 666.18 o
10 1 3 10829.15 11627.50 143.57 o
11 1 3 73.49 96.67 26.80 o
12 1 3 5781.27 5888.40 86.14 o
13 1 3 24286.51 22237.54 330.22 o
14 1 3 10047.13 12233.37 247.90 o
15 1 3 17530.58 19326.83 311.07 o
16 1 3 9.03 41.16 44.99 o
17 1 3 4799.78 4484.26 193.34 o
18 1 3 1609.96 2047.35 103.37 o
19 1 3 11188.11 10822.53 217.27 o
20 1 3 3048.99 3221.78 104.33 o
21 1 3 2512.48 2719.27 119.64 o
22 1 3 131.30 126.34 57.43 o
23 1 3 4368.77 4737.91 184.73 o
24 1 3 1480.61 1560.16 113.90 o
25 1 3 1200.65 1325.66 110.07 o
26 1 3 149.25 192.39 149.32 o
27 1 3 27.15 67.96 143.57 o
28 1 3 179.29 169.42 156.97 o
29 1 3 1248.19 1095.94 179.94 o
30 1 3 418.42 859.52 173.24 o
0 2 3 1099.45 775.29 33.50 o
1 2 3 2961.22 3474.47 82.32 o
2 2 3 3331.74 3445.75 62.21 o
3 2 3 2613.87 3643.88 98.59 o
4 2 3 5057.86 4694.83 74.66 o
5 2 3 27.22 42.11 20.10 o
6 2 3 3858.93 3320.36 64.13 o
7 2 3 756.03 934.18 46.90 o
8 2 3 111.46 109.12 20.10 o
9 2 3 245.66 313.95 22.01 o
10 2 3 6310.44 5830.02 91.89 o
11 2 3 2635.53 2460.84 56.47 o
12 2 3 2670.82 2373.74 66.04 o
13 2 3 217.93 184.73 32.54 o
14 2 3 1243.05 1296.94 62.21 o
15 2 3 81.79 110.07 36.37 o
16 2 3 2342.28 2412.03 76.57 o
17 2 3 454.96 436.46 47.86 o
18 2 3 35.67 78.49 44.03 o
19 2 3 12.46 33.50 44.99 o
20 2 3 1979.98 1965.99 91.89 o
21 2 3 550.26 581.95 111.03 o
22 2 3 252.81 160.80 80.40 o
23 2 3 52.12 51.69 77.53 o
24 2 3 3.74 11.49 83.27 o
25 2 3 202.97 221.10 90.93 o
26 2 3 391.46 403.92 97.63 o
27 2 3 122.26 74.66 85.19 o
28 2 3 75.75 122.52 156.02 o
29 2 3 36.66 89.97 160.80 o
30 2 3 23.60 0.00 163.67 o
1 3 3 31476.24 32097.17 702.55 o
2 3 3 22462.56 23476.09 300.55 o
3 3 3 3895.19 3853.50 84.23 o
4 3 3 517.19 347.45 20.10 o
5 3 3 3871.14 3280.16 46.90 o
6 3 3 1913.10 2376.61 56.47 o
7 3 3 16373.01 13996.45 134.96 o
8 3 3 14262.46 12910.08 200.04 o
9 3 3 24375.88 21529.24 374.25 o
10 3 3 1141.79 1302.69 78.49 o
11 3 3 1243.33 1199.31 36.37 o
12 3 3 4798.49 4707.28 103.37 o
13 3 3 12924.03 10954.62 226.85 o
14 3 3 2012.05 2289.51 68.92 o
15 3 3 5670.27 5917.12 116.77 o
16 3 3 2.52 1.91 30.63 o
17 3 3 3181.46 2763.30 98.59 o
18 3 3 397.93 461.35 61.26 o
19 3 3 6817.43 6512.47 177.07 o
20 3 3 2035.67 2189.97 104.33 o
21 3 3 1373.27 1300.77 104.33 o
22 3 3 307.64 187.60 101.46 o
23 3 3 3504.50 3172.96 166.54 o
24 3 3 996.95 1299.81 120.60 o
25 3 3 1610.12 1662.57 147.40 o
26 3 3 58.38 158.89 92.84 o
27 3 3 20.16 1.91 84.23 o
28 3 3 70.49 140.70 91.89 o
29 3 3 1248.63 1346.71 191.43 o
30 3 3 246.43 453.69 177.07 o
0 4 3 4565.97 4550.30 49.77 o
1 4 3 2298.76 3005.46 102.42 o
2 4 3 6160.49 5004.00 65.09 o
3 4 3 36.51 40.20 17.23 o
4 4 3 19023.61 17248.85 252.69 o
5 4 3 5114.71 4352.17 89.97 o
6 4 3 10051.96 8704.35 157.93 o
7 4 3 36.07 25.84 23.93 o
8 4 3 205.89 220.15 18.19 o
9 4 3 2.51 6.70 22.97 o
10 4 3 13352.12 12200.83 229.72 o
11 4 3 4935.62 4859.47 108.16 o
12 4 3 3809.13 3306.96 70.83 o
13 4 3 289.56 224.93 32.54 o
14 4 3 1092.87 902.60 44.03 o
15 4 3 548.72 499.63 44.03 o
16 4 3 2721.07 2447.44 89.97 o
17 4 3 1145.58 990.65 88.06 o
18 4 3 811.40 814.54 82.32 o
19 4 3 108.62 185.69 71.79 o
20 4 3 658.79 709.25 84.23 o
21 4 3 364.76 324.47 78.49 o
22 4 3 237.24 55.51 88.06 o
23 4 3 440.11 446.03 114.86 o
24 4 3 271.56 230.67 116.77 o
25 4 3 31.14 0.96 111.03 o
26 4 3 174.71 234.50 96.67 o
27 4 3 459.92 326.39 141.66 o
28 4 3 315.07 464.22 108.16 o
29 4 3 9.57 55.51 102.42 o
30 4 3 5.79 25.84 117.73 o
1 5 3 19059.88 20906.13 275.66 o
2 5 3 11804.09 12955.06 270.87 o
3 5 3 7512.43 7630.42 125.39 o
4 5 3 7557.65 6573.73 133.04 o
5 5 3 434.59 602.05 31.59 o
6 5 3 507.57 960.98 53.60 o
7 5 3 6691.07 6157.36 133.04 o
8 5 3 14864.62 13816.50 248.86 o
9 5 3 7305.77 7121.22 141.66 o
10 5 3 664.36 864.31 46.90 o
11 5 3 1154.15 1048.08 45.94 o
12 5 3 6011.62 6139.18 117.73 o
13 5 3 5209.99 4698.66 111.99 o
14 5 3 2276.67 2598.67 138.79 o
15 5 3 1566.85 1542.93 92.84 o
16 5 3 4.16 0.96 57.43 o
17 5 3 286.14 309.16 69.87 o
18 5 3 1150.06 1271.10 91.89 o
19 5 3 2220.04 2361.30 109.12 o
20 5 3 2116.38 2129.67 112.94 o
21 5 3 1047.71 915.04 90.93 o
22 5 3 597.10 381.90 93.80 o
23 5 3 549.95 400.09 103.37 o
24 5 3 504.34 456.56 100.50 o
25 5 3 547.63 578.12 124.43 o
26 5 3 2.80 1.91 112.94 o
27 5 3 8.40 1.91 126.34 o
28 5 3 83.01 158.89 101.46 o
29 5 3 572.76 711.16 131.13 o
0 6 3 22329.26 21553.17 714.99 o
1 6 3 13808.64 15786.33 243.12 o
2 6 3 9192.08 9412.64 219.19 o
3 6 3 1668.37 2055.96 38.29 o
4 6 3 20760.91 18833.90 287.15 o
5 6 3 22539.94 24661.04 400.09 o
6 6 3 42241.17 41046.54 661.39 o
7 6 3 5.23 18.19 24.89 o
8 6 3 893.03 916.00 39.24 o
9 6 3 1530.76 2138.28 65.09 o
10 6 3 30845.90 29110.85 457.52 o
11 6 3 9104.46 9575.36 196.22 o
12 6 3 16925.45 15816.00 391.48 o
13 6 3 194.87 190.47 54.56 o
14 6 3 2087.77 1906.65 96.67 o
15 6 3 2489.83 2742.24 113.90 o
16 6 3 14276.40 13926.57 302.46 o
17 6 3 1368.44 1430.94 89.97 o
18 6 3 1643.96 1493.16 97.63 o
19 6 3 390.38 365.63 76.57 o
20 6 3 5510.25 5531.39 170.37 o
21 6 3 469.60 758.07 93.80 o
22 6 3 3685.43 3344.29 147.40 o
23 6 3 224.52 291.93 96.67 o
24 6 3 6.85 11.49 92.84 o
25 6 3 44.76 8.61 111.03 o
26 6 3 1571.12 1605.15 153.14 o
27 6 3 743.39 781.99 195.26 o
28 6 3 422.00 568.55 119.64 o
29 6 3 0.10 4.79 125.39 o
1 7 3 4255.18 4613.48 132.09 o
2 7 3 1678.16 1895.16 49.77 o
3 7 3 4820.30 4221.04 118.69 o
4 7 3 2020.79 1523.79 44.03 o
5 7 3 820.87 673.84 33.50 o
6 7 3 48.34 71.79 26.80 o
7 7 3 596.82 673.84 26.80 o
8 7 3 1930.13 1820.50 69.87 o
9 7 3 10877.51 10462.64 199.09 o
10 7 3 1122.24 1388.83 62.21 o
11 7 3 447.67 599.18 59.34 o
12 7 3 582.59 507.29 72.74 o
13 7 3 3890.27 3137.55 134.96 o
14 7 3 712.64 778.17 78.49 o
15 7 3 2534.79 2538.37 110.07 o
16 7 3 109.96 99.54 68.92 o
17 7 3 134.68 70.83 69.87 o
18 7 3 526.39 598.22 84.23 o
19 7 3 4437.12 4334.95 155.06 o
20 7 3 692.31 729.35 89.97 o
21 7 3 822.09 785.82 94.76 o
22 7 3 275.30 331.17 88.06 o
23 7 3 1154.54 910.25 100.50 o
24 7 3 73.64 92.84 100.50 o
25 7 3 706.24 604.92 134.96 o
26 7 3 39.99 95.72 131.13 o
27 7 3 11.22 55.51 127.30 o
28 7 3 0.14 0.96 111.03 o
0 8 3 13742.71 11817.01 228.76 o
1 8 3 3300.77 3297.39 111.99 o
2 8 3 1067.07 937.05 53.60 o
3 8 3 100.66 63.17 27.76 o
4 8 3 13921.77 12794.26 208.66 o
5 8 3 7509.56 8750.29 171.33 o
6 8 3 17953.00 16031.35 272.79 o
7 8 3 447.11 590.56 36.37 o
8 8 3 119.86 126.34 34.46 o
9 8 3 405.88 506.33 53.60 o
10 8 3 19010.31 17378.07 352.23 o
11 8 3 6387.79 7137.49 162.72 o
12 8 3 8539.48 7708.91 178.99 o
13 8 3 744.78 799.22 65.09 o
14 8 3 1107.71 973.42 77.53 o
15 8 3 1572.12 1857.83 95.72 o
16 8 3 8115.34 8085.07 195.26 o
17 8 3 3113.59 3023.65 131.13 o
18 8 3 598.18 557.06 85.19 o
19 8 3 194.50 153.14 75.62 o
20 8 3 2460.70 2166.04 119.64 o
21 8 3 708.89 935.14 96.67 o
22 8 3 1990.51 2111.48 122.52 o
23 8 3 205.98 227.80 91.89 o
24 8 3 17.57 1.91 118.69 o
25 8 3 120.00 52.64 106.24 o
26 8 3 1357.54 1497.94 153.14 o
27 8 3 748.84 906.42 152.19 o
1 9 3 444.45 512.08 39.24 o
2 9 3 3261.96 3812.34 112.94 o
3 9 3 74.51 141.66 43.07 o
4 9 3 601.86 692.02 59.34 o
5 9 3 761.37 994.48 49.77 o
6 9 3 857.69 778.17 44.99 o
7 9 3 15.99 42.11 30.63 o
8 9 3 286.25 240.25 44.03 o
9 9 3 357.62 329.26 54.56 o
10 9 3 6.63 4.79 45.94 o
11 9 3 4.20 1.91 49.77 o
12 9 3 517.52 526.43 67.96 o
13 9 3 0.82 26.80 62.21 o
14 9 3 0.18 0.96 63.17 o
15 9 3 9.58 3.83 61.26 o
16 9 3 14.85 7.66 63.17 o
17 9 3 315.19 170.37 74.66 o
18 9 3 84.53 2.87 71.79 o
19 9 3 78.41 52.64 91.89 o
20 9 3 3.44 0.00 75.62 o
21 9 3 106.15 101.46 93.80 o
22 9 3 56.17 102.42 107.20 o
23 9 3 63.23 27.76 89.97 o
24 9 3 43.14 1.91 91.89 o
25 9 3 18.34 2.87 123.47 o
26 9 3 17.18 20.10 153.14 o
0 10 3 23209.83 20991.32 563.76 o
1 10 3 6498.58 6620.63 118.69 o
2 10 3 1715.84 1421.37 76.57 o
3 10 3 304.57 357.98 40.20 o
4 10 3 11525.77 11564.32 203.87 o
5 10 3 11162.51 12214.23 242.16 o
6 10 3 14156.15 13592.53 308.20 o
7 10 3 1397.42 1606.10 78.49 o
8 10 3 2.46 5.74 44.99 o
9 10 3 2929.16 3310.79 103.37 o
10 10 3 11151.44 10414.78 204.83 o
11 10 3 4167.37 4513.93 141.66 o
12 10 3 5652.36 5368.67 149.32 o
13 10 3 0.57 1.91 62.21 o
14 10 3 816.06 804.97 81.36 o
15 10 3 1396.81 1531.44 107.20 o
16 10 3 7947.42 8242.04 208.66 o
17 10 3 2185.20 2199.54 112.94 o
18 10 3 875.29 819.32 90.93 o
19 10 3 244.25 161.76 76.57 o
20 10 3 1773.57 1623.33 139.74 o
21 10 3 942.75 1056.70 120.60 o
22 10 3 3100.45 3147.12 211.53 o
23 10 3 121.09 201.00 103.37 o
24 10 3 31.55 14.36 104.33 o
25 10 3 136.02 79.44 183.77 o
1 11 3 2.76 5.74 37.33 o
2 11 3 2.25 4.79 34.46 o
3 11 3 1020.31 990.65 48.81 o
4 11 3 17.77 15.31 36.37 o
5 11 3 177.73 107.20 50.73 o
6 11 3 48.69 99.54 54.56 o
7 11 3 1045.66 996.40 79.44 o
8 11 3 485.83 943.75 74.66 o
9 11 3 701.67 615.45 67.96 o
10 11 3 38.31 112.94 55.51 o
11 11 3 63.00 102.42 67.00 o
12 11 3 0.34 0.96 68.92 o
13 11 3 564.27 542.71 85.19 o
14 11 3 350.57 474.75 91.89 o
15 11 3 592.35 651.82 90.93 o
16 11 3 7.88 10.53 78.49 o
17 11 3 54.41 0.96 82.32 o
18 11 3 0.94 4.79 84.23 o
19 11 3 74.24 2.87 89.97 o
20 11 3 24.28 17.23 89.97 o
21 11 3 0.01 0.96 134.96 o
22 11 3 5.19 1.91 134.00 o
23 11 3 66.33 1.91 140.70 o
24 11 3 76.26 0.00 136.87 o
0 12 3 31778.69 28261.86 669.05 o
1 12 3 3834.88 3924.33 114.86 o
2 12 3 1265.34 1155.28 56.47 o
3 12 3 201.68 191.43 48.81 o
4 12 3 23765.52 22297.84 458.48 o
5 12 3 8220.99 8559.82 217.27 o
6 12 3 16893.70 16024.65 354.15 o
7 12 3 1302.81 1402.23 93.80 o
8 12 3 1022.93 926.52 81.36 o
9 12 3 2787.60 3236.13 121.56 o
10 12 3 15308.90 13835.65 336.92 o
11 12 3 2749.41 2640.79 135.92 o
12 12 3 3964.74 3854.46 149.32 o
13 12 3 48.66 13.40 73.70 o
14 12 3 783.60 869.09 96.67 o
15 12 3 723.55 766.68 97.63 o
16 12 3 3863.97 3564.44 157.93 o
17 12 3 1421.65 1417.54 148.36 o
18 12 3 266.53 189.52 91.89 o
19 12 3 124.00 7.66 111.99 o
20 12 3 910.95 685.32 154.10 o
21 12 3 731.91 695.85 170.37 o
22 12 3 1771.68 1675.97 174.20 o
23 12 3 47.51 4.79 156.97 o
1 13 3 806.52 904.51 63.17 o
2 13 3 1756.69 2007.15 109.12 o
3 13 3 3270.63 3126.06 148.36 o
4 13 3 235.62 135.92 67.00 o
5 13 3 78.76 13.40 57.43 o
6 13 3 557.09 586.73 75.62 o
7 13 3 1571.60 1598.45 97.63 o
8 13 3 784.59 1094.98 90.93 o
9 13 3 200.46 226.85 80.40 o
10 13 3 18.26 2.87 75.62 o
11 13 3 326.39 385.73 82.32 o
12 13 3 368.57 283.32 83.27 o
13 13 3 1167.50 1123.70 106.24 o
14 13 3 474.77 574.29 96.67 o
15 13 3 126.56 199.09 89.02 o
16 13 3 63.07 14.36 101.46 o
17 13 3 435.70 169.42 129.22 o
18 13 3 177.61 1.91 99.54 o
19 13 3 358.49 44.99 125.39 o
20 13 3 32.18 1.91 132.09 o
21 13 3 6.00 0.00 103.37 o
0 14 3 3677.43 3115.53 289.06 o
1 14 3 1649.19 1729.58 108.16 o
2 14 3 397.69 418.28 77.53 o
3 14 3 223.02 153.14 67.00 o
4 14 3 2255.41 2067.45 123.47 o
5 14 3 1600.37 1643.43 111.03 o
6 14 3 2890.67 2462.75 134.00 o
7 14 3 409.69 347.45 78.49 o
8 14 3 21.59 45.94 82.32 o
9 14 3 245.61 269.92 91.89 o
10 14 3 2653.31 2674.29 159.84 o
11 14 3 791.80 621.19 109.12 o
12 14 3 1757.60 1733.40 140.70 o
13 14 3 141.79 87.10 88.06 o
14 14 3 56.28 27.76 90.93 o
15 14 3 640.34 748.49 126.34 o
16 14 3 2007.88 1697.99 143.57 o
17 14 3 897.14 793.48 121.56 o
18 14 3 543.39 313.95 128.26 o
19 14 3 48.96 2.87 169.42 o
1 15 3 1007.97 1153.37 114.86 o
2 15 3 610.54 637.46 109.12 o
3 15 3 2813.39 3010.25 141.66 o
4 15 3 357.53 271.83 89.97 o
5 15 3 232.84 232.59 76.57 o
6 15 3 156.82 161.76 66.04 o
7 15 3 1697.68 1538.14 120.60 o
8 15 3 967.34 1255.78 126.34 o
9 15 3 1588.09 1600.36 135.92 o
10 15 3 122.27 272.79 95.72 o
11 15 3 28.15 0.96 89.97 o
12 15 3 226.35 171.33 104.33 o
13 15 3 1695.19 1753.50 192.39 o
14 15 3 605.07 628.85 126.34 o
15 15 3 1058.37 999.27 134.00 o
16 15 3 4.18 3.83 109.12 o
17 15 3 347.22 250.77 127.30 o
0 16 3 1449.11 1246.21 183.77 o
1 16 3 1209.05 1251.96 134.00 o
2 16 3 274.51 269.92 92.84 o
3 16 3 17.84 4.79 86.14 o
4 16 3 1177.38 1210.80 111.99 o
5 16 3 698.77 907.38 106.24 o
6 16 3 2227.78 2147.85 158.89 o
7 16 3 18.59 3.83 89.97 o
8 16 3 8.16 2.87 103.37 o
9 16 3 69.69 49.77 96.67 o
10 16 3 2029.10 1959.29 158.89 o
11 16 3 290.18 134.00 112.94 o
12 16 3 963.53 1045.21 134.00 o
13 16 3 16.85 2.87 108.16 o
14 16 3 219.67 121.56 122.52 o
1 17 3 2214.56 2444.57 211.53 o
2 17 3 552.34 387.65 128.26 o
3 17 3 4307.14 4395.25 283.32 o
4 17 3 888.80 753.28 137.83 o
5 17 3 59.83 3.83 122.52 o
6 17 3 62.00 0.00 201.00 o
7 17 3 3217.22 3555.82 266.09 o
8 17 3 1522.15 1401.27 204.83 o
9 17 3 1659.78 1540.06 212.49 o
0 0 4 287169.34 299219.41 11593.99 o
1 0 4 69599.69 75042.70 1823.38 o
2 0 4 33444.23 36797.75 782.95 o
3 0 4 20346.77 25588.53 459.43 o
4 0 4 64563.05 61430.07 1439.56 o
5 0 4 45055.45 41808.44 781.99 o
6 0 4 159394.62 162309.20 3061.93 o
7 0 4 202.39 140.70 44.03 o
8 0 4 5310.04 5261.47 102.42 o
9 0 4 1077.24 815.49 120.60 o
10 0 4 59164.50 55938.89 1265.36 o
11 0 4 5470.28 6561.28 154.10 o
12 0 4 4565.34 3928.16 91.89 o
13 0 4 1725.04 1582.17 42.11 o
14 0 4 2815.40 3870.73 97.63 o
15 0 4 818.54 1184.00 112.94 o
16 0 4 19867.00 20650.58 468.05 o
17 0 4 1839.68 2061.71 101.46 o
18 0 4 3410.07 2678.11 136.87 o
19 0 4 25.34 1.91 65.09 o
20 0 4 3786.56 3817.13 151.23 o
21 0 4 458.83 491.98 87.10 o
22 0 4 7407.55 7880.24 269.92 o
23 0 4 1212.18 1564.95 157.93 o
24 0 4 23.96 6.70 97.63 o
25 0 4 0.26 0.96 193.34 o
26 0 4 1603.55 1474.02 418.28 o
27 0 4 468.74 515.91 257.47 o
28 0 4 1054.95 1010.75 249.82 o
29 0 4 58.43 59.34 223.02 o
30 0 4 233.65 324.47 236.42 o
1 1 4 128.54 87.10 28.71 o
2 1 4 12181.47 14939.24 261.30 o
3 1 4 1699.95 1483.59 44.03 o
4 1 4 8300.48 8999.15 164.63 o
5 1 4 14380.44 14877.03 263.22 o
6 1 4 2577.16 3446.71 131.13 o
7 1 4 9089.44 8631.61 99.54 o
8 1 4 445.13 478.58 36.37 o
9 1 4 1052.16 978.21 53.60 o
10 1 4 19.37 53.60 25.84 o
11 1 4 23.31 42.11 34.46 o
12 1 4 1490.86 1467.32 64.13 o
13 1 4 716.75 698.72 36.37 o
14 1 4 1.32 4.79 41.16 o
15 1 4 1.47 0.00 28.71 o
16 1 4 98.29 58.39 37.33 o
17 1 4 2.51 0.96 41.16 o
18 1 4 111.19 41.16 51.69 o
19 1 4 4.12 0.00 47.86 o
20 1 4 7.34 0.96 50.73 o
21 1 4 389.81 435.50 62.21 o
22 1 4 10.24 0.96 58.39 o
23 1 4 66.47 2.87 76.57 o
24 1 4 50.74 1.91 77.53 o
25 1 4 12.59 6.70 81.36 o
26 1 4 22.28 5.74 130.17 o
27 1 4 11.80 0.00 144.53 o
28 1 4 5.77 3.83 151.23 o
29 1 4 81.27 12.44 158.89 o
30 1 4 1.46 3.83 164.63 o
0 2 4 14853.12 10796.68 80.40 o
1 2 4 2346.72 1985.14 51.69 o
2 2 4 37.47 238.33 39.24 o
3 2 4 4620.11 6910.64 153.14 o
4 2 4 19465.12 16250.54 115.82 o
5 2 4 7352.22 5899.89 86.14 o
6 2 4 49883.30 47411.61 828.89 o
7 2 4 2036.95 1841.56 60.30 o
8 2 4 177.38 221.10 18.19 o
9 2 4 125.51 259.39 49.77 o
10 2 4 27413.38 26952.47 431.68 o
11 2 4 5732.49 5474.92 110.07 o
12 2 4 18860.26 18313.21 274.70 o
13 2 4 26.84 66.04 34.46 o
14 2 4 266.58 200.04 31.59 o
15 2 4 140.00 185.69 37.33 o
16 2 4 11704.46 11093.40 187.60 o
17 2 4 1792.24 2209.11 82.32 o
18 2 4 3023.11 2703.96 85.19 o
19 2 4 15.71 63.17 45.94 o
20 2 4 2818.64 2572.83 92.84 o
21 2 4 898.81 988.74 99.54 o
22 2 4 4078.43 4395.25 162.72 o
23 2 4 395.78 495.81 88.06 o
24 2 4 62.95 120.60 81.36 o
25 2 4 273.45 266.09 91.89 o
26 2 4 2369.88 2682.90 177.07 o
27 2 4 335.78 632.68 124.43 o
28 2 4 1176.60 1234.73 174.20 o
29 2 4 0.12 15.31 163.67 o
30 2 4 188.91 258.43 163.67 o
1 3 4 16.58 59.34 24.89 o
2 3 4 8586.11 8226.73 229.72 o
3 3 4 19713.54 19502.95 416.36 o
4 3 4 30.70 34.46 22.01 o
5 3 4 665.90 509.21 38.29 o
6 3 4 807.01 938.97 49.77 o
7 3 4 1383.70 1060.53 44.99 o
8 3 4 3466.11 3445.75 91.89 o
9 3 4 2152.39 2262.71 45.94 o
10 3 4 113.56 121.56 23.93 o
11 3 4 76.78 89.97 31.59 o
12 3 4 0.55 0.00 24.89 o
13 3 4 3714.13 3215.08 78.49 o
14 3 4 2046.28 2118.18 65.09 o
15 3 4 650.21 543.66 49.77 o
16 3 4 11.08 17.23 37.33 o
17 3 4 185.60 182.82 46.90 o
18 3 4 399.61 435.50 61.26 o
19 3 4 4206.30 4356.00 173.24 o
20 3 4 1010.58 1023.20 87.10 o
21 3 4 89.66 17.23 77.53 o
22 3 4 0.74 0.00 76.57 o
23 3 4 284.06 210.57 87.10 o
24 3 4 556.07 492.93 95.72 o
25 3 4 613.85 583.86 101.46 o
26 3 4 0.73 20.10 87.10 o
27 3 4 6.19 4.79 93.80 o
28 3 4 53.87 51.69 92.84 o
29 3 4 371.89 344.58 164.63 o
30 3 4 48.37 34.46 165.59 o
0 4 4 48200.90 45876.34 1325.66 o
1 4 4 3847.69 4288.04 171.33 o
2 4 4 4506.22 3635.27 93.80 o
3 4 4 1072.47 1258.66 96.67 o
4 4 4 29562.54 27251.10 523.56 o
5 4 4 5099.19 4144.47 119.64 o
6 4 4 19666.04 18095.93 335.96 o
7 4 4 2759.26 1897.08 55.51 o
8 4 4 639.20 464.22 34.46 o
9 4 4 545.66 323.52 27.76 o
10 4 4 15178.86 14195.54 240.25 o
11 4 4 1840.41 1833.91 64.13 o
12 4 4 9682.58 9230.78 140.70 o
13 4 4 350.72 293.85 33.50 o
14 4 4 2275.00 2364.17 67.96 o
15 4 4 785.60 897.81 53.60 o
16 4 4 10168.65 9668.20 219.19 o
17 4 4 864.41 878.67 80.40 o
18 4 4 892.75 673.84 88.06 o
19 4 4 166.39 206.75 74.66 o
20 4 4 3405.46 3430.44 146.44 o
21 4 4 626.72 695.85 95.72 o
22 4 4 1948.43 1850.18 122.52 o
23 4 4 104.54 137.83 88.06 o
24 4 4 0.77 2.87 83.27 o
25 4 4 126.06 204.83 89.97 o
26 4 4 1311.67 1245.26 119.64 o
27 4 4 76.92 140.70 123.47 o
28 4 4 583.16 631.72 111.99 o
29 4 4 2.09 2.87 104.33 o
30 4 4 258.91 344.58 201.00 o
1 5 4 730.85 721.69 43.07 o
2 5 4 12639.18 10374.58 132.09 o
3 5 4 22896.01 20510.83 328.30 o
4 5 4 11.44 21.06 18.19 o
5 5 4 844.50 975.34 30.63 o
6 5 4 13.94 34.46 22.97 o
7 5 4 12793.36 11862.95 164.63 o
8 5 4 6147.90 5406.00 79.44 o
9 5 4 24278.90 24261.91 378.08 o
10 5 4 13.60 4.79 28.71 o
11 5 4 112.41 110.07 26.80 o
12 5 4 21.05 32.54 41.16 o
13 5 4 12664.29 12203.70 231.63 o
14 5 4 2543.19 2405.33 81.36 o
15 5 4 4888.10 4933.17 144.53 o
16 5 4 11.59 6.70 58.39 o
17 5 4 120.36 60.30 68.92 o
18 5 4 115.97 99.54 69.87 o
19 5 4 9242.89 9114.97 213.45 o
20 5 4 971.35 1019.37 105.29 o
21 5 4 322.45 344.58 92.84 o
22 5 4 74.79 111.99 109.12 o
23 5 4 2065.30 1865.49 144.53 o
24 5 4 550.51 686.28 97.63 o
25 5 4 1189.80 1221.33 114.86 o
26 5 4 23.20 77.53 94.76 o
27 5 4 20.77 40.20 92.84 o
28 5 4 18.36 57.43 99.54 o
29 5 4 723.83 701.59 180.90 o
0 6 4 44170.80 41592.13 743.71 o
1 6 4 1238.00 1704.69 34.46 o
2 6 4 7981.31 7282.98 131.13 o
3 6 4 12.68 23.93 25.84 o
4 6 4 27244.49 26540.89 354.15 o
5 6 4 1921.61 2087.55 44.03 o
6 6 4 11961.01 11956.75 185.69 o
7 6 4 7148.42 7468.66 117.73 o
8 6 4 136.31 178.03 27.76 o
9 6 4 143.69 141.66 31.59 o
10 6 4 12714.47 13061.31 265.13 o
11 6 4 2679.01 2903.04 86.14 o
12 6 4 5653.21 5616.57 178.99 o
13 6 4 286.80 296.72 50.73 o
14 6 4 2524.64 2188.05 132.09 o
15 6 4 816.99 849.95 83.27 o
16 6 4 3340.75 2996.85 120.60 o
17 6 4 1449.84 1511.34 96.67 o
18 6 4 686.74 586.73 82.32 o
19 6 4 52.95 29.67 74.66 o
20 6 4 1299.82 1018.41 94.76 o
21 6 4 544.58 577.16 88.06 o
22 6 4 706.62 484.32 101.46 o
23 6 4 59.54 23.93 108.16 o
24 6 4 68.04 46.90 127.30 o
25 6 4 68.39 104.33 84.23 o
26 6 4 593.60 624.06 121.56 o
27 6 4 51.43 161.76 114.86 o
28 6 4 320.34 540.79 114.86 o
29 6 4 26.29 37.33 142.62 o
1 7 4 8884.75 7696.47 155.06 o
2 7 4 4712.21 4027.70 120.60 o
3 7 4 22564.78 19294.29 346.49 o
4 7 4 3.26 0.96 26.80 o
5 7 4 27.79 8.61 22.97 o
6 7 4 28.87 51.69 27.76 o
7 7 4 28286.95 27446.36 429.76 o
8 7 4 4699.00 4522.55 111.99 o
9 7 4 24358.07 23910.63 388.60 o
10 7 4 30.87 45.94 42.11 o
11 7 4 657.46 624.06 58.39 o
12 7 4 17.54 31.59 37.33 o
13 7 4 13048.27 11684.92 307.25 o
14 7 4 1925.19 2106.69 109.12 o
15 7 4 2572.51 2645.57 113.90 o
16 7 4 2.20 27.76 67.00 o
17 7 4 521.82 444.12 77.53 o
18 7 4 155.05 161.76 74.66 o
19 7 4 6080.75 6221.49 209.62 o
20 7 4 742.64 671.92 92.84 o
21 7 4 275.49 416.36 85.19 o
22 7 4 60.13 129.22 83.27 o
23 7 4 3046.70 3000.67 224.93 o
24 7 4 493.66 737.01 129.22 o
25 7 4 1226.36 1370.64 172.29 o
26 7 4 82.59 58.39 105.29 o
27 7 4 56.98 64.13 101.46 o
28 7 4 8.09 46.90 106.24 o
0 8 4 768.70 877.71 174.20 o
1 8 4 13.04 89.97 36.37 o
2 8 4 246.15 285.23 44.99 o
3 8 4 165.19 169.42 26.80 o
4 8 4 3186.75 2852.32 89.97 o
5 8 4 151.44 209.62 33.50 o
6 8 4 1192.70 1269.18 52.64 o
7 8 4 799.20 902.60 45.94 o
8 8 4 617.18 698.72 44.03 o
9 8 4 130.60 75.62 37.33 o
10 8 4 2523.75 2408.20 90.93 o
11 8 4 20.76 31.59 52.64 o
12 8 4 2064.48 2102.86 92.84 o
13 8 4 0.73 13.40 54.56 o
14 8 4 52.87 3.83 59.34 o
15 8 4 3.05 2.87 63.17 o
16 8 4 9.50 29.67 84.23 o
17 8 4 11.33 2.87 71.79 o
18 8 4 468.04 450.82 84.23 o
19 8 4 9.22 3.83 77.53 o
20 8 4 46.05 0.00 75.62 o
21 8 4 40.67 72.74 82.32 o
22 8 4 109.52 0.96 85.19 o
23 8 4 3.80 0.96 93.80 o
24 8 4 7.25 0.96 124.43 o
25 8 4 35.42 54.56 141.66 o
26 8 4 212.41 196.22 163.67 o
27 8 4 1.07 0.96 109.12 o
1 9 4 14309.33 14446.31 265.13 o
2 9 4 4426.20 4962.84 117.73 o
3 9 4 21049.67 20312.70 329.26 o
4 9 4 905.58 917.91 41.16 o
5 9 4 721.02 785.82 39.24 o
6 9 4 151.20 291.93 44.99 o
7 9 4 11772.12 13295.81 231.63 o
8 9 4 5403.73 5811.83 135.92 o
9 9 4 11515.80 11589.21 231.63 o
10 9 4 10.38 2.87 50.73 o
11 9 4 740.96 942.80 67.00 o
12 9 4 378.38 357.98 66.04 o
13 9 4 10985.39 10678.96 242.16 o
14 9 4 1559.29 1528.57 88.06 o
15 9 4 1721.83 1619.50 98.59 o
16 9 4 102.88 20.10 66.04 o
17 9 4 2012.48 1697.03 103.37 o
18 9 4 596.45 567.59 87.10 o
19 9 4 5241.97 4764.71 159.84 o
20 9 4 554.76 650.86 95.72 o
21 9 4 812.98 868.14 99.54 o
22 9 4 1.69 17.23 90.93 o
23 9 4 1940.65 1798.49 164.63 o
24 9 4 289.15 478.58 128.26 o
25 9 4 1260.87 989.70 259.39 o
26 9 4 41.40 70.83 122.52 o
0 10 4 47.05 39.24 47.86 o
1 10 4 410.71 590.56 43.07 o
2 10 4 176.58 125.39 32.54 o
3 10 4 42.12 30.63 35.41 o
4 10 4 495.19 477.62 44.99 o
5 10 4 66.95 71.79 39.24 o
6 10 4 77.80 55.51 34.46 o
7 10 4 166.15 192.39 49.77 o
8 10 4 728.71 753.28 62.21 o
9 10 4 112.03 124.43 56.47 o
10 10 4 21.01 39.24 51.69 o
11 10 4 1.66 1.91 56.47 o
12 10 4 86.53 116.77 63.17 o
13 10 4 175.62 150.27 66.04 o
14 10 4 482.61 517.82 85.19 o
15 10 4 181.58 119.64 80.40 o
16 10 4 23.96 9.57 81.36 o
17 10 4 0.42 2.87 80.40 o
18 10 4 27.23 44.03 79.44 o
19 10 4 44.81 22.97 86.14 o
20 10 4 62.63 0.96 90.93 o
21 10 4 0.04 0.96 93.80 o
22 10 4 18.88 0.00 90.93 o
23 10 4 9.91 4.79 136.87 o
24 10 4 29.56 15.31 133.04 o
25 10 4 0.10 6.70 121.56 o
1 11 4 9068.35 8424.86 172.29 o
2 11 4 5.21 61.26 40.20 o
3 11 4 10206.87 8504.30 175.16 o
4 11 4 470.94 569.51 52.64 o
5 11 4 133.33 145.49 53.60 o
6 11 4 377.44 313.95 62.21 o
7 11 4 9107.93 8332.02 217.27 o
8 11 4 4447.51 4752.26 144.53 o
9 11 4 17552.48 16927.25 336.92 o
10 11 4 1279.41 1318.00 87.10 o
11 11 4 95.08 150.27 71.79 o
12 11 4 2.18 3.83 72.74 o
13 11 4 12551.74 12108.94 292.89 o
14 11 4 2598.30 2668.54 138.79 o
15 11 4 4417.42 4983.90 167.50 o
16 11 4 83.78 107.20 82.32 o
17 11 4 1480.33 1065.31 111.03 o
18 11 4 698.72 581.95 161.76 o
19 11 4 3211.84 3235.18 159.84 o
20 11 4 540.76 617.36 107.20 o
21 11 4 196.94 195.26 101.46 o
22 11 4 67.70 11.49 110.07 o
23 11 4 2042.92 1885.59 168.46 o
24 11 4 284.31 221.10 159.84 o
0 12 4 1914.30 1758.29 223.97 o
1 12 4 1320.25 1119.87 61.26 o
2 12 4 1359.43 1385.96 79.44 o
3 12 4 93.14 146.44 63.17 o
4 12 4 1104.36 1069.14 79.44 o
5 12 4 1963.37 2015.76 104.33 o
6 12 4 2412.47 2479.98 114.86 o
7 12 4 18.56 37.33 60.30 o
8 12 4 35.49 36.37 62.21 o
9 12 4 575.82 538.88 73.70 o
10 12 4 1031.29 922.70 120.60 o
11 12 4 331.73 283.32 78.49 o
12 12 4 293.26 354.15 83.27 o
13 12 4 37.02 115.82 79.44 o
14 12 4 437.29 324.47 84.23 o
15 12 4 292.99 445.08 92.84 o
16 12 4 1544.06 1369.69 117.73 o
17 12 4 72.39 125.39 89.97 o
18 12 4 43.62 3.83 90.93 o
19 12 4 58.59 0.00 134.96 o
20 12 4 366.76 296.72 104.33 o
21 12 4 54.49 0.00 112.94 o
22 12 4 353.68 222.06 169.42 o
1 13 4 6067.15 6001.35 141.66 o
2 13 4 731.81 990.65 85.19 o
3 13 4 9836.78 10203.25 306.29 o
4 13 4 685.71 470.92 87.10 o
5 13 4 423.82 316.82 72.74 o
6 13 4 17.03 4.79 66.04 o
7 13 4 3837.20 3683.12 154.10 o
8 13 4 2772.62 2791.06 134.96 o
9 13 4 7308.04 6876.19 242.16 o
10 13 4 253.14 212.49 87.10 o
11 13 4 56.14 7.66 73.70 o
12 13 4 53.75 94.76 87.10 o
13 13 4 6178.22 5333.26 188.56 o
14 13 4 1108.70 1011.71 106.24 o
15 13 4 1332.84 1216.54 118.69 o
16 13 4 0.09 0.96 98.59 o
17 13 4 944.67 932.27 111.99 o
18 13 4 405.52 383.82 103.37 o
19 13 4 2306.77 2240.70 143.57 o
20 13 4 310.77 213.45 121.56 o
21 13 4 396.82 335.00 191.43 o
0 14 4 1204.31 1452.00 181.86 o
1 14 4 12.41 7.66 53.60 o
2 14 4 894.76 1028.94 83.27 o
3 14 4 0.12 1.91 55.51 o
4 14 4 1628.95 1740.10 124.43 o
5 14 4 522.13 505.38 109.12 o
6 14 4 3161.34 3003.55 158.89 o
7 14 4 57.60 61.26 71.79 o
8 14 4 19.90 17.23 78.49 o
9 14 4 161.22 199.09 90.93 o
10 14 4 2575.27 2422.55 158.89 o
11 14 4 291.69 405.83 105.29 o
12 14 4 1409.09 1416.59 136.87 o
13 14 4 10.85 1.91 81.36 o
14 14 4 424.56 439.33 100.50 o
15 14 4 106.70 172.29 100.50 o
16 14 4 1702.13 1631.95 142.62 o
17 14 4 68.57 146.44 136.87 o
18 14 4 74.13 67.00 104.33 o
19 14 4 110.78 0.96 118.69 o
1 15 4 1001.45 885.37 113.90 o
2 15 4 287.71 245.03 102.42 o
3 15 4 2648.86 2457.01 123.47 o
4 15 4 24.67 21.06 68.92 o
5 15 4 109.08 46.90 67.00 o
6 15 4 6.76 5.74 75.62 o
7 15 4 1800.70 1561.12 137.83 o
8 15 4 905.54 971.51 141.66 o
9 15 4 2373.02 2521.14 185.69 o
10 15 4 88.89 14.36 130.17 o
11 15 4 147.78 27.76 105.29 o
12 15 4 6.26 12.44 106.24 o
13 15 4 1742.58 1332.36 169.42 o
14 15 4 432.63 291.93 135.92 o
15 15 4 344.99 367.55 156.02 o
16 15 4 0.22 2.87 193.34 o
0 16 4 5123.03 4771.41 603.01 o
1 16 4 260.45 161.76 95.72 o
2 16 4 1068.67 1045.21 126.34 o
3 16 4 2.53 2.87 85.19 o
4 16 4 3493.99 3204.55 188.56 o
5 16 4 1196.08 1277.80 119.64 o
6 16 4 3902.77 3151.90 163.67 o
7 16 4 370.64 375.20 95.72 o
8 16 4 39.69 68.92 151.23 o
9 16 4 250.57 237.37 95.72 o
10 16 4 2618.80 2253.14 194.30 o
11 16 4 553.97 527.39 145.49 o
12 16 4 1600.84 1510.39 182.82 o
13 16 4 5.25 0.96 119.64 o
1 17 4 113.69 32.54 115.82 o
2 17 4 353.16 402.00 135.92 o
3 17 4 751.97 814.54 152.19 o
4 17 4 9.66 44.99 111.03 o
5 17 4 38.02 5.74 357.98 o
6 17 4 88.32 26.80 144.53 o
7 17 4 735.83 872.92 117.73 o
8 17 4 115.83 249.82 116.77 o
9 17 4 748.80 1077.75 155.06 o
1 1 5 4451.18 5246.16 103.37 o
2 1 5 41797.52 36271.31 608.75 o
3 1 5 15314.21 16694.66 268.96 o
4 1 5 87.87 123.47 23.93 o
5 1 5 3525.41 4371.32 118.69 o
6 1 5 4616.66 3412.25 64.13 o
7 1 5 5090.34 6457.91 134.00 o
8 1 5 44389.54 44137.20 617.36 o
9 1 5 5490.29 5952.53 195.26 o
10 1 5 49740.84 49115.35 728.39 o
11 1 5 294.17 386.69 28.71 o
12 1 5 16988.09 16424.74 245.99 o
13 1 5 4317.50 3907.10 170.37 o
14 1 5 21966.39 18797.53 269.92 o
15 1 5 120.64 180.90 38.29 o
16 1 5 884.48 991.61 52.64 o
17 1 5 629.89 424.98 42.11 o
18 1 5 7344.04 7282.98 175.16 o
19 1 5 1840.29 1952.59 89.97 o
20 1 5 8141.19 9184.84 190.47 o
21 1 5 6.94 1.91 54.56 o
22 1 5 334.90 268.00 68.92 o
23 1 5 489.75 595.35 88.06 o
24 1 5 3550.98 4084.17 282.36 o
25 1 5 772.51 822.19 100.50 o
26 1 5 607.68 681.49 155.06 o
27 1 5 72.61 4.79 147.40 o
28 1 5 607.26 586.73 169.42 o
29 1 5 240.04 514.95 168.46 o
30 1 5 1751.19 1860.71 207.70 o
0 2 5 573.50 598.22 44.99 o
1 2 5 5.08 1.91 20.10 o
2 2 5 283.30 233.55 20.10 o
3 2 5 6.90 22.97 20.10 o
4 2 5 1188.34 1336.19 42.11 o
5 2 5 2594.74 2285.68 63.17 o
6 2 5 10.73 59.34 40.20 o
7 2 5 6188.50 6115.25 97.63 o
8 2 5 197.84 161.76 22.97 o
9 2 5 3015.22 2541.24 58.39 o
10 2 5 180.10 172.29 41.16 o
11 2 5 3647.37 3169.13 89.02 o
12 2 5 1208.60 1124.65 44.99 o
13 2 5 95.86 84.23 31.59 o
14 2 5 200.52 151.23 32.54 o
15 2 5 2627.25 2465.63 69.87 o
16 2 5 24.49 3.83 36.37 o
17 2 5 633.23 599.18 53.60 o
18 2 5 123.74 52.64 44.99 o
19 2 5 161.75 120.60 47.86 o
20 2 5 173.22 135.92 67.00 o
21 2 5 1351.26 1358.20 104.33 o
22 2 5 101.86 29.67 81.36 o
23 2 5 136.23 135.92 84.23 o
24 2 5 50.40 16.27 76.57 o
25 2 5 411.08 279.49 96.67 o
26 2 5 92.66 128.26 106.24 o
27 2 5 219.51 199.09 113.90 o
28 2 5 1.68 1.91 148.36 o
29 2 5 8.72 13.40 156.97 o
30 2 5 13.75 44.03 167.50 o
1 3 5 370.37 305.33 41.16 o
2 3 5 18760.53 16904.28 244.07 o
3 3 5 4915.42 5333.26 149.32 o
4 3 5 289.18 463.26 44.99 o
6 3 5 4815.64 4002.81 111.99 o
7 3 5 1590.24 2033.95 88.06 o
8 3 5 40576.89 39975.49 631.72 o
9 3 5 2235.26 2413.94 68.92 o
10 3 5 14504.88 13412.58 163.67 o
11 3 5 0.86 0.00 34.46 o
12 3 5 10907.80 10740.21 153.14 o
13 3 5 1466.52 1135.18 64.13 o
14 3 5 7472.86 6252.12 127.30 o
15 3 5 24.09 11.49 40.20 o
16 3 5 356.13 424.98 44.03 o
17 3 5 8.25 0.00 42.11 o
18 3 5 3932.66 3641.01 149.32 o
19 3 5 1008.19 1053.83 105.29 o
20 3 5 6407.07 6755.58 184.73 o
21 3 5 62.19 31.59 78.49 o
22 3 5 745.99 692.02 97.63 o
23 3 5 204.40 316.82 86.14 o
24 3 5 3690.23 4030.57 225.89 o
25 3 5 414.15 587.69 99.54 o
26 3 5 399.97 482.41 99.54 o
27 3 5 18.90 16.27 91.89 o
28 3 5 520.17 592.48 111.03 o
29 3 5 93.24 302.46 166.54 o
30 3 5 1401.81 1446.26 196.22 o
0 4 5 2697.51 2879.12 69.87 o
1 4 5 6006.65 5313.16 135.92 o
2 4 5 1548.73 1697.03 67.00 o
3 4 5 2538.77 3100.22 75.62 o
4 4 5 4381.90 4381.85 99.54 o
5 4 5 13546.90 13192.44 196.22 o
6 4 5 599.31 694.89 46.90 o
7 4 5 5681.45 5179.15 96.67 o
8 4 5 20.34 36.37 23.93 o
9 4 5 4224.78 3776.93 68.92 o
10 4 5 1020.32 974.38 65.09 o
11 4 5 7529.67 6957.54 111.03 o
12 4 5 2179.20 2148.81 61.26 o
13 4 5 1186.10 1074.88 49.77 o
14 4 5 603.38 551.32 44.03 o
15 4 5 4230.54 4236.36 116.77 o
16 4 5 437.84 328.30 66.04 o
17 4 5 2199.99 1944.93 100.50 o
18 4 5 744.54 728.39 77.53 o
19 4 5 89.55 134.96 69.87 o
20 4 5 294.06 119.64 73.70 o
21 4 5 551.87 487.19 94.76 o
22 4 5 768.43 641.29 97.63 o
23 4 5 888.02 786.78 103.37 o
24 4 5 0.23 6.70 83.27 o
25 4 5 19.92 3.83 85.19 o
26 4 5 297.15 181.86 95.72 o
27 4 5 547.87 545.58 109.12 o
28 4 5 36.02 35.41 100.50 o
29 4 5 60.94 32.54 144.53 o
1 5 5 3292.09 3288.78 56.47 o
2 5 5 17970.62 16981.81 315.86 o
3 5 5 6166.59 5708.46 78.49 o
4 5 5 840.75 928.44 49.77 o
5 5 5 317.56 666.18 30.63 o
6 5 5 3992.26 3776.93 64.13 o
7 5 5 948.73 916.00 26.80 o
8 5 5 27677.63 27904.84 424.02 o
9 5 5 4671.53 4731.21 141.66 o
10 5 5 2126.58 2056.92 67.00 o
11 5 5 2.22 3.83 23.93 o
12 5 5 6469.93 7255.22 134.00 o
13 5 5 4382.31 3824.78 95.72 o
14 5 5 3109.65 2840.83 90.93 o
15 5 5 367.60 365.63 81.36 o
16 5 5 522.09 394.35 98.59 o
17 5 5 262.96 145.49 82.32 o
18 5 5 919.44 753.28 92.84 o
19 5 5 3272.48 3249.53 128.26 o
20 5 5 3845.83 3845.84 144.53 o
21 5 5 160.71 73.70 73.70 o
22 5 5 241.30 251.73 90.93 o
23 5 5 435.44 369.46 91.89 o
24 5 5 1132.91 1262.48 117.73 o
25 5 5 195.91 217.27 90.93 o
26 5 5 59.33 103.37 91.89 o
27 5 5 99.03 109.12 99.54 o
28 5 5 225.15 400.09 107.20 o
29 5 5 108.61 247.90 109.12 o
0 6 5 13134.50 13464.27 399.13 o
1 6 5 24223.91 22150.43 314.90 o
2 6 5 101.15 119.64 22.97 o
3 6 5 3502.89 3387.36 67.96 o
4 6 5 12742.31 12487.97 307.25 o
5 6 5 46343.64 44498.04 608.75 o
6 6 5 1591.19 1340.97 86.14 o
7 6 5 14942.77 13616.46 203.87 o
8 6 5 1674.68 1686.50 46.90 o
9 6 5 5682.69 5515.12 134.00 o
10 6 5 2752.84 2425.43 90.93 o
11 6 5 25043.99 23852.25 425.93 o
12 6 5 524.72 602.05 53.60 o
13 6 5 3030.30 3219.86 126.34 o
14 6 5 1255.06 1100.73 86.14 o
15 6 5 14004.76 13080.45 293.85 o
16 6 5 65.92 205.79 87.10 o
17 6 5 8098.84 8245.87 220.15 o
18 6 5 0.17 3.83 80.40 o
19 6 5 771.56 561.85 95.72 o
20 6 5 110.10 140.70 86.14 o
21 6 5 4204.01 3989.41 137.83 o
22 6 5 140.05 179.94 82.32 o
23 6 5 1491.69 1540.06 119.64 o
24 6 5 0.29 0.96 89.97 o
25 6 5 408.89 397.22 109.12 o
26 6 5 95.01 111.03 101.46 o
27 6 5 1483.08 1605.15 164.63 o
28 6 5 127.72 312.99 108.16 o
1 7 5 4355.90 4297.62 100.50 o
2 7 5 10229.81 10055.85 144.53 o
3 7 5 30.06 37.33 33.50 o
4 7 5 2198.86 2573.78 61.26 o
5 7 5 32.31 27.76 31.59 o
6 7 5 36.59 67.96 24.89 o
7 7 5 193.34 172.29 26.80 o
8 7 5 12368.03 13902.65 216.32 o
9 7 5 268.06 357.02 35.41 o
10 7 5 4222.92 4280.39 117.73 o
11 7 5 175.62 145.49 54.56 o
12 7 5 1467.96 1757.33 93.80 o
13 7 5 269.96 178.03 62.21 o
14 7 5 3862.21 3560.61 140.70 o
15 7 5 3.89 20.10 65.09 o
16 7 5 642.66 676.71 78.49 o
17 7 5 95.25 72.74 70.83 o
18 7 5 1837.54 1489.33 109.12 o
19 7 5 449.99 483.36 97.63 o
20 7 5 2851.97 2835.09 141.66 o
21 7 5 169.96 77.53 92.84 o
22 7 5 426.85 311.07 87.10 o
23 7 5 5.31 2.87 91.89 o
24 7 5 931.10 812.62 113.90 o
25 7 5 48.00 72.74 95.72 o
26 7 5 69.43 167.50 101.46 o
27 7 5 33.62 7.66 96.67 o
28 7 5 65.29 98.59 117.73 o
0 8 5 2246.29 2127.75 62.21 o
1 8 5 11835.38 11571.02 210.57 o
2 8 5 49.36 85.19 28.71 o
3 8 5 2990.31 2982.49 74.66 o
4 8 5 409.94 396.26 33.50 o
5 8 5 33672.41 31255.83 612.58 o
6 8 5 1867.05 2022.46 103.37 o
7 8 5 5183.78 4742.69 121.56 o
8 8 5 42.45 44.03 33.50 o
9 8 5 7615.52 7858.23 156.97 o
10 8 5 1418.92 1192.61 68.92 o
11 8 5 15945.84 15081.86 282.36 o
12 8 5 2022.74 2043.52 89.97 o
13 8 5 955.36 1042.34 83.27 o
14 8 5 136.65 130.17 65.09 o
15 8 5 8231.35 8384.66 204.83 o
16 8 5 1436.78 1706.60 97.63 o
17 8 5 5814.18 6116.21 177.07 o
18 8 5 406.24 432.63 81.36 o
19 8 5 629.87 394.35 95.72 o
20 8 5 214.40 183.77 94.76 o
21 8 5 2465.60 2191.88 140.70 o
22 8 5 681.89 808.79 149.32 o
23 8 5 583.02 627.89 94.76 o
24 8 5 5.29 0.00 99.54 o
25 8 5 538.68 622.15 154.10 o
26 8 5 173.27 108.16 109.12 o
27 8 5 1284.89 1470.19 181.86 o
1 9 5 234.31 162.72 31.59 o
2 9 5 808.21 714.04 63.17 o
3 9 5 472.14 614.49 34.46 o
4 9 5 556.56 510.16 44.03 o
5 9 5 126.57 182.82 32.54 o
6 9 5 320.77 324.47 41.16 o
7 9 5 68.29 116.77 30.63 o
8 9 5 223.00 284.27 42.11 o
9 9 5 5.71 19.14 50.73 o
10 9 5 110.74 117.73 54.56 o
11 9 5 75.96 81.36 56.47 o
12 9 5 17.71 34.46 58.39 o
13 9 5 233.95 194.30 69.87 o
14 9 5 32.15 54.56 61.26 o
15 9 5 38.45 9.57 67.00 o
16 9 5 394.23 409.66 77.53 o
17 9 5 8.46 43.07 78.49 o
18 9 5 13.21 23.93 81.36 o
19 9 5 59.65 76.57 101.46 o
20 9 5 38.13 7.66 95.72 o
21 9 5 104.61 7.66 129.22 o
22 9 5 42.58 7.66 105.29 o
23 9 5 41.91 0.96 91.89 o
24 9 5 6.44 2.87 118.69 o
25 9 5 0.16 0.00 123.47 o
26 9 5 10.99 0.96 161.76 o
0 10 5 2738.51 3148.08 132.09 o
1 10 5 12193.90 11642.81 193.34 o
2 10 5 171.69 165.59 32.54 o
3 10 5 203.56 137.83 34.46 o
4 10 5 390.86 398.18 47.86 o
5 10 5 25252.51 23212.87 425.93 o
6 10 5 3404.46 3302.18 119.64 o
7 10 5 7176.86 6361.24 250.77 o
8 10 5 76.35 118.69 55.51 o
9 10 5 5078.86 4588.59 143.57 o
10 10 5 2449.14 2569.96 110.07 o
11 10 5 9652.69 9320.75 222.06 o
12 10 5 737.40 694.89 78.49 o
13 10 5 463.21 560.89 83.27 o
14 10 5 289.69 367.55 79.44 o
15 10 5 5654.97 5443.33 183.77 o
16 10 5 1243.31 1062.44 102.42 o
17 10 5 7054.17 7612.24 217.27 o
18 10 5 59.86 74.66 86.14 o
19 10 5 145.39 52.64 99.54 o
20 10 5 273.72 164.63 107.20 o
21 10 5 3822.47 3781.71 313.95 o
22 10 5 363.33 437.42 140.70 o
23 10 5 1108.07 1227.07 126.34 o
24 10 5 47.20 0.96 138.79 o
25 10 5 478.63 565.68 259.39 o
1 11 5 127.24 123.47 41.16 o
2 11 5 78.89 92.84 42.11 o
3 11 5 118.00 175.16 40.20 o
4 11 5 546.80 536.01 48.81 o
5 11 5 1.45 0.96 61.26 o
6 11 5 77.46 57.43 61.26 o
7 11 5 111.81 149.32 79.44 o
8 11 5 1349.09 1224.20 80.40 o
9 11 5 120.68 204.83 63.17 o
10 11 5 490.12 513.99 69.87 o
11 11 5 0.11 1.91 68.92 o
12 11 5 0.50 6.70 73.70 o
13 11 5 19.15 18.19 74.66 o
14 11 5 920.94 919.82 99.54 o
15 11 5 24.66 25.84 83.27 o
16 11 5 7.86 0.00 77.53 o
17 11 5 54.23 27.76 84.23 o
18 11 5 192.94 51.69 103.37 o
19 11 5 8.72 6.70 107.20 o
20 11 5 143.40 33.50 118.69 o
21 11 5 0.01 1.91 138.79 o
22 11 5 1.41 0.00 127.30 o
23 11 5 43.59 0.00 160.80 o
24 11 5 203.15 33.50 201.96 o
0 12 5 337.02 458.48 75.62 o
1 12 5 15853.65 16143.34 322.56 o
2 12 5 43.04 32.54 44.99 o
3 12 5 1840.86 1837.73 91.89 o
4 12 5 2.58 47.86 72.74 o
5 12 5 34618.56 32834.18 722.65 o
6 12 5 1567.27 1586.96 126.34 o
7 12 5 5158.50 5494.06 201.96 o
8 12 5 0.17 0.00 74.66 o
9 12 5 10814.47 10515.28 247.90 o
10 12 5 1306.20 1507.52 107.20 o
11 12 5 8951.44 8403.80 228.76 o
12 12 5 779.10 859.52 94.76 o
13 12 5 189.87 185.69 81.36 o
14 12 5 39.04 4.79 97.63 o
15 12 5 3393.25 3443.84 153.14 o
16 12 5 1009.69 1088.28 126.34 o
17 12 5 3415.13 3405.55 178.03 o
18 12 5 83.33 108.16 107.20 o
19 12 5 105.68 44.03 180.90 o
20 12 5 220.98 300.55 220.15 o
21 12 5 2431.96 2396.71 150.27 o
22 12 5 220.25 156.97 189.52 o
1 13 5 382.44 415.40 62.21 o
2 13 5 3404.16 3668.77 136.87 o
3 13 5 2321.95 2802.54 132.09 o
4 13 5 1209.95 1170.60 95.72 o
5 13 5 1.19 5.74 58.39 o
6 13 5 803.09 861.44 89.02 o
7 13 5 888.92 786.78 98.59 o
8 13 5 1465.59 1350.54 119.64 o
9 13 5 253.13 430.72 117.73 o
10 13 5 0.85 1.91 89.97 o
11 13 5 205.68 129.22 91.89 o
12 13 5 564.70 495.81 112.94 o
13 13 5 332.71 377.12 106.24 o
14 13 5 901.93 869.09 121.56 o
15 13 5 1.14 0.00 102.42 o
16 13 5 158.01 256.52 113.90 o
17 13 5 184.90 91.89 113.90 o
18 13 5 898.50 868.14 141.66 o
19 13 5 135.29 112.94 179.94 o
20 13 5 194.09 216.32 107.20 o
0 14 5 469.23 336.92 131.13 o
1 14 5 3436.77 2896.34 122.52 o
2 14 5 75.31 60.30 55.51 o
3 14 5 107.24 62.21 58.39 o
4 14 5 30.12 42.11 64.13 o
5 14 5 5645.79 4802.04 170.37 o
6 14 5 522.64 540.79 90.93 o
7 14 5 1744.38 1770.73 115.82 o
8 14 5 0.01 3.83 66.04 o
9 14 5 1187.43 1036.60 113.90 o
10 14 5 539.75 636.51 123.47 o
11 14 5 2169.51 1978.44 177.07 o
12 14 5 389.32 394.35 123.47 o
13 14 5 466.24 448.90 115.82 o
14 14 5 71.47 18.19 100.50 o
15 14 5 1769.95 1847.31 162.72 o
16 14 5 608.47 738.92 158.89 o
17 14 5 2138.47 2064.58 152.19 o
18 14 5 70.79 57.43 99.54 o
1 15 5 1.20 10.53 78.49 o
2 15 5 2962.02 2605.37 165.59 o
3 15 5 997.43 1179.21 89.97 o
4 15 5 1824.57 2040.65 122.52 o
5 15 5 4.23 0.96 63.17 o
6 15 5 568.25 360.85 97.63 o
7 15 5 413.22 357.98 83.27 o
8 15 5 3013.63 2721.19 160.80 o
9 15 5 277.04 353.19 91.89 o
10 15 5 641.18 697.76 124.43 o
11 15 5 37.14 0.00 79.44 o
12 15 5 435.49 363.72 100.50 o
13 15 5 221.64 195.26 111.03 o
14 15 5 1718.61 1630.99 153.14 o
15 15 5 1.26 0.00 134.96 o
16 15 5 10.41 1.91 90.93 o
0 16 5 309.39 152.19 177.07 o
1 16 5 1888.07 2211.02 162.72 o
2 16 5 2.67 6.70 87.10 o
3 16 5 251.19 130.17 92.84 o
4 16 5 199.15 297.67 116.77 o
5 16 5 2642.69 2286.64 146.44 o
6 16 5 21.57 40.20 79.44 o
7 16 5 796.68 1018.41 115.82 o
8 16 5 53.75 33.50 87.10 o
9 16 5 474.67 550.36 164.63 o
10 16 5 121.60 172.29 103.37 o
11 16 5 1464.01 1512.30 175.16 o
12 16 5 48.90 39.24 96.67 o
13 16 5 125.48 318.73 162.72 o
1 17 5 16.35 22.97 91.89 o
2 17 5 3839.84 3853.50 205.79 o
3 17 5 744.21 707.34 126.34 o
4 17 5 2731.38 2488.60 180.90 o
5 17 5 169.90 165.59 124.43 o
6 17 5 902.37 806.88 199.09 o
7 17 5 234.75 103.37 120.60 o
8 17 5 4617.15 4511.06 215.36 o
0 0 6 62150.84 72830.73 2957.60 o
1 0 6 33592.63 32491.51 1203.14 o
2 0 6 7875.16 6797.70 195.26 o
3 0 6 51.13 491.98 71.79 o
4 0 6 27824.21 33041.87 885.37 o
5 0 6 44557.91 51260.32 576.21 o
6 0 6 51179.49 52006.91 820.28 o
7 0 6 28268.14 23015.70 623.11 o
8 0 6 5570.54 6096.11 165.59 o
9 0 6 10656.08 10725.86 321.60 o
10 0 6 15251.10 17077.52 322.56 o
11 0 6 31586.49 29862.21 595.35 o
12 0 6 350.19 338.83 48.81 o
13 0 6 198.54 335.00 78.49 o
14 0 6 1992.02 1805.19 104.33 o
15 0 6 15929.20 14559.25 467.09 o
16 0 6 9336.69 8977.14 379.03 o
17 0 6 13800.49 13016.32 281.40 o
18 0 6 3923.79 4077.47 159.84 o
19 0 6 10.42 15.31 66.04 o
20 0 6 282.05 374.25 114.86 o
21 0 6 10206.63 9898.88 312.03 o
22 0 6 3463.15 4466.08 181.86 o
23 0 6 1342.17 1298.86 109.12 o
24 0 6 237.55 218.23 113.90 o
25 0 6 472.18 243.12 211.53 o
26 0 6 238.61 339.79 210.57 o
27 0 6 1060.84 1114.13 242.16 o
28 0 6 475.29 473.79 230.67 o
29 0 6 68.63 8.61 228.76 o
30 0 6 40.57 67.00 230.67 o
1 1 6 2536.85 3019.82 93.80 o
2 1 6 1201.17 1129.44 75.62 o
3 1 6 10122.72 11348.96 201.00 o
4 1 6 118.45 332.13 47.86 o
5 1 6 1869.14 1914.31 62.21 o
6 1 6 8540.66 8853.67 119.64 o
7 1 6 1433.65 1391.70 43.07 o
8 1 6 4500.56 4339.73 114.86 o
9 1 6 54.97 35.41 24.89 o
10 1 6 125.67 97.63 26.80 o
11 1 6 1214.08 1372.56 61.26 o
12 1 6 405.72 373.29 31.59 o
13 1 6 357.66 411.58 31.59 o
14 1 6 144.00 138.79 36.37 o
15 1 6 145.72 89.97 35.41 o
16 1 6 6.33 0.00 36.37 o
17 1 6 69.73 59.34 41.16 o
18 1 6 34.25 0.00 42.11 o
19 1 6 1.88 1.91 72.74 o
20 1 6 44.96 15.31 53.60 o
21 1 6 12.30 13.40 55.51 o
22 1 6 130.35 22.01 68.92 o
23 1 6 14.09 0.96 76.57 o
24 1 6 21.68 0.96 84.23 o
25 1 6 4.40 0.00 82.32 o
26 1 6 15.91 67.96 148.36 o
27 1 6 1.71 41.16 152.19 o
28 1 6 40.19 0.00 150.27 o
29 1 6 3.92 12.44 159.84 o
30 1 6 81.20 113.90 182.82 o
0 2 6 2227.84 2291.42 33.50 o
1 2 6 7108.36 8601.93 108.16 o
2 2 6 161.17 161.76 29.67 o
3 2 6 9944.78 10215.69 190.47 o
4 2 6 4676.64 4618.26 89.02 o
5 2 6 39258.60 37649.61 780.08 o
6 2 6 16212.66 18741.05 305.33 o
7 2 6 17624.70 13663.36 155.06 o
8 2 6 41.44 22.97 24.89 o
9 2 6 12816.14 9862.50 207.70 o
10 2 6 7453.89 8222.90 156.97 o
11 2 6 35290.17 31127.57 453.69 o
12 2 6 4001.89 4394.29 115.82 o
13 2 6 1506.80 1782.22 53.60 o
14 2 6 175.07 97.63 32.54 o
15 2 6 9842.82 8750.29 181.86 o
16 2 6 8117.29 8593.32 224.93 o
17 2 6 8284.69 8329.14 162.72 o
18 2 6 1975.08 2667.58 111.99 o
19 2 6 16.93 0.00 48.81 o
20 2 6 865.22 1081.58 95.72 o
21 2 6 6503.57 6526.83 198.13 o
22 2 6 2137.19 2856.14 174.20 o
23 2 6 402.41 450.82 92.84 o
24 2 6 9.75 3.83 79.44 o
25 2 6 711.36 467.09 98.59 o
26 2 6 512.06 647.04 108.16 o
27 2 6 1314.49 1242.38 178.03 o
28 2 6 217.17 358.93 164.63 o
29 2 6 154.91 67.00 166.54 o
30 2 6 83.40 54.56 168.46 o
1 3 6 2052.74 2322.05 75.62 o
2 3 6 8950.51 8782.83 142.62 o
3 3 6 2181.32 1270.14 144.53 o
4 3 6 9235.63 8596.19 188.56 o
5 3 6 205.23 204.83 26.80 o
6 3 6 4947.21 4606.78 73.70 o
7 3 6 468.11 378.08 27.76 o
8 3 6 6940.35 5517.03 103.37 o
9 3 6 858.16 902.60 31.59 o
10 3 6 645.46 541.75 33.50 o
11 3 6 23.79 44.03 22.97 o
12 3 6 2401.72 2055.01 88.06 o
13 3 6 654.62 659.48 36.37 o
14 3 6 1107.37 906.42 45.94 o
15 3 6 1132.18 1355.33 59.34 o
16 3 6 121.10 77.53 32.54 o
17 3 6 245.64 273.75 47.86 o
18 3 6 2683.36 2281.85 87.10 o
19 3 6 1968.02 2366.08 95.72 o
20 3 6 724.25 710.21 77.53 o
21 3 6 298.46 245.99 87.10 o
22 3 6 120.91 63.17 83.27 o
23 3 6 176.68 131.13 89.02 o
24 3 6 235.43 134.96 86.14 o
25 3 6 251.16 309.16 94.76 o
26 3 6 211.30 291.93 123.47 o
27 3 6 0.09 0.96 90.93 o
28 3 6 98.45 18.19 94.76 o
29 3 6 130.53 123.47 162.72 o
0 4 6 23293.67 25492.81 1035.64 o
1 4 6 8244.66 9919.93 190.47 o
2 4 6 7.30 92.84 20.10 o
3 4 6 4926.72 6154.49 82.32 o
4 4 6 8658.89 9725.63 185.69 o
5 4 6 8318.58 8393.27 127.30 o
6 4 6 7138.39 8119.53 105.29 o
7 4 6 8161.11 7282.98 120.60 o
8 4 6 5.06 30.63 29.67 o
9 4 6 2602.90 2273.24 61.26 o
10 4 6 5751.80 6071.22 90.93 o
11 4 6 13709.51 12545.40 204.83 o
12 4 6 1393.29 1246.21 46.90 o
13 4 6 236.74 290.97 39.24 o
14 4 6 2588.38 2463.71 82.32 o
15 4 6 8024.03 8272.67 175.16 o
16 4 6 7648.95 8015.20 174.20 o
17 4 6 4967.21 5018.35 120.60 o
18 4 6 142.79 308.20 75.62 o
19 4 6 13.50 0.96 67.96 o
20 4 6 872.83 1086.37 92.84 o
21 4 6 4272.02 4665.16 167.50 o
22 4 6 743.97 1121.78 105.29 o
23 4 6 534.30 446.03 91.89 o
24 4 6 2.62 3.83 85.19 o
25 4 6 247.07 148.36 91.89 o
26 4 6 181.34 238.33 96.67 o
27 4 6 833.01 709.25 112.94 o
28 4 6 132.13 172.29 105.29 o
29 4 6 44.77 7.66 102.42 o
1 5 6 1894.90 2398.63 65.09 o
2 5 6 3932.97 3276.33 85.19 o
3 5 6 3747.61 3681.21 90.93 o
4 5 6 14841.81 13754.29 209.62 o
5 5 6 73.17 21.06 16.27 o
6 5 6 3936.70 3119.36 75.62 o
7 5 6 4677.29 5070.04 102.42 o
8 5 6 17404.62 16374.97 287.15 o
9 5 6 5888.78 6038.68 143.57 o
10 5 6 9868.33 9556.21 200.04 o
11 5 6 1.54 7.66 30.63 o
12 5 6 4020.18 3732.90 126.34 o
13 5 6 1266.14 1331.40 70.83 o
14 5 6 6944.02 6358.37 147.40 o
15 5 6 1930.44 1734.36 83.27 o
16 5 6 322.08 351.28 65.09 o
17 5 6 1.87 0.00 63.17 o
18 5 6 6381.81 5756.32 174.20 o
19 5 6 2863.58 3288.78 135.92 o
20 5 6 2529.83 2423.51 124.43 o
21 5 6 878.84 781.99 89.02 o
22 5 6 518.65 450.82 97.63 o
23 5 6 460.47 419.23 97.63 o
24 5 6 1306.43 1276.84 118.69 o
25 5 6 422.01 619.28 103.37 o
26 5 6 264.60 329.26 103.37 o
27 5 6 0.12 0.00 138.79 o
28 5 6 401.25 399.13 124.43 o
29 5 6 130.91 335.96 113.90 o
0 6 6 15865.12 16145.26 335.00 o
1 6 6 18594.83 19645.56 340.75 o
2 6 6 347.66 659.48 38.29 o
3 6 6 5479.29 7100.16 150.27 o
4 6 6 3474.43 3894.66 99.54 o
5 6 6 10616.39 11156.57 175.16 o
6 6 6 8340.92 9236.53 150.27 o
7 6 6 2330.56 1851.13 60.30 o
8 6 6 1078.45 1062.44 50.73 o
9 6 6 4689.51 4027.70 78.49 o
10 6 6 5477.50 5968.81 139.74 o
11 6 6 9120.14 8020.94 154.10 o
12 6 6 3115.56 3468.72 109.12 o
13 6 6 43.90 25.84 37.33 o
14 6 6 1241.66 1077.75 77.53 o
15 6 6 4959.29 5414.61 152.19 o
16 6 6 5787.52 6489.50 255.56 o
17 6 6 1818.33 1634.82 100.50 o
18 6 6 189.26 326.39 74.66 o
19 6 6 117.60 23.93 72.74 o
20 6 6 449.28 483.36 85.19 o
21 6 6 1606.08 1720.00 111.03 o
22 6 6 607.24 623.11 92.84 o
23 6 6 334.45 321.60 95.72 o
24 6 6 8.86 0.00 85.19 o
25 6 6 61.06 26.80 94.76 o
26 6 6 151.21 198.13 103.37 o
27 6 6 397.88 392.43 115.82 o
28 6 6 89.97 55.51 105.29 o
1 7 6 1307.90 1809.98 43.07 o
2 7 6 15489.01 13934.23 217.27 o
3 7 6 2146.20 2479.98 65.09 o
4 7 6 15444.37 15209.16 253.65 o
5 7 6 110.20 100.50 21.06 o
6 7 6 14403.97 12621.02 192.39 o
7 7 6 4102.46 4598.16 93.80 o
8 7 6 27749.92 25839.30 384.78 o
9 7 6 6092.53 6531.61 134.96 o
10 7 6 7983.22 7217.89 196.22 o
11 7 6 3.84 6.70 37.33 o
12 7 6 9217.36 9481.56 245.03 o
13 7 6 1470.66 1704.69 95.72 o
14 7 6 6497.44 6183.21 161.76 o
15 7 6 847.28 883.45 82.32 o
16 7 6 31.62 1.91 58.39 o
17 7 6 3.24 27.76 68.92 o
18 7 6 7441.65 8129.10 198.13 o
19 7 6 2443.67 3046.62 125.39 o
20 7 6 1923.40 1885.59 113.90 o
21 7 6 927.59 1148.58 102.42 o
22 7 6 949.86 1063.40 100.50 o
23 7 6 635.62 733.18 134.96 o
24 7 6 2035.33 2172.74 142.62 o
25 7 6 560.09 904.51 115.82 o
26 7 6 182.95 129.22 111.99 o
27 7 6 1.67 0.00 109.12 o
0 8 6 2597.46 2242.61 111.03 o
1 8 6 8.00 21.06 25.84 o
2 8 6 19.04 22.97 27.76 o
3 8 6 551.16 760.94 32.54 o
4 8 6 621.28 566.63 41.16 o
5 8 6 10.29 9.57 22.97 o
6 8 6 2111.32 1990.88 60.30 o
7 8 6 222.10 141.66 26.80 o
8 8 6 107.49 102.42 32.54 o
9 8 6 17.48 4.79 37.33 o
10 8 6 1515.65 1596.53 94.76 o
11 8 6 2685.04 2485.73 110.07 o
12 8 6 37.39 66.04 62.21 o
13 8 6 327.44 321.60 73.70 o
14 8 6 403.31 410.62 79.44 o
15 8 6 127.41 126.34 74.66 o
16 8 6 106.03 178.03 69.87 o
17 8 6 744.59 789.65 81.36 o
18 8 6 26.87 59.34 72.74 o
19 8 6 596.73 590.56 93.80 o
20 8 6 7.48 5.74 79.44 o
21 8 6 321.81 268.00 93.80 o
22 8 6 45.02 1.91 84.23 o
23 8 6 111.82 151.23 94.76 o
24 8 6 5.85 1.91 144.53 o
25 8 6 65.62 16.27 99.54 o
26 8 6 0.13 0.00 111.03 o
27 8 6 194.82 255.56 219.19 o
1 9 6 4126.12 4742.69 101.46 o
2 9 6 10048.93 10250.15 168.46 o
3 9 6 6653.58 7142.28 144.53 o
4 9 6 8629.08 8737.85 175.16 o
5 9 6 31.05 30.63 29.67 o
6 9 6 3449.97 3339.51 98.59 o
7 9 6 3440.86 3882.21 117.73 o
8 9 6 7067.84 7080.06 177.07 o
9 9 6 4163.46 4245.93 143.57 o
10 9 6 4591.81 4438.32 127.30 o
11 9 6 317.12 447.95 73.70 o
12 9 6 4442.64 4453.63 149.32 o
13 9 6 3516.98 3560.61 160.80 o
14 9 6 3486.24 2885.82 149.32 o
15 9 6 181.88 91.89 83.27 o
16 9 6 35.24 7.66 67.00 o
17 9 6 746.68 1022.24 129.22 o
18 9 6 5518.77 5570.63 188.56 o
19 9 6 1998.88 2642.70 137.83 o
20 9 6 2726.78 2847.53 144.53 o
21 9 6 427.81 425.93 108.16 o
22 9 6 72.22 7.66 93.80 o
23 9 6 353.34 479.53 160.80 o
24 9 6 1740.97 1492.20 154.10 o
25 9 6 416.73 552.28 156.97 o
26 9 6 412.75 410.62 124.43 o
0 10 6 1834.41 1435.73 117.73 o
1 10 6 8.31 8.61 40.20 o
2 10 6 27.90 16.27 38.29 o
3 10 6 213.36 196.22 38.29 o
4 10 6 14.50 7.66 37.33 o
5 10 6 875.08 1091.15 56.47 o
6 10 6 523.11 597.26 59.34 o
7 10 6 81.20 120.60 51.69 o
8 10 6 47.64 27.76 55.51 o
9 10 6 176.41 229.72 61.26 o
10 10 6 390.19 446.99 70.83 o
11 10 6 24.00 13.40 72.74 o
12 10 6 123.38 111.03 80.40 o
13 10 6 540.34 603.01 98.59 o
14 10 6 805.19 926.52 107.20 o
15 10 6 125.53 163.67 93.80 o
16 10 6 72.38 87.10 78.49 o
17 10 6 125.92 204.83 84.23 o
18 10 6 45.50 55.51 74.66 o
19 10 6 29.87 58.39 83.27 o
20 10 6 38.72 27.76 89.97 o
21 10 6 27.78 4.79 114.86 o
22 10 6 54.87 0.96 132.09 o
23 10 6 17.39 0.00 98.59 o
24 10 6 30.07 3.83 103.37 o
25 10 6 8.71 60.30 144.53 o
1 11 6 1101.32 1287.37 67.00 o
2 11 6 16809.89 15085.69 291.93 o
3 11 6 1940.98 2498.17 89.97 o
4 11 6 6073.17 5209.78 135.92 o
5 11 6 188.14 197.17 51.69 o
6 11 6 8018.26 7617.98 211.53 o
7 11 6 481.59 804.01 82.32 o
8 11 6 14583.82 13320.70 282.36 o
9 11 6 7068.45 7443.78 178.03 o
10 11 6 4657.71 4109.06 136.87 o
11 11 6 682.74 591.52 78.49 o
12 11 6 6203.17 6045.38 186.64 o
13 11 6 4028.23 4482.35 155.06 o
14 11 6 5584.97 5391.64 176.12 o
15 11 6 1246.79 1237.60 111.99 o
16 11 6 1.98 4.79 79.44 o
17 11 6 568.71 821.24 94.76 o
18 11 6 3765.83 3518.49 157.93 o
19 11 6 1723.95 2143.07 139.74 o
20 11 6 1214.16 1280.67 114.86 o
21 11 6 111.35 157.93 108.16 o
22 11 6 254.55 208.66 130.17 o
23 11 6 375.85 437.42 139.74 o
0 12 6 981.13 997.35 101.46 o
1 12 6 1819.19 1690.33 83.27 o
2 12 6 552.43 579.08 60.30 o
3 12 6 47.94 59.34 54.56 o
4 12 6 851.82 950.45 85.19 o
5 12 6 2800.99 3030.35 138.79 o
6 12 6 1002.97 1152.41 101.46 o
7 12 6 1315.84 1318.00 106.24 o
8 12 6 294.26 251.73 70.83 o
9 12 6 436.06 588.65 81.36 o
10 12 6 699.15 699.68 117.73 o
11 12 6 347.86 358.93 79.44 o
12 12 6 88.53 118.69 80.40 o
13 12 6 38.38 46.90 74.66 o
14 12 6 129.18 122.52 80.40 o
15 12 6 1007.99 1022.24 113.90 o
16 12 6 392.81 341.70 98.59 o
17 12 6 112.99 126.34 97.63 o
18 12 6 25.16 31.59 90.93 o
19 12 6 203.23 274.70 98.59 o
20 12 6 31.18 26.80 112.94 o
21 12 6 556.67 354.15 159.84 o
22 12 6 53.96 35.41 105.29 o
1 13 6 1445.67 1655.87 89.02 o
2 13 6 5678.26 5842.46 190.47 o
3 13 6 3601.61 4015.26 160.80 o
4 13 6 3245.89 3172.96 141.66 o
5 13 6 212.01 133.04 69.87 o
6 13 6 1146.06 1261.53 104.33 o
7 13 6 505.20 681.49 86.14 o
8 13 6 4119.45 4080.34 162.72 o
9 13 6 3229.92 3305.05 156.02 o
10 13 6 2026.55 1863.58 133.04 o
11 13 6 11.87 1.91 89.02 o
12 13 6 1893.58 2066.49 127.30 o
13 13 6 2118.67 2526.88 171.33 o
14 13 6 2640.31 2755.64 155.06 o
15 13 6 202.13 166.54 89.97 o
16 13 6 17.79 8.61 86.14 o
17 13 6 358.87 394.35 107.20 o
18 13 6 2049.74 2064.58 150.27 o
19 13 6 1026.31 1356.29 196.22 o
20 13 6 1505.84 1622.37 143.57 o
0 14 6 8.85 8.61 83.27 o
1 14 6 1053.98 1148.58 87.10 o
2 14 6 71.09 40.20 54.56 o
3 14 6 165.97 156.97 65.09 o
4 14 6 56.00 137.83 69.87 o
5 14 6 2499.74 2606.33 137.83 o
6 14 6 703.92 984.91 90.93 o
7 14 6 1410.04 1194.53 102.42 o
8 14 6 48.26 55.51 71.79 o
9 14 6 377.74 591.52 97.63 o
10 14 6 626.47 564.72 105.29 o
11 14 6 1683.84 1660.66 144.53 o
12 14 6 295.90 474.75 149.32 o
13 14 6 313.06 344.58 92.84 o
14 14 6 42.46 1.91 89.02 o
15 14 6 1110.91 1143.80 121.56 o
16 14 6 446.86 555.15 109.12 o
17 14 6 415.99 444.12 120.60 o
18 14 6 4.90 2.87 95.72 o
1 15 6 165.96 95.72 86.14 o
2 15 6 1958.72 1957.38 149.32 o
3 15 6 890.44 1081.58 86.14 o
4 15 6 1266.71 1329.49 101.46 o
5 15 6 120.97 103.37 79.44 o
6 15 6 876.01 802.09 91.89 o
7 15 6 325.09 337.87 81.36 o
8 15 6 2271.61 1921.01 148.36 o
9 15 6 1163.52 1140.93 129.22 o
10 15 6 362.86 312.03 90.93 o
11 15 6 10.14 26.80 85.19 o
12 15 6 1024.95 1034.68 129.22 o
13 15 6 524.18 575.25 116.77 o
14 15 6 895.97 1005.97 139.74 o
15 15 6 48.57 27.76 126.34 o
0 16 6 1403.79 1242.38 213.45 o
1 16 6 3064.17 2946.12 195.26 o
2 16 6 200.50 154.10 102.42 o
3 16 6 642.70 769.55 132.09 o
4 16 6 488.90 589.61 111.99 o
5 16 6 4623.35 4598.16 211.53 o
6 16 6 1441.31 1547.72 123.47 o
7 16 6 1062.98 929.40 119.64 o
8 16 6 10.33 4.79 81.36 o
9 16 6 778.97 820.28 112.94 o
10 16 6 802.90 652.78 112.94 o
11 16 6 2199.76 1960.25 158.89 o
12 16 6 517.66 679.58 124.43 o
1 17 6 101.66 51.69 102.42 o
2 17 6 158.91 66.04 103.37 o
3 17 6 402.64 504.42 122.52 o
4 17 6 368.56 493.89 114.86 o
5 17 6 9.23 0.00 89.02 o
6 17 6 175.62 133.04 160.80 o
7 17 6 178.78 451.78 170.37 o
8 17 6 834.08 937.05 144.53 o
1 1 7 41809.51 39899.88 1122.74 o
2 1 7 4328.77 5501.72 268.00 o
3 1 7 93677.00 95074.00 1263.44 o
4 1 7 4123.87 4857.55 136.87 o
5 1 7 29.66 4.79 25.84 o
6 1 7 8516.10 7901.30 146.44 o
7 1 7 43590.78 39127.45 686.28 o
8 1 7 9621.11 9784.02 369.46 o
9 1 7 72080.05 72449.78 1041.38 o
10 1 7 5171.21 6068.35 126.34 o
11 1 7 34.42 19.14 31.59 o
12 1 7 14.74 56.47 35.41 o
13 1 7 27808.32 27666.51 381.90 o
14 1 7 353.94 475.71 42.11 o
15 1 7 1910.95 2124.88 61.26 o
16 1 7 46.86 35.41 40.20 o
17 1 7 6923.59 7023.59 128.26 o
18 1 7 2.37 29.67 68.92 o
19 1 7 16710.63 15987.33 282.36 o
20 1 7 54.44 179.94 65.09 o
21 1 7 823.10 789.65 76.57 o
22 1 7 190.07 206.75 70.83 o
23 1 7 3042.10 2901.13 140.70 o
24 1 7 127.52 185.69 90.93 o
25 1 7 3028.70 2986.32 207.70 o
26 1 7 38.08 113.90 105.29 o
27 1 7 12.25 1.91 147.40 o
28 1 7 249.05 245.03 159.84 o
29 1 7 1550.21 1892.29 202.92 o
30 1 7 31.68 69.87 267.05 o
0 2 7 1874.45 1502.73 104.33 o
1 2 7 898.75 828.89 71.79 o
2 2 7 366.57 309.16 44.99 o
3 2 7 1865.40 1704.69 98.59 o
4 2 7 7628.88 5757.27 184.73 o
5 2 7 2262.66 2791.06 93.80 o
6 2 7 6568.84 6749.84 118.69 o
7 2 7 207.72 114.86 35.41 o
8 2 7 688.22 666.18 32.54 o
9 2 7 481.94 715.95 44.99 o
10 2 7 4916.91 5195.43 90.93 o
11 2 7 351.53 229.72 39.24 o
12 2 7 2319.74 2315.35 68.92 o
13 2 7 2.34 1.91 34.46 o
14 2 7 1633.98 1662.57 57.43 o
15 2 7 73.92 71.79 39.24 o
16 2 7 1268.31 1135.18 61.26 o
17 2 7 0.27 0.96 42.11 o
18 2 7 4.02 6.70 46.90 o
19 2 7 103.59 64.13 50.73 o
20 2 7 1739.55 1740.10 93.80 o
21 2 7 32.52 12.44 66.04 o
22 2 7 752.54 546.53 94.76 o
23 2 7 57.23 47.86 86.14 o
24 2 7 101.13 6.70 85.19 o
25 2 7 0.29 9.57 89.02 o
26 2 7 496.25 428.80 99.54 o
27 2 7 7.76 31.59 108.16 o
28 2 7 6.50 9.57 154.10 o
29 2 7 0.98 10.53 158.89 o
2 3 7 128.65 106.24 83.27 o
3 3 7 43497.46 44057.75 758.07 o
4 3 7 177.84 67.00 44.03 o
5 3 7 19.25 14.36 20.10 o
6 3 7 1724.07 1333.31 39.24 o
7 3 7 21322.18 19646.52 273.75 o
8 3 7 587.97 988.74 93.80 o
9 3 7 37915.46 35068.17 503.46 o
10 3 7 251.98 402.00 43.07 o
11 3 7 1.22 23.93 32.54 o
12 3 7 474.99 355.10 44.99 o
13 3 7 11843.71 12479.36 188.56 o
14 3 7 830.83 876.75 48.81 o
15 3 7 484.59 666.18 51.69 o
16 3 7 339.29 247.90 45.94 o
17 3 7 3675.11 3908.06 99.54 o
18 3 7 168.53 329.26 65.09 o
19 3 7 12683.52 12671.75 245.99 o
20 3 7 270.75 467.09 80.40 o
21 3 7 306.35 311.07 86.14 o
22 3 7 17.53 78.49 85.19 o
23 3 7 2797.44 2842.74 194.30 o
24 3 7 1.56 22.01 91.89 o
25 3 7 2534.99 2725.01 139.74 o
26 3 7 0.04 29.67 95.72 o
27 3 7 13.62 0.00 89.97 o
28 3 7 95.04 102.42 115.82 o
29 3 7 1094.29 1281.63 189.52 o
0 4 7 18653.17 18381.16 424.02 o
1 4 7 761.47 955.24 52.64 o
2 4 7 1095.43 962.90 57.43 o
3 4 7 19.92 87.10 30.63 o
4 4 7 23473.77 21837.45 397.22 o
5 4 7 3371.47 4229.66 148.36 o
6 4 7 19277.04 17623.10 298.63 o
7 4 7 123.84 165.59 39.24 o
8 4 7 822.01 749.45 40.20 o
9 4 7 846.87 773.38 44.99 o
10 4 7 9333.28 8612.46 172.29 o
11 4 7 1194.64 1374.47 53.60 o
12 4 7 6313.68 6338.27 114.86 o
13 4 7 0.51 0.00 29.67 o
14 4 7 1459.50 1539.10 60.30 o
15 4 7 154.41 175.16 37.33 o
16 4 7 2880.90 2437.87 93.80 o
17 4 7 386.48 477.62 60.30 o
18 4 7 639.38 656.61 73.70 o
19 4 7 35.71 6.70 65.09 o
20 4 7 886.01 948.54 92.84 o
21 4 7 1141.97 961.94 107.20 o
22 4 7 2060.79 2244.52 127.30 o
23 4 7 25.31 35.41 85.19 o
24 4 7 89.37 223.02 112.94 o
25 4 7 97.98 97.63 89.02 o
26 4 7 635.62 593.43 107.20 o
27 4 7 144.67 187.60 184.73 o
28 4 7 336.75 360.85 106.24 o
29 4 7 31.84 28.71 104.33 o
1 5 7 3687.96 3881.25 83.27 o
2 5 7 210.18 329.26 38.29 o
3 5 7 32810.70 29956.02 448.90 o
4 5 7 399.06 635.55 58.39 o
5 5 7 120.35 116.77 27.76 o
6 5 7 239.02 313.95 39.24 o
7 5 7 14184.95 11847.64 215.36 o
8 5 7 1070.36 1809.02 101.46 o
9 5 7 22305.99 21382.80 377.12 o
10 5 7 554.02 427.85 38.29 o
11 5 7 309.37 245.03 42.11 o
12 5 7 463.42 579.08 47.86 o
13 5 7 8245.73 8438.26 156.02 o
14 5 7 4003.24 3736.73 100.50 o
15 5 7 769.83 717.86 60.30 o
16 5 7 5.24 9.57 60.30 o
17 5 7 1329.66 1693.20 89.02 o
18 5 7 532.32 473.79 94.76 o
19 5 7 9810.90 10046.28 236.42 o
20 5 7 23.08 55.51 79.44 o
21 5 7 191.12 131.13 78.49 o
22 5 7 207.48 127.30 87.10 o
23 5 7 1200.60 1244.30 114.86 o
24 5 7 13.71 8.61 89.02 o
25 5 7 969.04 863.35 111.99 o
26 5 7 13.50 6.70 124.43 o
27 5 7 45.54 124.43 101.46 o
28 5 7 238.62 156.97 105.29 o
0 6 7 58363.21 59759.84 1519.96 o
1 6 7 596.80 759.98 103.37 o
2 6 7 2071.69 2122.01 61.26 o
3 6 7 1653.48 1812.85 61.26 o
4 6 7 44202.26 43914.18 686.28 o
5 6 7 6731.61 7424.64 258.43 o
6 6 7 46160.56 47219.23 662.35 o
7 6 7 235.70 318.73 54.56 o
8 6 7 424.93 454.65 50.73 o
9 6 7 244.62 308.20 34.46 o
10 6 7 19635.92 17925.56 356.06 o
11 6 7 339.68 705.42 75.62 o
12 6 7 11361.73 11003.43 238.33 o
13 6 7 1527.43 1328.53 93.80 o
14 6 7 3785.57 3595.07 106.24 o
15 6 7 1299.55 1381.17 85.19 o
16 6 7 8161.10 7349.02 182.82 o
17 6 7 531.44 497.72 77.53 o
18 6 7 164.58 134.00 69.87 o
19 6 7 17.95 34.46 72.74 o
20 6 7 3699.71 3791.28 163.67 o
21 6 7 110.31 179.94 82.32 o
22 6 7 4260.67 4666.12 161.76 o
23 6 7 20.65 65.09 92.84 o
24 6 7 23.82 65.09 88.06 o
25 6 7 19.43 86.14 101.46 o
26 6 7 1104.42 1374.47 132.09 o
27 6 7 36.94 183.77 118.69 o
28 6 7 707.27 930.35 137.83 o
1 7 7 1318.48 1475.93 55.51 o
2 7 7 2693.14 2652.27 77.53 o
3 7 7 13338.56 13337.92 211.53 o
4 7 7 688.29 775.29 61.26 o
5 7 7 754.84 804.97 50.73 o
6 7 7 175.11 169.42 29.67 o
7 7 7 2820.80 2458.93 68.92 o
8 7 7 225.35 271.83 34.46 o
9 7 7 10228.48 10437.75 177.07 o
10 7 7 0.02 22.01 37.33 o
11 7 7 49.09 1.91 37.33 o
12 7 7 8.89 8.61 44.03 o
13 7 7 3114.80 3297.39 101.46 o
14 7 7 115.71 170.37 58.39 o
15 7 7 601.06 726.48 96.67 o
16 7 7 63.48 116.77 66.04 o
17 7 7 649.68 955.24 87.10 o
18 7 7 456.93 598.22 89.97 o
19 7 7 6020.93 6027.19 178.03 o
20 7 7 300.74 357.98 86.14 o
21 7 7 67.12 45.94 86.14 o
22 7 7 18.97 1.91 87.10 o
23 7 7 531.01 498.68 111.99 o
24 7 7 107.81 95.72 111.99 o
25 7 7 486.34 482.41 115.82 o
26 7 7 4.42 1.91 102.42 o
27 7 7 13.77 1.91 116.77 o
0 8 7 29942.81 26817.51 569.51 o
1 8 7 17.17 87.10 33.50 o
2 8 7 499.38 515.91 34.46 o
3 8 7 24.04 67.96 30.63 o
4 8 7 23561.69 21966.66 325.43 o
5 8 7 1349.19 2547.94 116.77 o
6 8 7 32119.03 31406.10 517.82 o
7 8 7 652.07 761.89 59.34 o
8 8 7 3.16 2.87 37.33 o
9 8 7 498.12 424.98 43.07 o
10 8 7 15702.30 15422.61 261.30 o
11 8 7 1715.27 1912.39 132.09 o
12 8 7 8026.52 7642.87 180.90 o
13 8 7 9.23 19.14 61.26 o
14 8 7 2353.75 2455.10 118.69 o
15 8 7 182.31 297.67 74.66 o
16 8 7 7542.48 7484.94 207.70 o
17 8 7 71.55 113.90 78.49 o
18 8 7 238.49 234.50 80.40 o
19 8 7 0.26 9.57 81.36 o
20 8 7 2939.71 3147.12 148.36 o
21 8 7 560.22 566.63 98.59 o
22 8 7 3450.74 4243.06 218.23 o
23 8 7 49.53 24.89 133.04 o
24 8 7 30.00 0.96 101.46 o
25 8 7 55.76 119.64 173.24 o
26 8 7 1148.86 1255.78 146.44 o
1 9 7 257.47 297.67 42.11 o
2 9 7 648.79 591.52 44.03 o
3 9 7 439.88 380.95 40.20 o
4 9 7 3.30 35.41 36.37 o
5 9 7 116.56 117.73 39.24 o
6 9 7 76.13 61.26 42.11 o
7 9 7 175.24 83.27 34.46 o
8 9 7 11.84 20.10 34.46 o
9 9 7 304.20 236.42 58.39 o
10 9 7 2.65 0.96 55.51 o
11 9 7 6.16 4.79 58.39 o
12 9 7 534.46 444.12 69.87 o
13 9 7 65.48 54.56 68.92 o
14 9 7 154.66 173.24 68.92 o
15 9 7 0.35 7.66 69.87 o
16 9 7 64.39 67.96 72.74 o
17 9 7 5.32 3.83 71.79 o
18 9 7 102.04 137.83 95.72 o
19 9 7 419.27 283.32 91.89 o
20 9 7 7.22 7.66 84.23 o
21 9 7 5.97 0.00 85.19 o
22 9 7 12.65 3.83 124.43 o
23 9 7 4.59 0.96 90.93 o
24 9 7 31.39 4.79 133.04 o
25 9 7 17.51 0.00 168.46 o
0 10 7 20351.21 18901.85 571.42 o
1 10 7 50.66 143.57 47.86 o
2 10 7 1898.88 1767.86 77.53 o
3 10 7 559.58 559.93 47.86 o
4 10 7 10232.69 9760.09 209.62 o
5 10 7 738.74 838.47 62.21 o
6 10 7 26516.99 27363.09 531.22 o
7 10 7 199.30 241.20 56.47 o
8 10 7 296.75 352.23 66.04 o
9 10 7 206.35 263.22 60.30 o
10 10 7 10071.66 9418.38 216.32 o
11 10 7 1852.41 1864.53 96.67 o
12 10 7 5362.93 5525.64 171.33 o
13 10 7 0.23 3.83 67.96 o
14 10 7 1385.01 1541.97 103.37 o
15 10 7 2.44 2.87 76.57 o
16 10 7 8219.99 7665.84 235.46 o
17 10 7 7.99 83.27 83.27 o
18 10 7 849.91 1026.07 108.16 o
19 10 7 166.13 26.80 92.84 o
20 10 7 3093.54 3415.12 192.39 o
21 10 7 112.78 89.97 138.79 o
22 10 7 4218.91 4745.56 196.22 o
23 10 7 0.04 14.36 100.50 o
24 10 7 5.10 0.00 136.87 o
1 11 7 34.82 29.67 43.07 o
2 11 7 202.67 272.79 49.77 o
3 11 7 307.04 402.96 49.77 o
4 11 7 59.13 33.50 52.64 o
5 11 7 2.79 0.00 53.60 o
6 11 7 29.90 22.97 62.21 o
7 11 7 570.08 583.86 77.53 o
8 11 7 25.34 60.30 72.74 o
9 11 7 1022.97 915.04 84.23 o
10 11 7 3.25 27.76 68.92 o
11 11 7 235.15 229.72 80.40 o
12 11 7 120.34 134.00 81.36 o
13 11 7 333.86 278.53 81.36 o
14 11 7 35.37 55.51 77.53 o
15 11 7 743.72 696.81 90.93 o
16 11 7 184.57 104.33 81.36 o
17 11 7 0.83 1.91 114.86 o
18 11 7 110.31 67.00 85.19 o
19 11 7 54.94 2.87 134.00 o
20 11 7 1.14 3.83 87.10 o
21 11 7 0.14 0.96 91.89 o
22 11 7 41.04 0.00 94.76 o
23 11 7 84.19 1.91 128.26 o
0 12 7 19985.23 19443.61 484.32 o
1 12 7 260.64 296.72 54.56 o
2 12 7 1830.96 2042.56 87.10 o
3 12 7 140.47 91.89 58.39 o
4 12 7 14656.69 14057.71 355.10 o
5 12 7 39.89 365.63 86.14 o
6 12 7 22706.30 23707.72 532.18 o
7 12 7 96.33 77.53 68.92 o
8 12 7 32.96 26.80 62.21 o
9 12 7 619.43 810.71 112.94 o
10 12 7 11901.34 12274.53 323.52 o
11 12 7 1194.76 1365.86 120.60 o
12 12 7 4137.18 4119.59 172.29 o
13 12 7 75.44 64.13 75.62 o
14 12 7 940.52 946.62 108.16 o
15 12 7 37.26 92.84 90.93 o
16 12 7 5001.90 4873.82 188.56 o
17 12 7 1.80 25.84 90.93 o
18 12 7 542.51 564.72 113.90 o
19 12 7 122.96 149.32 96.67 o
20 12 7 2115.97 2408.20 180.90 o
21 12 7 70.00 149.32 103.37 o
1 13 7 482.03 496.76 67.96 o
2 13 7 862.37 896.85 89.02 o
3 13 7 4072.55 3833.40 202.92 o
4 13 7 878.26 943.75 92.84 o
5 13 7 4.44 16.27 64.13 o
6 13 7 88.77 42.11 67.00 o
7 13 7 2330.38 2409.15 134.96 o
8 13 7 935.62 792.52 114.86 o
9 13 7 606.92 588.65 86.14 o
10 13 7 5.60 25.84 79.44 o
11 13 7 209.48 201.96 83.27 o
12 13 7 68.26 135.92 80.40 o
13 13 7 1043.94 1004.05 107.20 o
14 13 7 0.13 0.96 82.32 o
15 13 7 214.86 212.49 93.80 o
16 13 7 273.96 173.24 89.02 o
17 13 7 339.18 343.62 98.59 o
18 13 7 144.96 149.32 102.42 o
19 13 7 449.58 510.16 133.04 o
20 13 7 26.75 101.46 137.83 o
0 14 7 5959.77 4814.48 233.55 o
1 14 7 2.73 1.91 72.74 o
2 14 7 980.33 888.24 87.10 o
3 14 7 66.82 4.79 62.21 o
4 14 7 3434.84 3294.52 145.49 o
5 14 7 118.15 121.56 71.79 o
6 14 7 5605.51 5348.57 190.47 o
7 14 7 106.95 49.77 70.83 o
8 14 7 51.53 16.27 97.63 o
9 14 7 4.87 4.79 77.53 o
10 14 7 3031.93 3019.82 291.93 o
11 14 7 639.97 862.39 109.12 o
12 14 7 1696.54 1862.62 146.44 o
13 14 7 5.06 1.91 90.93 o
14 14 7 531.35 581.95 102.42 o
15 14 7 16.55 10.53 115.82 o
16 14 7 2781.26 2630.26 166.54 o
17 14 7 1.54 12.44 114.86 o
18 14 7 458.38 342.66 168.46 o
1 15 7 419.74 339.79 98.59 o
2 15 7 123.25 142.62 80.40 o
3 15 7 4152.06 3797.03 189.52 o
4 15 7 182.69 143.57 72.74 o
5 15 7 64.41 48.81 73.70 o
6 15 7 53.24 18.19 70.83 o
7 15 7 3125.47 3082.03 156.02 o
8 15 7 294.86 266.09 114.86 o
9 15 7 1880.83 1764.99 142.62 o
10 15 7 10.64 2.87 85.19 o
11 15 7 9.50 2.87 116.77 o
12 15 7 11.41 0.00 91.89 o
13 15 7 1423.38 1268.23 140.70 o
14 15 7 4.84 4.79 108.16 o
15 15 7 693.28 600.13 135.92 o
0 16 7 3013.89 2742.24 265.13 o
1 16 7 54.64 81.36 102.42 o
2 16 7 368.50 458.48 111.03 o
3 16 7 25.55 0.96 118.69 o
4 16 7 1961.57 2182.31 148.36 o
5 16 7 62.68 168.46 106.24 o
6 16 7 1831.89 2048.31 135.92 o
7 16 7 0.31 0.96 83.27 o
8 16 7 8.41 5.74 87.10 o
9 16 7 20.14 24.89 90.93 o
10 16 7 1268.82 1447.22 143.57 o
11 16 7 33.64 114.86 104.33 o
12 16 7 577.45 735.09 136.87 o
1 17 7 594.26 504.42 119.64 o
2 17 7 46.26 11.49 101.46 o
3 17 7 4604.63 4121.50 230.67 o
4 17 7 132.94 100.50 220.15 o
5 17 7 267.75 161.76 140.70 o
6 17 7 2.90 4.79 153.14 o
0 0 8 58275.49 8969.48 32.54 o
1 0 8 78996.19 69702.76 1940.15 o
2 0 8 1117.07 127.30 208.66 o
3 0 8 20117.11 20069.58 386.69 o
4 0 8 39418.92 46622.92 1353.41 o
5 0 8 170916.06 168193.78 3395.02 o
6 0 8 41028.88 54265.79 1700.86 o
7 0 8 29021.55 30395.35 826.02 o
8 0 8 19472.50 18716.17 329.26 o
9 0 8 9061.47 8530.15 199.09 o
10 0 8 14951.55 16663.08 418.28 o
11 0 8 23173.03 23038.67 548.45 o
12 0 8 12455.43 11721.29 268.00 o
13 0 8 805.10 1156.24 82.32 o
14 0 8 4565.95 4939.87 146.44 o
15 0 8 2813.74 3332.81 126.34 o
16 0 8 6763.71 6611.06 193.34 o
17 0 8 1686.36 1483.59 134.00 o
18 0 8 123.70 162.72 76.57 o
19 0 8 783.34 985.87 100.50 o
20 0 8 8146.57 8981.92 281.40 o
21 0 8 8757.91 10111.36 425.93 o
22 0 8 4302.49 4642.19 187.60 o
23 0 8 1043.12 1204.10 125.39 o
24 0 8 0.05 3.83 108.16 o
25 0 8 113.65 14.36 203.87 o
26 0 8 1145.29 1144.75 252.69 o
27 0 8 958.66 1044.25 510.16 o
28 0 8 367.71 435.50 241.20 o
29 0 8 193.03 116.77 285.23 o
1 1 8 155.60 291.93 35.41 o
2 1 8 67.48 88.06 33.50 o
3 1 8 2950.11 3147.12 79.44 o
4 1 8 788.78 647.04 31.59 o
5 1 8 426.85 522.61 29.67 o
6 1 8 1205.98 966.72 52.64 o
7 1 8 5704.62 5961.15 98.59 o
8 1 8 556.93 590.56 33.50 o
9 1 8 1943.69 2225.38 65.09 o
10 1 8 9.87 13.40 34.46 o
11 1 8 181.43 255.56 36.37 o
12 1 8 273.64 259.39 40.20 o
13 1 8 479.25 438.38 54.56 o
14 1 8 4.49 9.57 41.16 o
15 1 8 4.87 3.83 41.16 o
16 1 8 2.19 10.53 43.07 o
17 1 8 9.17 3.83 44.99 o
18 1 8 4.60 0.00 47.86 o
19 1 8 28.64 8.61 53.60 o
20 1 8 83.86 44.03 56.47 o
21 1 8 33.46 15.31 61.26 o
22 1 8 63.60 9.57 78.49 o
23 1 8 80.44 3.83 82.32 o
24 1 8 13.76 2.87 82.32 o
25 1 8 71.69 9.57 105.29 o
26 1 8 2.79 4.79 100.50 o
27 1 8 5.39 2.87 149.32 o
28 1 8 1.33 1.91 153.14 o
29 1 8 74.84 134.96 166.54 o
0 2 8 57637.48 28861.03 2403.41 o
1 2 8 13499.53 12722.48 338.83 o
2 2 8 356.82 109.12 25.84 o
3 2 8 16450.40 14537.24 277.57 o
4 2 8 91588.00 84150.97 1156.24 o
5 2 8 76997.72 73399.27 1070.10 o
6 2 8 58610.86 58947.22 804.01 o
7 2 8 23751.52 24437.07 329.26 o
8 2 8 3237.63 3459.15 98.59 o
9 2 8 2036.30 1560.16 74.66 o
10 2 8 30527.18 29385.55 452.73 o
11 2 8 21282.16 21957.09 270.87 o
12 2 8 9090.25 7937.67 146.44 o
13 2 8 268.17 279.49 43.07 o
14 2 8 5050.61 4854.68 94.76 o
15 2 8 1391.55 1589.83 63.17 o
16 2 8 2831.43 2485.73 84.23 o
17 2 8 859.04 967.68 57.43 o
18 2 8 1.93 35.41 49.77 o
19 2 8 1418.71 1314.17 68.92 o
20 2 8 6208.87 6818.76 174.20 o
21 2 8 7758.09 9022.12 202.92 o
22 2 8 2263.12 2618.77 134.00 o
23 2 8 281.40 409.66 89.97 o
24 2 8 40.09 5.74 85.19 o
25 2 8 526.26 459.43 107.20 o
26 2 8 1159.87 1275.88 118.69 o
27 2 8 852.95 1305.56 143.57 o
28 2 8 506.86 623.11 294.80 o
29 2 8 88.38 106.24 181.86 o
1 3 8 1926.44 1818.59 74.66 o
2 3 8 13262.19 12649.73 159.84 o
3 3 8 23668.91 25529.18 424.98 o
4 3 8 5387.03 5070.04 115.82 o
5 3 8 673.66 595.35 31.59 o
6 3 8 2498.91 2460.84 75.62 o
7 3 8 8722.84 8114.74 143.57 o
8 3 8 7905.24 8376.04 145.49 o
9 3 8 4581.22 4824.05 90.93 o
10 3 8 5.72 6.70 35.41 o
11 3 8 744.86 779.12 47.86 o
12 3 8 139.26 175.16 38.29 o
13 3 8 2673.33 2722.14 67.96 o
14 3 8 963.20 1014.58 56.47 o
15 3 8 219.99 228.76 42.11 o
16 3 8 80.45 76.57 45.94 o
17 3 8 1318.88 1415.63 66.04 o
18 3 8 1471.12 1478.80 79.44 o
19 3 8 1070.47 820.28 75.62 o
20 3 8 369.30 421.15 83.27 o
21 3 8 24.27 73.70 74.66 o
22 3 8 79.07 58.39 84.23 o
23 3 8 257.72 121.56 91.89 o
24 3 8 384.33 416.36 96.67 o
25 3 8 265.18 103.37 90.93 o
26 3 8 99.66 83.27 94.76 o
27 3 8 7.06 2.87 93.80 o
28 3 8 46.81 17.23 118.69 o
29 3 8 116.77 13.40 198.13 o
0 4 8 6706.20 6638.81 293.85 o
1 4 8 19584.45 18099.76 256.52 o
2 4 8 1638.95 1750.63 41.16 o
3 4 8 14474.51 13729.40 189.52 o
4 4 8 28214.87 27927.81 498.68 o
5 4 8 35698.14 33363.48 523.56 o
6 4 8 23015.67 24390.17 356.06 o
7 4 8 13422.63 13215.41 264.17 o
8 4 8 4329.65 3847.75 85.19 o
9 4 8 1514.14 1306.51 59.34 o
10 4 8 8176.53 9323.63 137.83 o
11 4 8 9678.93 9987.89 171.33 o
12 4 8 2386.88 1927.71 67.96 o
13 4 8 67.78 89.97 30.63 o
14 4 8 1712.80 1555.37 74.66 o
15 4 8 3246.44 3448.62 94.76 o
16 4 8 536.87 408.70 61.26 o
17 4 8 155.20 142.62 60.30 o
18 4 8 652.69 799.22 78.49 o
19 4 8 1186.79 1261.53 93.80 o
20 4 8 3715.21 3822.87 144.53 o
21 4 8 4298.96 5115.98 178.03 o
22 4 8 2360.77 2279.94 132.09 o
23 4 8 322.42 491.02 98.59 o
24 4 8 2.25 7.66 84.23 o
25 4 8 171.44 245.99 100.50 o
26 4 8 778.38 839.42 113.90 o
27 4 8 490.30 643.21 111.03 o
28 4 8 206.54 114.86 104.33 o
29 4 8 64.23 134.00 193.34 o
1 5 8 2738.38 2581.44 68.92 o
2 5 8 13698.69 12399.92 249.82 o
3 5 8 19303.48 20138.50 308.20 o
4 5 8 11773.58 11883.05 181.86 o
5 5 8 1455.32 1426.16 67.00 o
6 5 8 2775.69 2342.15 64.13 o
7 5 8 7971.50 8777.09 223.02 o
8 5 8 19646.96 20126.06 290.97 o
9 5 8 11604.55 11582.51 273.75 o
10 5 8 2637.19 2278.02 69.87 o
11 5 8 330.43 312.03 41.16 o
12 5 8 521.85 469.00 45.94 o
13 5 8 7220.37 6868.53 142.62 o
14 5 8 3599.40 3317.49 100.50 o
15 5 8 863.47 873.88 60.30 o
16 5 8 210.09 135.92 65.09 o
17 5 8 2959.14 2808.29 146.44 o
18 5 8 2648.18 2610.16 110.07 o
19 5 8 3091.87 2959.52 115.82 o
20 5 8 1276.17 1285.46 103.37 o
21 5 8 25.85 0.96 75.62 o
22 5 8 207.10 252.69 89.97 o
23 5 8 946.50 963.85 106.24 o
24 5 8 1136.69 1194.53 116.77 o
25 5 8 715.10 711.16 109.12 o
26 5 8 171.86 241.20 109.12 o
27 5 8 16.83 79.44 101.46 o
28 5 8 102.09 116.77 124.43 o
0 6 8 13119.91 12994.31 260.35 o
1 6 8 12734.10 12264.96 258.43 o
2 6 8 2469.95 2732.67 87.10 o
3 6 8 6525.05 6332.52 135.92 o
4 6 8 28765.09 28482.96 436.46 o
5 6 8 13278.09 12314.73 285.23 o
6 6 8 12351.32 12433.42 181.86 o
7 6 8 11528.52 11108.72 160.80 o
8 6 8 150.46 81.36 34.46 o
9 6 8 499.63 429.76 46.90 o
10 6 8 6710.83 7142.28 161.76 o
11 6 8 7425.37 7074.32 162.72 o
12 6 8 477.79 416.36 55.51 o
13 6 8 131.66 199.09 49.77 o
14 6 8 1879.22 1566.86 77.53 o
15 6 8 2411.36 2434.04 100.50 o
16 6 8 49.96 0.96 60.30 o
17 6 8 270.09 253.65 67.00 o
18 6 8 442.30 333.09 73.70 o
19 6 8 164.39 33.50 72.74 o
20 6 8 2010.47 1922.92 111.03 o
21 6 8 2083.48 2221.55 140.70 o
22 6 8 911.97 729.35 96.67 o
23 6 8 475.73 479.53 110.07 o
24 6 8 19.07 10.53 99.54 o
25 6 8 73.53 16.27 104.33 o
26 6 8 265.62 211.53 113.90 o
27 6 8 269.89 301.50 153.14 o
1 7 8 10924.35 10365.01 198.13 o
2 7 8 7234.88 6585.21 195.26 o
3 7 8 29797.38 28850.50 461.35 o
4 7 8 8134.06 8425.82 201.96 o
5 7 8 410.27 298.63 43.07 o
6 7 8 2579.63 2213.89 121.56 o
7 7 8 23536.24 23657.95 378.08 o
8 7 8 13010.33 13668.14 368.50 o
9 7 8 14420.65 13863.40 287.15 o
10 7 8 3619.86 3725.24 120.60 o
11 7 8 8.69 1.91 32.54 o
12 7 8 762.71 709.25 58.39 o
13 7 8 10405.98 10011.82 209.62 o
14 7 8 2362.05 2672.37 112.94 o
15 7 8 1308.89 1346.71 91.89 o
16 7 8 224.89 298.63 69.87 o
17 7 8 5438.52 5695.06 208.66 o
18 7 8 2432.89 2399.58 134.96 o
19 7 8 3391.87 3422.78 217.27 o
20 7 8 1343.21 1725.75 118.69 o
21 7 8 141.08 93.80 87.10 o
22 7 8 185.98 151.23 91.89 o
23 7 8 1942.40 1886.55 145.49 o
24 7 8 1540.22 1812.85 156.02 o
25 7 8 746.51 652.78 119.64 o
26 7 8 316.35 313.95 120.60 o
27 7 8 74.28 85.19 119.64 o
0 8 8 95.77 61.26 52.64 o
1 8 8 1556.41 1549.63 61.26 o
2 8 8 53.01 24.89 38.29 o
3 8 8 1941.57 2055.01 65.09 o
4 8 8 3748.79 3799.90 106.24 o
5 8 8 1784.25 1854.96 92.84 o
6 8 8 431.90 486.23 48.81 o
7 8 8 3175.25 3104.05 92.84 o
8 8 8 959.09 862.39 57.43 o
9 8 8 94.25 99.54 43.07 o
10 8 8 138.09 161.76 44.99 o
11 8 8 1542.42 1714.26 89.02 o
12 8 8 1123.25 1236.64 78.49 o
13 8 8 0.14 4.79 53.60 o
14 8 8 65.77 114.86 64.13 o
15 8 8 166.65 177.07 72.74 o
16 8 8 5.25 11.49 68.92 o
17 8 8 31.64 50.73 78.49 o
18 8 8 678.64 617.36 96.67 o
19 8 8 7.99 11.49 82.32 o
20 8 8 572.58 594.39 106.24 o
21 8 8 356.20 273.75 99.54 o
22 8 8 281.92 253.65 99.54 o
23 8 8 147.03 96.67 127.30 o
24 8 8 10.56 13.40 106.24 o
25 8 8 11.59 34.46 108.16 o
26 8 8 136.19 92.84 116.77 o
1 9 8 3283.14 3929.11 101.46 o
2 9 8 11766.64 12172.11 220.15 o
3 9 8 9115.61 9886.43 171.33 o
4 9 8 7574.14 7377.73 186.64 o
5 9 8 2131.32 1935.36 86.14 o
6 9 8 2672.97 2859.02 87.10 o
7 9 8 5714.62 6143.01 133.04 o
8 9 8 6784.91 7009.23 136.87 o
9 9 8 3901.78 3804.68 112.94 o
10 9 8 1886.23 1629.07 73.70 o
11 9 8 84.58 59.34 55.51 o
12 9 8 2719.77 2789.14 111.99 o
13 9 8 2152.23 2322.05 121.56 o
14 9 8 2032.97 1905.69 116.77 o
15 9 8 1225.77 1214.63 96.67 o
16 9 8 33.74 44.03 68.92 o
17 9 8 1881.63 1842.52 111.99 o
18 9 8 2628.25 2760.43 136.87 o
19 9 8 3089.27 3184.45 184.73 o
20 9 8 1002.26 1244.30 116.77 o
21 9 8 288.92 272.79 97.63 o
22 9 8 50.54 74.66 115.82 o
23 9 8 1195.36 1090.20 176.12 o
24 9 8 1076.00 1110.30 197.17 o
25 9 8 876.60 927.48 141.66 o
0 10 8 15.98 13.40 60.30 o
1 10 8 252.41 284.27 49.77 o
2 10 8 6.60 10.53 39.24 o
3 10 8 9.86 22.97 41.16 o
4 10 8 233.06 250.77 44.99 o
5 10 8 22.66 44.99 44.99 o
6 10 8 0.20 8.61 47.86 o
7 10 8 425.15 606.83 55.51 o
8 10 8 129.80 134.00 60.30 o
9 10 8 58.95 61.26 61.26 o
10 10 8 121.21 111.03 64.13 o
11 10 8 61.14 123.47 63.17 o
12 10 8 46.84 64.13 67.00 o
13 10 8 379.97 253.65 75.62 o
14 10 8 149.35 80.40 72.74 o
15 10 8 208.21 172.29 78.49 o
16 10 8 4.09 23.93 80.40 o
17 10 8 0.08 4.79 80.40 o
18 10 8 2.88 33.50 81.36 o
19 10 8 41.70 61.26 86.14 o
20 10 8 206.90 137.83 91.89 o
21 10 8 195.70 10.53 114.86 o
22 10 8 0.79 0.96 131.13 o
23 10 8 7.05 0.96 125.39 o
24 10 8 8.81 3.83 160.80 o
1 11 8 7853.63 7739.54 173.24 o
2 11 8 4905.74 6342.10 183.77 o
3 11 8 19294.35 18425.19 360.85 o
4 11 8 3738.07 4200.94 177.07 o
5 11 8 237.42 257.47 58.39 o
6 11 8 685.32 1124.65 95.72 o
7 11 8 22031.86 20402.67 476.66 o
8 11 8 5092.96 6075.05 189.52 o
9 11 8 6480.22 5921.91 209.62 o
10 11 8 5514.13 5355.27 181.86 o
11 11 8 1247.99 1285.46 108.16 o
12 11 8 1405.57 1621.42 117.73 o
13 11 8 4104.02 4183.72 238.33 o
14 11 8 4116.68 4531.16 202.92 o
15 11 8 661.82 654.69 97.63 o
16 11 8 52.96 54.56 81.36 o
17 11 8 1797.18 1591.75 129.22 o
18 11 8 1904.26 2024.38 143.57 o
19 11 8 1884.14 1758.29 144.53 o
20 11 8 840.64 1057.65 127.30 o
21 11 8 33.01 2.87 161.76 o
22 11 8 65.94 64.13 125.39 o
0 12 8 2002.85 2145.94 118.69 o
1 12 8 720.71 848.99 64.13 o
2 12 8 787.13 863.35 68.92 o
3 12 8 1.30 0.96 53.60 o
4 12 8 610.84 602.05 78.49 o
5 12 8 1150.27 1111.25 94.76 o
6 12 8 562.49 657.56 83.27 o
7 12 8 192.21 229.72 72.74 o
8 12 8 2.40 4.79 64.13 o
9 12 8 540.99 559.93 85.19 o
10 12 8 674.37 633.64 87.10 o
11 12 8 330.07 376.16 89.02 o
12 12 8 246.34 277.57 86.14 o
13 12 8 61.62 15.31 78.49 o
14 12 8 313.74 398.18 89.97 o
15 12 8 384.58 629.81 127.30 o
16 12 8 692.37 973.42 128.26 o
17 12 8 178.10 268.00 152.19 o
18 12 8 12.03 22.01 89.02 o
19 12 8 2.55 3.83 91.89 o
20 12 8 254.34 302.46 110.07 o
21 12 8 82.32 141.66 160.80 o
1 13 8 1056.43 1170.60 84.23 o
2 13 8 4891.38 5182.98 159.84 o
3 13 8 4070.08 4564.66 165.59 o
4 13 8 3458.66 3631.44 151.23 o
5 13 8 667.01 581.95 86.14 o
6 13 8 364.95 425.93 85.19 o
7 13 8 3048.10 3114.58 146.44 o
8 13 8 2727.68 3028.43 140.70 o
9 13 8 1845.24 1828.16 156.02 o
10 13 8 1462.55 1421.37 121.56 o
11 13 8 0.60 3.83 81.36 o
12 13 8 1312.58 1204.10 119.64 o
13 13 8 1054.87 1265.36 119.64 o
14 13 8 1868.85 1899.95 156.97 o
15 13 8 897.25 818.37 117.73 o
16 13 8 0.18 0.96 89.97 o
17 13 8 558.68 631.72 111.99 o
18 13 8 1069.22 1058.61 129.22 o
19 13 8 1756.26 1857.83 152.19 o
0 14 8 1091.85 1795.62 177.07 o
1 14 8 155.98 260.35 80.40 o
2 14 8 472.32 486.23 79.44 o
3 14 8 42.53 2.87 64.13 o
4 14 8 979.34 1043.30 102.42 o
5 14 8 652.42 558.02 90.93 o
6 14 8 608.34 623.11 89.02 o
7 14 8 423.81 335.00 84.23 o
8 14 8 43.20 26.80 72.74 o
9 14 8 363.74 350.32 89.97 o
10 14 8 826.43 928.44 113.90 o
11 14 8 1042.86 1039.47 123.47 o
12 14 8 1148.92 1028.94 121.56 o
13 14 8 194.42 205.79 126.34 o
14 14 8 94.11 80.40 104.33 o
15 14 8 511.07 622.15 113.90 o
16 14 8 882.59 1050.95 169.42 o
17 14 8 181.07 192.39 106.24 o
1 15 8 955.58 814.54 120.60 o
2 15 8 792.99 792.52 106.24 o
3 15 8 2811.14 2671.41 179.94 o
4 15 8 1053.18 1087.33 106.24 o
5 15 8 13.16 1.91 72.74 o
6 15 8 98.62 12.44 72.74 o
7 15 8 1738.97 1685.55 127.30 o
8 15 8 1080.86 1202.18 193.34 o
9 15 8 722.90 681.49 105.29 o
10 15 8 310.82 419.23 106.24 o
11 15 8 33.02 5.74 102.42 o
12 15 8 514.45 393.39 119.64 o
13 15 8 891.06 862.39 131.13 o
14 15 8 740.99 731.26 126.34 o
0 16 8 2478.97 2507.74 321.60 o
1 16 8 1413.46 1506.56 154.10 o
2 16 8 615.42 656.61 123.47 o
3 16 8 240.96 48.81 101.46 o
4 16 8 2278.86 2292.38 148.36 o
5 16 8 1837.10 1733.40 154.10 o
6 16 8 1746.98 1628.12 130.17 o
7 16 8 598.77 534.09 116.77 o
8 16 8 8.54 3.83 91.89 o
9 16 8 460.24 414.45 113.90 o
10 16 8 1707.36 1496.03 147.40 o
11 16 8 1420.61 1461.57 145.49 o
1 17 8 92.35 15.31 149.32 o
2 17 8 230.46 303.42 121.56 o
3 17 8 493.81 588.65 131.13 o
4 17 8 383.00 390.52 116.77 o
5 17 8 17.89 3.83 130.17 o
1 1 9 473.71 1213.67 93.80 o
2 1 9 110008.82 103840.56 1558.24 o
3 1 9 0.28 150.27 283.32 o
4 1 9 73502.84 71511.77 1025.11 o
5 1 9 488.05 239.29 42.11 o
6 1 9 16498.94 16076.34 251.73 o
7 1 9 896.68 2012.89 202.92 o
8 1 9 77370.46 75000.59 999.27 o
9 1 9 1413.36 2605.37 108.16 o
10 1 9 7747.53 6985.30 121.56 o
11 1 9 2175.41 2008.11 64.13 o
12 1 9 16704.61 16331.90 231.63 o
13 1 9 651.19 823.15 54.56 o
14 1 9 10779.35 9828.05 174.20 o
15 1 9 538.15 583.86 51.69 o
16 1 9 730.47 450.82 57.43 o
17 1 9 1793.49 1845.39 85.19 o
18 1 9 15671.64 16013.17 255.56 o
19 1 9 578.24 791.57 83.27 o
20 1 9 7591.02 8082.20 168.46 o
21 1 9 10.51 20.10 62.21 o
22 1 9 1534.04 1522.83 102.42 o
23 1 9 87.84 123.47 76.57 o
24 1 9 4653.03 4748.44 188.56 o
25 1 9 54.70 102.42 118.69 o
26 1 9 753.47 719.78 125.39 o
27 1 9 45.58 72.74 160.80 o
28 1 9 995.56 1322.79 191.43 o
29 1 9 8.81 111.99 174.20 o
0 2 9 153.62 158.89 96.67 o
1 2 9 5885.26 5137.04 119.64 o
2 2 9 721.50 725.52 30.63 o
3 2 9 1853.32 1712.35 58.39 o
4 2 9 483.73 665.22 33.50 o
5 2 9 5143.52 4499.58 83.27 o
6 2 9 169.58 178.03 32.54 o
7 2 9 1971.34 1937.28 61.26 o
8 2 9 876.42 758.07 45.94 o
9 2 9 761.34 792.52 45.94 o
10 2 9 56.20 34.46 38.29 o
11 2 9 3684.07 3352.91 87.10 o
12 2 9 135.01 156.02 43.07 o
13 2 9 68.97 77.53 44.99 o
14 2 9 8.12 7.66 42.11 o
15 2 9 2872.00 3034.17 88.06 o
16 2 9 14.97 10.53 46.90 o
17 2 9 731.99 728.39 57.43 o
18 2 9 151.47 159.84 55.51 o
19 2 9 725.57 812.62 68.92 o
20 2 9 12.50 64.13 67.00 o
21 2 9 1332.92 1247.17 89.97 o
22 2 9 132.68 85.19 88.06 o
23 2 9 3.93 2.87 82.32 o
24 2 9 11.40 4.79 84.23 o
25 2 9 308.57 215.36 94.76 o
26 2 9 25.10 27.76 97.63 o
27 2 9 138.64 59.34 115.82 o
28 2 9 0.71 0.96 158.89 o
29 2 9 4.72 0.96 187.60 o
1 3 9 24.78 25.84 56.47 o
2 3 9 56383.28 54727.13 803.05 o
3 3 9 1127.78 1233.77 108.16 o
4 3 9 21977.17 20610.38 265.13 o
5 3 9 108.29 69.87 26.80 o
6 3 9 5294.85 5184.90 93.80 o
7 3 9 365.57 593.43 47.86 o
8 3 9 32188.76 31685.59 405.83 o
9 3 9 542.82 993.52 66.04 o
10 3 9 5464.35 4533.08 118.69 o
11 3 9 51.41 52.64 39.24 o
12 3 9 5405.09 5093.97 118.69 o
13 3 9 622.58 695.85 50.73 o
14 3 9 6426.40 6023.36 126.34 o
15 3 9 163.24 169.42 48.81 o
16 3 9 964.97 688.19 56.47 o
17 3 9 543.26 671.92 56.47 o
18 3 9 9614.21 9602.16 197.17 o
19 3 9 114.37 178.99 67.00 o
20 3 9 3987.91 4346.43 152.19 o
21 3 9 25.40 61.26 74.66 o
22 3 9 1204.90 1313.21 113.90 o
23 3 9 11.29 45.94 89.02 o
24 3 9 3070.82 2892.52 145.49 o
25 3 9 22.41 45.94 92.84 o
26 3 9 769.46 776.25 110.07 o
27 3 9 0.17 1.91 95.72 o
28 3 9 565.76 583.86 131.13 o
0 4 9 1586.77 1943.02 118.69 o
1 4 9 19760.22 19600.58 320.65 o
2 4 9 1893.11 2157.42 73.70 o
3 4 9 1831.77 2167.95 72.74 o
4 4 9 2102.45 2526.88 63.17 o
5 4 9 21566.43 19586.22 278.53 o
6 4 9 1300.85 1490.29 59.34 o
7 4 9 6624.54 5848.20 126.34 o
8 4 9 0.40 7.66 20.10 o
9 4 9 2799.10 2539.33 71.79 o
10 4 9 505.44 494.85 44.03 o
11 4 9 10424.77 8967.57 226.85 o
12 4 9 30.90 82.32 41.16 o
13 4 9 133.91 156.02 32.54 o
14 4 9 3.26 16.27 37.33 o
15 4 9 3636.40 3432.35 94.76 o
16 4 9 856.48 948.54 66.04 o
17 4 9 4230.13 4022.91 121.56 o
18 4 9 1266.39 1193.57 88.06 o
19 4 9 0.34 22.97 68.92 o
20 4 9 178.21 79.44 71.79 o
21 4 9 2926.20 2879.12 129.22 o
22 4 9 60.87 90.93 88.06 o
23 4 9 761.92 704.46 104.33 o
24 4 9 0.68 19.14 106.24 o
25 4 9 293.02 175.16 94.76 o
26 4 9 34.23 11.49 112.94 o
27 4 9 762.28 783.91 117.73 o
28 4 9 2.90 5.74 109.12 o
1 5 9 661.22 1280.67 96.67 o
2 5 9 37219.34 33057.19 558.98 o
3 5 9 1419.02 1883.68 114.86 o
4 5 9 14307.27 13412.58 223.02 o
5 5 9 67.31 89.02 37.33 o
6 5 9 1252.31 1459.66 54.56 o
7 5 9 69.55 220.15 63.17 o
8 5 9 25417.94 23669.44 357.98 o
9 5 9 337.58 649.91 67.00 o
10 5 9 4796.86 4105.23 109.12 o
11 5 9 0.66 22.01 32.54 o
12 5 9 4843.38 4629.75 104.33 o
13 5 9 542.64 577.16 52.64 o
14 5 9 9734.20 9293.00 192.39 o
15 5 9 677.33 677.66 63.17 o
16 5 9 640.25 532.18 75.62 o
17 5 9 2821.51 3038.00 120.60 o
18 5 9 8146.05 8164.51 198.13 o
19 5 9 499.83 699.68 81.36 o
20 5 9 3175.99 3539.55 126.34 o
21 5 9 61.60 4.79 78.49 o
22 5 9 827.83 782.95 105.29 o
23 5 9 44.37 35.41 91.89 o
24 5 9 1733.61 1610.89 126.34 o
25 5 9 2.37 2.87 128.26 o
26 5 9 227.03 249.82 111.99 o
27 5 9 35.99 2.87 148.36 o
28 5 9 547.24 470.92 124.43 o
0 6 9 482.27 1302.69 297.67 o
1 6 9 38370.21 39792.68 615.45 o
2 6 9 535.00 950.45 73.70 o
3 6 9 3884.57 3694.61 83.27 o
4 6 9 179.53 1161.03 97.63 o
5 6 9 53933.04 51557.05 771.47 o
6 6 9 1318.45 2099.99 113.90 o
7 6 9 8383.22 7207.36 145.49 o
8 6 9 1824.84 1670.23 60.30 o
9 6 9 8550.49 7834.30 167.50 o
10 6 9 43.74 71.79 56.47 o
11 6 9 19161.49 17346.48 308.20 o
12 6 9 1883.06 1974.61 89.97 o
13 6 9 541.56 395.30 56.47 o
14 6 9 123.18 186.64 52.64 o
15 6 9 5287.29 4781.94 153.14 o
16 6 9 12.00 21.06 67.00 o
17 6 9 3602.87 3537.64 116.77 o
18 6 9 231.59 106.24 68.92 o
19 6 9 282.32 276.62 80.40 o
20 6 9 46.84 48.81 88.06 o
21 6 9 4572.68 4472.78 170.37 o
22 6 9 144.10 184.73 92.84 o
23 6 9 970.03 1068.18 124.43 o
24 6 9 1.80 0.96 101.46 o
25 6 9 409.75 448.90 138.79 o
26 6 9 1.49 85.19 111.03 o
27 6 9 1003.80 1037.55 200.04 o
1 7 9 153.63 221.10 47.86 o
2 7 9 9289.56 9025.00 176.12 o
3 7 9 103.56 97.63 43.07 o
4 7 9 4771.27 4683.35 107.20 o
5 7 9 530.76 667.14 47.86 o
6 7 9 4.16 0.96 30.63 o
7 7 9 66.29 85.19 36.37 o
8 7 9 8292.65 8351.16 161.76 o
9 7 9 27.28 143.57 44.99 o
10 7 9 2235.28 2146.89 82.32 o
11 7 9 45.50 58.39 40.20 o
12 7 9 859.57 972.47 69.87 o
13 7 9 264.27 121.56 60.30 o
14 7 9 2336.92 2150.72 107.20 o
15 7 9 2188.02 2067.45 106.24 o
16 7 9 334.06 344.58 74.66 o
17 7 9 209.59 324.47 76.57 o
18 7 9 2393.87 2400.54 132.09 o
19 7 9 147.39 70.83 87.10 o
20 7 9 1303.58 1349.59 114.86 o
21 7 9 67.06 110.07 90.93 o
22 7 9 169.08 80.40 119.64 o
23 7 9 63.45 5.74 111.99 o
24 7 9 606.69 656.61 113.90 o
25 7 9 0.89 0.96 107.20 o
26 7 9 196.72 151.23 109.12 o
0 8 9 5.17 3.83 137.83 o
1 8 9 19453.38 19627.38 345.53 o
2 8 9 717.46 967.68 59.34 o
3 8 9 1312.71 1362.03 67.96 o
4 8 9 809.27 1406.06 70.83 o
5 8 9 33296.07 33018.90 492.93 o
6 8 9 204.60 369.46 63.17 o
7 8 9 5947.15 5638.59 132.09 o
8 8 9 3.76 13.40 41.16 o
9 8 9 3802.06 3599.85 96.67 o
10 8 9 21.85 25.84 53.60 o
11 8 9 21750.96 21589.54 419.23 o
12 8 9 182.86 428.80 67.00 o
13 8 9 103.95 64.13 58.39 o
14 8 9 174.78 189.52 64.13 o
15 8 9 5381.49 5606.04 161.76 o
16 8 9 583.11 622.15 82.32 o
17 8 9 5452.56 5810.88 190.47 o
18 8 9 321.82 309.16 87.10 o
19 8 9 238.98 254.60 86.14 o
20 8 9 5.51 36.37 89.97 o
21 8 9 4695.28 4718.76 178.99 o
22 8 9 3.11 21.06 93.80 o
23 8 9 711.97 714.99 112.94 o
24 8 9 4.67 1.91 104.33 o
25 8 9 723.15 770.51 134.96 o
26 8 9 1.91 0.96 177.07 o
1 9 9 236.59 291.93 47.86 o
2 9 9 772.88 674.79 51.69 o
3 9 9 56.05 61.26 42.11 o
4 9 9 191.16 228.76 45.94 o
5 9 9 67.89 92.84 43.07 o
6 9 9 12.33 2.87 40.20 o
7 9 9 31.59 53.60 46.90 o
8 9 9 1075.84 1092.11 65.09 o
9 9 9 404.50 500.59 58.39 o
10 9 9 75.80 101.46 52.64 o
11 9 9 255.33 389.56 63.17 o
12 9 9 227.24 179.94 63.17 o
13 9 9 16.29 16.27 64.13 o
14 9 9 0.63 7.66 66.04 o
15 9 9 560.37 436.46 82.32 o
16 9 9 34.25 37.33 74.66 o
17 9 9 240.65 286.19 89.02 o
18 9 9 45.02 1.91 81.36 o
19 9 9 67.55 65.09 85.19 o
20 9 9 183.79 126.34 93.80 o
21 9 9 9.92 3.83 89.02 o
22 9 9 4.28 0.00 92.84 o
23 9 9 3.76 2.87 152.19 o
24 9 9 72.58 53.60 131.13 o
25 9 9 5.39 19.14 184.73 o
0 10 9 176.80 252.69 131.13 o
1 10 9 16310.46 15530.76 286.19 o
2 10 9 5.73 51.69 45.94 o
3 10 9 560.49 551.32 48.81 o
4 10 9 243.37 459.43 54.56 o
5 10 9 21240.09 18810.93 333.09 o
6 10 9 295.13 699.68 71.79 o
7 10 9 4917.83 5020.27 120.60 o
8 10 9 1.59 2.87 50.73 o
9 10 9 899.48 840.38 71.79 o
10 10 9 10.16 22.97 65.09 o
11 10 9 17288.75 15490.56 358.93 o
12 10 9 31.30 96.67 74.66 o
13 10 9 2.88 0.96 76.57 o
14 10 9 195.75 115.82 79.44 o
15 10 9 6080.69 5765.89 194.30 o
16 10 9 233.43 254.60 90.93 o
17 10 9 5449.15 5419.40 193.34 o
18 10 9 24.97 20.10 87.10 o
19 10 9 366.37 326.39 97.63 o
20 10 9 62.29 231.63 99.54 o
21 10 9 4127.62 4262.20 207.70 o
22 10 9 34.91 150.27 103.37 o
23 10 9 681.23 590.56 150.27 o
1 11 9 0.67 1.91 43.07 o
2 11 9 18.77 79.44 47.86 o
3 11 9 195.00 168.46 51.69 o
4 11 9 154.69 180.90 57.43 o
5 11 9 0.06 0.00 51.69 o
6 11 9 126.18 110.07 66.04 o
7 11 9 109.34 110.07 75.62 o
8 11 9 632.77 571.42 84.23 o
9 11 9 352.45 313.95 78.49 o
10 11 9 170.13 236.42 71.79 o
11 11 9 275.10 152.19 79.44 o
12 11 9 1.98 0.96 75.62 o
13 11 9 127.48 180.90 88.06 o
14 11 9 1065.44 927.48 128.26 o
15 11 9 146.30 105.29 84.23 o
16 11 9 102.99 76.57 89.02 o
17 11 9 58.21 100.50 90.93 o
18 11 9 53.38 20.10 90.93 o
19 11 9 12.53 38.29 102.42 o
20 11 9 13.78 0.96 183.77 o
21 11 9 3.32 0.00 96.67 o
22 11 9 16.35 3.83 111.03 o
0 12 9 77.72 411.58 108.16 o
1 12 9 11557.32 11516.46 250.77 o
2 12 9 67.47 134.96 68.92 o
3 12 9 1165.33 1243.34 85.19 o
4 12 9 1079.33 1336.19 112.94 o
5 12 9 16897.19 16638.19 402.96 o
6 12 9 616.15 1033.73 99.54 o
7 12 9 3455.99 3556.78 158.89 o
8 12 9 116.10 99.54 69.87 o
9 12 9 1262.69 1437.64 111.99 o
10 12 9 184.76 420.19 84.23 o
11 12 9 14210.46 13776.30 350.32 o
12 12 9 10.42 44.03 86.14 o
13 12 9 90.53 92.84 81.36 o
14 12 9 107.02 112.94 89.97 o
15 12 9 4182.18 4302.40 187.60 o
16 12 9 171.58 223.02 106.24 o
17 12 9 3386.75 3342.38 178.03 o
18 12 9 89.17 43.07 127.30 o
19 12 9 222.16 250.77 103.37 o
20 12 9 20.68 116.77 135.92 o
1 13 9 63.88 86.14 55.51 o
2 13 9 2109.39 2376.61 111.99 o
3 13 9 121.18 136.87 80.40 o
4 13 9 1805.67 2005.24 118.69 o
5 13 9 19.77 44.03 69.87 o
6 13 9 726.42 771.47 98.59 o
7 13 9 18.16 20.10 72.74 o
8 13 9 2594.53 2617.81 141.66 o
9 13 9 24.95 66.04 79.44 o
10 13 9 30.59 0.96 82.32 o
11 13 9 273.09 96.67 81.36 o
12 13 9 679.87 903.55 100.50 o
13 13 9 644.14 471.88 99.54 o
14 13 9 1089.01 911.21 118.69 o
15 13 9 43.65 3.83 89.97 o
16 13 9 26.94 36.37 146.44 o
17 13 9 0.39 0.00 104.33 o
18 13 9 394.06 242.16 105.29 o
19 13 9 19.62 2.87 151.23 o
0 14 9 49.31 56.47 105.29 o
1 14 9 4892.76 4430.66 178.03 o
2 14 9 0.20 6.70 70.83 o
3 14 9 143.68 98.59 71.79 o
4 14 9 98.43 151.23 76.57 o
5 14 9 6132.62 5378.24 201.96 o
6 14 9 0.44 34.46 77.53 o
7 14 9 1622.80 1709.48 122.52 o
8 14 9 3.94 8.61 72.74 o
9 14 9 686.57 728.39 107.20 o
10 14 9 3.52 40.20 99.54 o
11 14 9 5394.99 4932.21 223.97 o
12 14 9 65.21 92.84 95.72 o
13 14 9 2.33 4.79 94.76 o
14 14 9 67.37 4.79 90.93 o
15 14 9 2225.89 2353.64 201.00 o
16 14 9 23.07 111.99 146.44 o
1 15 9 8.15 1.91 97.63 o
2 15 9 2378.80 2346.94 148.36 o
3 15 9 0.00 4.79 96.67 o
4 15 9 1972.98 2006.19 132.09 o
5 15 9 32.27 18.19 77.53 o
6 15 9 726.71 669.05 97.63 o
7 15 9 29.74 68.92 121.56 o
8 15 9 3566.46 3078.20 185.69 o
9 15 9 6.91 17.23 100.50 o
10 15 9 140.06 45.94 102.42 o
11 15 9 135.37 0.96 94.76 o
12 15 9 661.01 750.41 132.09 o
13 15 9 200.72 23.93 103.37 o
14 15 9 1667.51 1642.47 197.17 o
0 16 9 44.01 95.72 167.50 o
1 16 9 1625.33 1647.26 165.59 o
2 16 9 0.01 0.00 101.46 o
3 16 9 58.27 2.87 104.33 o
4 16 9 67.24 99.54 135.92 o
5 16 9 2443.18 2821.69 247.90 o
6 16 9 0.13 2.87 83.27 o
7 16 9 469.74 650.86 107.20 o
8 16 9 0.10 0.00 93.80 o
9 16 9 476.69 574.29 111.99 o
10 16 9 40.09 39.24 102.42 o
1 17 9 6.92 0.96 130.17 o
2 17 9 2650.72 2495.30 196.22 o
0 0 10 112015.78 79498.25 11778.72 o
1 0 10 11633.77 13191.48 723.61 o
2 0 10 25013.01 25104.21 626.94 o
3 0 10 1460.62 1094.03 73.70 o
4 0 10 28297.73 27268.33 560.89 o
5 0 10 674.23 2006.19 122.52 o
6 0 10 10191.68 7010.19 201.00 o
7 0 10 7522.47 7324.13 223.97 o
8 0 10 229.23 325.43 49.77 o
9 0 10 9.10 191.43 76.57 o
10 0 10 32212.72 31609.98 625.02 o
11 0 10 10947.16 13479.59 378.08 o
12 0 10 12327.81 11819.88 298.63 o
13 0 10 191.66 346.49 65.09 o
14 0 10 11166.36 11243.68 231.63 o
15 0 10 14677.06 15364.22 314.90 o
16 0 10 13539.65 13663.36 361.80 o
17 0 10 9921.19 10780.41 263.22 o
18 0 10 7528.18 7327.01 220.15 o
19 0 10 153.18 107.20 79.44 o
20 0 10 2526.27 2746.07 147.40 o
21 0 10 2935.37 2948.03 163.67 o
22 0 10 2582.74 2544.11 163.67 o
23 0 10 933.23 816.45 153.14 o
24 0 10 72.26 44.99 122.52 o
25 0 10 330.32 380.95 216.32 o
26 0 10 854.54 430.72 237.37 o
27 0 10 680.51 981.08 493.89 o
28 0 10 679.38 768.59 333.09 o
1 1 10 274.91 228.76 36.37 o
2 1 10 905.16 1086.37 67.96 o
3 1 10 442.13 407.75 36.37 o
4 1 10 44.54 78.49 27.76 o
5 1 10 528.72 410.62 37.33 o
6 1 10 315.49 340.75 42.11 o
7 1 10 3090.97 2627.38 75.62 o
8 1 10 1629.33 1780.30 51.69 o
9 1 10 191.43 156.97 38.29 o
10 1 10 172.94 178.99 41.16 o
11 1 10 439.83 488.15 45.94 o
12 1 10 730.85 719.78 55.51 o
13 1 10 17.06 22.01 44.03 o
14 1 10 482.33 482.41 54.56 o
15 1 10 22.39 38.29 48.81 o
16 1 10 7.43 26.80 49.77 o
17 1 10 3.56 8.61 51.69 o
18 1 10 32.07 7.66 52.64 o
19 1 10 16.56 2.87 57.43 o
20 1 10 106.69 70.83 60.30 o
21 1 10 18.52 19.14 62.21 o
22 1 10 3.07 2.87 72.74 o
23 1 10 38.78 0.96 87.10 o
24 1 10 91.48 0.96 92.84 o
25 1 10 24.87 17.23 109.12 o
26 1 10 7.99 1.91 105.29 o
27 1 10 0.01 1.91 183.77 o
28 1 10 41.93 36.37 171.33 o
0 2 10 30620.68 25718.70 714.99 o
1 2 10 27550.77 30342.70 457.52 o
2 2 10 10291.23 11448.51 154.10 o
3 2 10 1631.48 1378.30 53.60 o
4 2 10 12319.80 9934.29 140.70 o
5 2 10 20228.70 17603.00 298.63 o
6 2 10 4590.18 2977.70 84.23 o
7 2 10 5421.44 4707.28 90.93 o
8 2 10 551.16 660.44 42.11 o
9 2 10 7799.02 6850.34 167.50 o
10 2 10 26612.71 25056.35 367.55 o
11 2 10 13642.04 15570.01 306.29 o
12 2 10 13370.05 12699.50 181.86 o
13 2 10 222.96 104.33 44.03 o
14 2 10 5523.77 4702.49 119.64 o
15 2 10 12962.50 13523.61 215.36 o
16 2 10 8693.36 8678.51 195.26 o
17 2 10 5409.98 5899.89 163.67 o
18 2 10 5665.24 6202.35 134.96 o
19 2 10 220.58 213.45 61.26 o
20 2 10 2631.93 2558.47 129.22 o
21 2 10 1660.96 1745.85 100.50 o
22 2 10 1749.41 1921.01 125.39 o
23 2 10 410.19 461.35 109.12 o
24 2 10 33.61 2.87 88.06 o
25 2 10 276.90 223.97 100.50 o
26 2 10 1100.12 1198.36 141.66 o
27 2 10 700.95 832.72 138.79 o
28 2 10 464.73 633.64 178.03 o
1 3 10 2254.07 1921.96 82.32 o
2 3 10 3165.88 2820.73 58.39 o
3 3 10 7401.95 6841.73 91.89 o
4 3 10 1299.20 1482.63 49.77 o
5 3 10 1010.22 1064.35 47.86 o
6 3 10 23.04 67.00 36.37 o
7 3 10 4408.61 4345.47 81.36 o
8 3 10 1881.54 1956.42 63.17 o
9 3 10 1409.46 1197.40 52.64 o
10 3 10 157.55 280.45 46.90 o
11 3 10 713.36 737.01 52.64 o
12 3 10 3535.45 3451.49 85.19 o
13 3 10 1558.09 1600.36 64.13 o
14 3 10 1424.19 1489.33 62.21 o
15 3 10 381.82 314.90 52.64 o
16 3 10 203.66 132.09 55.51 o
17 3 10 652.47 518.78 57.43 o
18 3 10 706.09 619.28 78.49 o
19 3 10 1022.28 1122.74 82.32 o
20 3 10 542.35 438.38 85.19 o
21 3 10 194.30 210.57 79.44 o
22 3 10 5.06 5.74 76.57 o
23 3 10 258.71 167.50 88.06 o
24 3 10 159.76 1.91 103.37 o
25 3 10 343.44 330.22 101.46 o
26 3 10 4.20 40.20 98.59 o
27 3 10 0.23 2.87 128.26 o
28 3 10 49.06 0.96 144.53 o
0 4 10 21970.51 21499.57 482.41 o
1 4 10 8022.63 10907.71 239.29 o
2 4 10 10215.73 9063.28 201.96 o
3 4 10 103.68 39.24 35.41 o
4 4 10 6595.23 6531.61 134.00 o
5 4 10 5876.37 6724.00 110.07 o
6 4 10 3032.28 2660.89 66.04 o
7 4 10 4992.75 4949.44 131.13 o
8 4 10 6.37 5.74 27.76 o
9 4 10 1995.09 2288.55 101.46 o
10 4 10 17614.97 16444.84 285.23 o
11 4 10 3276.61 4366.53 129.22 o
12 4 10 3079.83 2814.99 81.36 o
13 4 10 13.44 40.20 44.03 o
14 4 10 5528.49 5773.55 122.52 o
15 4 10 4789.68 5222.23 115.82 o
16 4 10 4438.81 4844.15 117.73 o
17 4 10 4493.76 4438.32 121.56 o
18 4 10 4145.20 3928.16 134.00 o
19 4 10 3.05 13.40 70.83 o
20 4 10 1309.43 1648.22 97.63 o
21 4 10 1983.16 2030.12 113.90 o
22 4 10 1404.60 1537.19 112.94 o
23 4 10 396.07 294.80 96.67 o
24 4 10 3.31 1.91 97.63 o
25 4 10 230.89 125.39 94.76 o
26 4 10 679.88 786.78 124.43 o
27 4 10 354.62 267.05 115.82 o
28 4 10 216.79 135.92 159.84 o
1 5 10 4851.40 4331.12 95.72 o
2 5 10 4243.21 5227.01 161.76 o
3 5 10 12516.92 11949.10 217.27 o
4 5 10 1985.10 2514.44 82.32 o
5 5 10 2673.13 2670.46 77.53 o
6 5 10 2.87 4.79 33.50 o
7 5 10 8143.29 7200.66 124.43 o
8 5 10 2702.98 3867.85 91.89 o
9 5 10 8806.61 7765.38 157.93 o
10 5 10 1467.98 1826.25 63.17 o
11 5 10 124.19 41.16 35.41 o
12 5 10 5383.39 5940.09 144.53 o
13 5 10 7564.20 7620.85 150.27 o
14 5 10 5254.55 5288.27 216.32 o
15 5 10 4791.47 4327.29 115.82 o
16 5 10 124.63 149.32 57.43 o
17 5 10 1693.81 1729.58 99.54 o
18 5 10 2391.14 2168.91 108.16 o
19 5 10 3332.86 3614.21 129.22 o
20 5 10 994.65 1058.61 89.97 o
21 5 10 280.13 245.03 82.32 o
22 5 10 66.37 16.27 89.97 o
23 5 10 921.24 873.88 121.56 o
24 5 10 451.65 481.45 114.86 o
25 5 10 808.30 1026.07 133.04 o
26 5 10 22.55 5.74 106.24 o
27 5 10 0.04 11.49 156.02 o
0 6 10 17226.69 16878.44 411.58 o
1 6 10 11020.35 10843.59 231.63 o
2 6 10 4907.65 5214.57 117.73 o
3 6 10 270.75 357.02 44.99 o
4 6 10 4343.29 4365.57 89.97 o
5 6 10 10454.41 9829.96 183.77 o
6 6 10 2029.46 2083.72 89.97 o
7 6 10 1497.99 1512.30 69.87 o
8 6 10 0.44 1.91 29.67 o
9 6 10 4466.41 4140.64 162.72 o
10 6 10 10257.83 9449.01 185.69 o
11 6 10 748.63 1150.50 67.00 o
12 6 10 1886.83 1550.59 68.92 o
13 6 10 465.66 537.92 62.21 o
14 6 10 2086.54 1978.44 89.97 o
15 6 10 2171.42 2233.04 112.94 o
16 6 10 2149.52 2156.47 110.07 o
17 6 10 1437.75 1365.86 99.54 o
18 6 10 3035.19 3243.79 129.22 o
19 6 10 51.41 119.64 77.53 o
20 6 10 207.36 253.65 83.27 o
21 6 10 1078.96 1090.20 111.03 o
22 6 10 687.01 819.32 118.69 o
23 6 10 106.07 113.90 94.76 o
24 6 10 12.04 8.61 97.63 o
25 6 10 63.04 73.70 108.16 o
26 6 10 220.49 303.42 143.57 o
27 6 10 139.91 13.40 109.12 o
1 7 10 4487.25 4914.98 132.09 o
2 7 10 16917.93 17357.97 287.15 o
3 7 10 9065.42 9057.54 249.82 o
4 7 10 5700.62 6190.87 178.99 o
5 7 10 1264.28 1477.84 67.96 o
6 7 10 3332.80 3110.75 101.46 o
7 7 10 8125.01 7526.09 170.37 o
8 7 10 9949.21 10603.34 232.59 o
9 7 10 6308.76 6044.42 120.60 o
10 7 10 1288.87 1555.37 65.09 o
11 7 10 206.48 171.33 51.69 o
12 7 10 10075.58 10195.59 190.47 o
13 7 10 6503.76 6959.46 179.94 o
14 7 10 6829.57 7046.56 244.07 o
15 7 10 4203.34 3901.36 145.49 o
16 7 10 321.84 285.23 77.53 o
17 7 10 1647.50 1737.23 106.24 o
18 7 10 4286.27 4403.86 162.72 o
19 7 10 3090.94 3880.30 147.40 o
20 7 10 822.12 835.59 101.46 o
21 7 10 265.21 194.30 95.72 o
22 7 10 459.14 343.62 104.33 o
23 7 10 1089.10 1177.30 129.22 o
24 7 10 737.73 878.67 125.39 o
25 7 10 1058.99 1458.70 147.40 o
26 7 10 2.97 1.91 107.20 o
0 8 10 4099.82 4760.88 161.76 o
1 8 10 461.70 503.46 52.64 o
2 8 10 280.77 290.02 51.69 o
3 8 10 135.03 170.37 33.50 o
4 8 10 608.10 682.45 62.21 o
5 8 10 1155.55 1273.01 67.96 o
6 8 10 77.41 89.02 37.33 o
7 8 10 381.48 488.15 44.99 o
8 8 10 0.72 0.96 41.16 o
9 8 10 75.32 48.81 45.94 o
10 8 10 2608.33 2383.31 89.02 o
11 8 10 45.43 136.87 60.30 o
12 8 10 1172.05 1066.27 77.53 o
13 8 10 161.28 142.62 60.30 o
14 8 10 234.94 205.79 66.04 o
15 8 10 99.27 182.82 67.96 o
16 8 10 654.59 625.98 84.23 o
17 8 10 672.06 689.15 88.06 o
18 8 10 909.19 977.25 103.37 o
19 8 10 3.09 4.79 83.27 o
20 8 10 25.31 34.46 88.06 o
21 8 10 435.79 290.02 98.59 o
22 8 10 117.76 115.82 100.50 o
23 8 10 37.25 47.86 112.94 o
24 8 10 1.08 2.87 108.16 o
25 8 10 37.38 78.49 160.80 o
1 9 10 4298.97 4537.86 138.79 o
2 9 10 3438.76 4448.85 128.26 o
3 9 10 11434.69 11906.02 290.97 o
4 9 10 3397.32 4266.03 122.52 o
5 9 10 1145.52 1274.93 63.17 o
6 9 10 90.55 164.63 46.90 o
7 9 10 7852.20 8000.84 162.72 o
8 9 10 1862.05 2744.16 156.02 o
9 9 10 3229.67 2962.39 105.29 o
10 9 10 591.75 641.29 67.00 o
11 9 10 221.82 144.53 66.04 o
12 9 10 2274.97 2398.63 109.12 o
13 9 10 5310.39 5171.50 174.20 o
14 9 10 2165.86 2189.01 121.56 o
15 9 10 1722.38 1418.50 96.67 o
16 9 10 66.47 98.59 75.62 o
17 9 10 1327.33 1435.73 121.56 o
18 9 10 2431.48 2532.63 138.79 o
19 9 10 2803.70 3131.80 153.14 o
20 9 10 1845.78 1693.20 132.09 o
21 9 10 432.68 331.17 98.59 o
22 9 10 70.56 20.10 120.60 o
23 9 10 801.89 848.99 127.30 o
24 9 10 639.47 693.94 126.34 o
0 10 10 55.98 67.00 75.62 o
1 10 10 462.85 447.95 57.43 o
2 10 10 9.76 22.97 44.99 o
3 10 10 50.38 43.07 45.94 o
4 10 10 1148.08 1273.01 68.92 o
5 10 10 381.97 418.28 55.51 o
6 10 10 770.44 953.32 64.13 o
7 10 10 52.54 67.00 51.69 o
8 10 10 28.83 29.67 52.64 o
9 10 10 0.52 1.91 54.56 o
10 10 10 0.01 1.91 61.26 o
11 10 10 171.18 154.10 70.83 o
12 10 10 22.07 29.67 71.79 o
13 10 10 215.39 245.99 81.36 o
14 10 10 110.79 151.23 83.27 o
15 10 10 34.92 51.69 87.10 o
16 10 10 245.17 233.55 92.84 o
17 10 10 4.05 0.96 85.19 o
18 10 10 146.50 175.16 95.72 o
19 10 10 166.67 11.49 92.84 o
20 10 10 1.01 2.87 91.89 o
21 10 10 24.74 12.44 134.96 o
22 10 10 2.80 3.83 133.04 o
23 10 10 24.37 3.83 106.24 o
1 11 10 1435.97 1813.80 80.40 o
2 11 10 15188.54 13888.29 243.12 o
3 11 10 7599.75 8555.03 175.16 o
4 11 10 6641.90 6628.28 158.89 o
5 11 10 943.25 885.37 68.92 o
6 11 10 6063.38 5249.98 160.80 o
7 11 10 6992.36 7291.59 191.43 o
8 11 10 10809.13 11384.38 274.70 o
9 11 10 5700.13 5664.43 152.19 o
10 11 10 3.36 1.91 67.96 o
11 11 10 0.28 5.74 72.74 o
12 11 10 6066.04 5517.99 196.22 o
13 11 10 4538.49 4574.23 239.29 o
14 11 10 1473.78 1308.43 125.39 o
15 11 10 2395.87 2336.41 148.36 o
16 11 10 66.92 5.74 100.50 o
17 11 10 315.43 299.59 97.63 o
18 11 10 2177.91 2087.55 147.40 o
19 11 10 2462.70 2536.46 164.63 o
20 11 10 749.54 790.61 120.60 o
21 11 10 356.55 281.40 113.90 o
0 12 10 387.30 385.73 121.56 o
1 12 10 668.30 775.29 88.06 o
2 12 10 427.22 363.72 61.26 o
3 12 10 1.37 0.96 58.39 o
4 12 10 708.26 834.64 89.97 o
5 12 10 404.98 695.85 91.89 o
6 12 10 835.68 878.67 96.67 o
7 12 10 7.95 29.67 75.62 o
8 12 10 174.34 135.92 75.62 o
9 12 10 408.08 390.52 82.32 o
10 12 10 83.36 123.47 78.49 o
11 12 10 424.68 372.33 94.76 o
12 12 10 201.68 223.97 87.10 o
13 12 10 3.77 6.70 85.19 o
14 12 10 38.06 1.91 91.89 o
15 12 10 541.34 620.24 107.20 o
16 12 10 353.16 278.53 118.69 o
17 12 10 194.51 198.13 114.86 o
18 12 10 6.41 0.96 135.92 o
19 12 10 14.68 10.53 104.33 o
20 12 10 294.24 341.70 113.90 o
1 13 10 1116.55 1228.03 93.80 o
2 13 10 1691.20 2247.40 114.86 o
3 13 10 6659.48 6980.52 244.07 o
4 13 10 1596.60 1608.97 119.64 o
5 13 10 466.21 449.86 85.19 o
6 13 10 191.96 172.29 77.53 o
7 13 10 3597.83 3458.19 147.40 o
8 13 10 1479.60 1728.62 120.60 o
9 13 10 2465.40 2396.71 147.40 o
10 13 10 240.03 195.26 96.67 o
11 13 10 37.14 37.33 89.02 o
12 13 10 585.11 533.13 108.16 o
13 13 10 2563.48 2679.07 156.02 o
14 13 10 792.04 905.47 118.69 o
15 13 10 1096.98 1026.07 121.56 o
16 13 10 34.07 1.91 103.37 o
17 13 10 222.17 201.00 103.37 o
18 13 10 1202.36 1371.60 193.34 o
0 14 10 790.13 718.82 124.43 o
1 14 10 653.46 1114.13 106.24 o
2 14 10 228.37 120.60 73.70 o
3 14 10 0.79 1.91 72.74 o
4 14 10 1087.55 1057.65 102.42 o
5 14 10 766.73 980.12 102.42 o
6 14 10 1077.18 1034.68 106.24 o
7 14 10 71.59 67.96 79.44 o
8 14 10 94.55 6.70 80.40 o
9 14 10 389.15 554.19 107.20 o
10 14 10 699.72 712.12 119.64 o
11 14 10 593.70 642.25 121.56 o
12 14 10 814.96 814.54 124.43 o
13 14 10 160.91 24.89 100.50 o
14 14 10 119.81 14.36 160.80 o
15 14 10 417.97 446.99 109.12 o
16 14 10 809.55 775.29 153.14 o
1 15 10 252.61 266.09 111.03 o
2 15 10 2308.97 2224.42 145.49 o
3 15 10 1613.65 1542.93 152.19 o
4 15 10 728.94 684.36 97.63 o
5 15 10 13.25 3.83 107.20 o
6 15 10 418.26 474.75 95.72 o
7 15 10 981.87 913.12 107.20 o
8 15 10 917.83 836.55 127.30 o
9 15 10 834.72 733.18 117.73 o
10 15 10 68.16 8.61 95.72 o
11 15 10 0.49 0.96 92.84 o
12 15 10 471.42 413.49 145.49 o
13 15 10 1231.21 1373.51 239.29 o
0 16 10 2697.47 2436.91 265.13 o
1 16 10 996.23 1062.44 234.50 o
2 16 10 505.08 390.52 115.82 o
3 16 10 12.37 2.87 100.50 o
4 16 10 1858.69 1944.93 205.79 o
5 16 10 1733.36 1831.03 169.42 o
6 16 10 2135.83 2245.48 196.22 o
7 16 10 187.17 201.00 107.20 o
8 16 10 4.40 0.96 129.22 o
1 1 11 13488.56 12653.56 299.59 o
2 1 11 431.58 759.98 163.67 o
3 1 11 45436.80 41916.60 585.78 o
4 1 11 1146.48 1449.13 77.53 o
5 1 11 1264.13 1283.54 44.03 o
6 1 11 115.89 317.77 44.99 o
7 1 11 21985.21 20279.20 277.57 o
8 1 11 486.39 1107.43 55.51 o
9 1 11 21401.25 19398.62 283.32 o
10 1 11 1254.80 1456.79 57.43 o
11 1 11 5135.32 4620.18 101.46 o
12 1 11 164.91 433.59 58.39 o
13 1 11 29686.83 27911.54 393.39 o
14 1 11 1240.16 2199.54 77.53 o
15 1 11 10135.90 9708.40 164.63 o
16 1 11 651.58 524.52 56.47 o
17 1 11 155.51 161.76 55.51 o
18 1 11 8.19 29.67 58.39 o
19 1 11 12396.21 12027.58 231.63 o
20 1 11 968.02 1116.04 79.44 o
21 1 11 494.63 299.59 71.79 o
22 1 11 3.81 22.97 76.57 o
23 1 11 3086.91 3218.91 132.09 o
24 1 11 140.56 176.12 99.54 o
25 1 11 1654.13 1691.29 146.44 o
26 1 11 420.03 650.86 131.13 o
27 1 11 133.85 122.52 163.67 o
28 1 11 2.06 9.57 175.16 o
0 2 11 1471.85 1148.58 72.74 o
1 2 11 3.00 21.06 42.11 o
2 2 11 1091.35 1027.98 57.43 o
3 2 11 198.57 319.69 30.63 o
4 2 11 834.98 851.87 51.69 o
5 2 11 988.50 1428.07 56.47 o
6 2 11 1133.16 1066.27 44.99 o
7 2 11 43.73 44.03 35.41 o
8 2 11 12.79 17.23 41.16 o
9 2 11 406.85 427.85 44.99 o
10 2 11 1240.09 1105.51 60.30 o
11 2 11 298.26 376.16 48.81 o
12 2 11 1173.04 1051.91 59.34 o
13 2 11 157.62 193.34 49.77 o
14 2 11 66.50 122.52 50.73 o
15 2 11 486.29 522.61 55.51 o
16 2 11 2007.35 1735.32 76.57 o
17 2 11 290.40 260.35 56.47 o
18 2 11 178.06 105.29 69.87 o
19 2 11 51.20 93.80 61.26 o
20 2 11 739.98 688.19 80.40 o
21 2 11 157.14 145.49 73.70 o
22 2 11 187.25 146.44 90.93 o
23 2 11 7.21 9.57 90.93 o
24 2 11 28.83 47.86 93.80 o
25 2 11 40.56 23.93 95.72 o
26 2 11 212.17 97.63 147.40 o
27 2 11 8.59 1.91 121.56 o
28 2 11 41.99 17.23 163.67 o
1 3 11 7079.37 6774.73 148.36 o
2 3 11 829.50 804.01 64.13 o
3 3 11 21185.52 19677.15 282.36 o
4 3 11 364.75 381.90 43.07 o
5 3 11 13.11 21.06 31.59 o
6 3 11 196.91 191.43 39.24 o
7 3 11 7120.79 5813.75 122.52 o
8 3 11 317.96 629.81 48.81 o
9 3 11 10873.45 10189.85 166.54 o
10 3 11 100.85 89.02 43.07 o
11 3 11 1912.69 1970.78 66.04 o
12 3 11 560.50 827.94 60.30 o
13 3 11 17053.89 16414.21 245.03 o
14 3 11 1060.25 1446.26 67.00 o
15 3 11 4954.18 4935.08 124.43 o
16 3 11 11.52 15.31 52.64 o
17 3 11 27.80 34.46 51.69 o
18 3 11 231.30 194.30 66.04 o
19 3 11 5781.17 5458.64 151.23 o
20 3 11 281.72 402.00 84.23 o
21 3 11 115.25 51.69 83.27 o
22 3 11 53.01 28.71 79.44 o
23 3 11 1464.33 1528.57 124.43 o
24 3 11 91.98 90.93 96.67 o
25 3 11 1259.68 1270.14 127.30 o
26 3 11 202.45 223.97 103.37 o
27 3 11 24.05 106.24 111.99 o
28 3 11 0.07 4.79 177.07 o
0 4 11 11288.07 9675.86 274.70 o
1 4 11 3361.80 3442.88 103.37 o
2 4 11 4386.09 4335.90 102.42 o
3 4 11 348.80 269.92 41.16 o
4 4 11 2972.59 3099.26 73.70 o
5 4 11 1523.66 1449.13 53.60 o
6 4 11 7403.14 7017.85 131.13 o
7 4 11 14.13 72.74 37.33 o
8 4 11 40.05 111.03 45.94 o
9 4 11 1143.04 1410.84 62.21 o
10 4 11 5314.20 5022.18 116.77 o
11 4 11 1149.92 1361.07 60.30 o
12 4 11 3622.84 3440.01 89.97 o
13 4 11 258.94 299.59 50.73 o
14 4 11 37.25 81.36 52.64 o
15 4 11 260.04 298.63 56.47 o
16 4 11 6374.01 6010.92 134.96 o
17 4 11 30.59 155.06 66.04 o
18 4 11 2936.96 2870.50 109.12 o
19 4 11 11.74 21.06 67.96 o
20 4 11 758.59 666.18 87.10 o
21 4 11 14.12 17.23 82.32 o
22 4 11 1871.18 1787.00 119.64 o
23 4 11 0.36 24.89 98.59 o
24 4 11 25.20 0.00 175.16 o
25 4 11 1.63 3.83 133.04 o
26 4 11 853.02 824.11 132.09 o
27 4 11 0.80 59.34 119.64 o
1 5 11 6560.83 6651.26 149.32 o
2 5 11 960.10 1524.74 124.43 o
3 5 11 21709.34 21194.24 330.22 o
4 5 11 688.64 931.31 52.64 o
5 5 11 46.21 6.70 29.67 o
6 5 11 387.56 630.76 48.81 o
7 5 11 5410.97 4570.41 100.50 o
8 5 11 314.50 712.12 67.00 o
9 5 11 15450.80 14566.91 249.82 o
10 5 11 400.96 397.22 52.64 o
11 5 11 1081.01 1164.86 65.09 o
12 5 11 508.86 819.32 100.50 o
13 5 11 22338.03 20750.12 324.47 o
14 5 11 775.91 1188.78 86.14 o
15 5 11 4261.07 3926.24 117.73 o
16 5 11 621.08 485.28 68.92 o
17 5 11 676.79 685.32 83.27 o
18 5 11 50.03 103.37 76.57 o
19 5 11 5425.11 5234.67 182.82 o
20 5 11 234.06 122.52 83.27 o
21 5 11 4.69 2.87 80.40 o
22 5 11 25.90 43.07 86.14 o
23 5 11 1324.83 1509.43 134.00 o
24 5 11 44.86 52.64 105.29 o
25 5 11 667.52 720.74 133.04 o
26 5 11 241.51 210.57 210.57 o
27 5 11 228.87 304.37 171.33 o
0 6 11 33522.22 31171.60 749.45 o
1 6 11 3274.01 4323.46 120.60 o
2 6 11 5229.13 5011.65 127.30 o
3 6 11 181.26 190.47 53.60 o
4 6 11 12301.06 11992.17 206.75 o
5 6 11 918.48 1902.82 84.23 o
6 6 11 18656.82 17371.37 302.46 o
7 6 11 501.49 561.85 46.90 o
8 6 11 1760.63 2057.88 76.57 o
9 6 11 200.65 527.39 62.21 o
10 6 11 13472.87 13195.31 264.17 o
11 6 11 2233.93 2621.64 106.24 o
12 6 11 2219.84 2205.28 78.49 o
13 6 11 229.88 246.95 56.47 o
14 6 11 1058.39 1112.21 72.74 o
15 6 11 411.82 486.23 74.66 o
16 6 11 5516.77 5002.08 178.99 o
17 6 11 721.62 940.88 90.93 o
18 6 11 1106.58 983.00 94.76 o
19 6 11 65.28 73.70 76.57 o
20 6 11 1012.42 970.55 150.27 o
21 6 11 212.19 290.97 100.50 o
22 6 11 1994.67 1809.02 145.49 o
23 6 11 114.68 86.14 98.59 o
24 6 11 7.99 0.00 101.46 o
25 6 11 0.86 27.76 144.53 o
26 6 11 780.51 721.69 178.99 o
1 7 11 1367.18 1234.73 75.62 o
2 7 11 4.18 37.33 49.77 o
3 7 11 4580.88 4469.90 121.56 o
4 7 11 93.48 120.60 49.77 o
5 7 11 15.07 27.76 30.63 o
6 7 11 411.17 507.29 59.34 o
7 7 11 741.07 631.72 58.39 o
8 7 11 137.56 141.66 43.07 o
9 7 11 5753.62 5361.97 118.69 o
10 7 11 441.52 506.33 48.81 o
11 7 11 123.20 124.43 52.64 o
12 7 11 8.65 77.53 56.47 o
13 7 11 5836.45 5897.98 159.84 o
14 7 11 1046.81 893.98 82.32 o
15 7 11 614.98 552.28 85.19 o
16 7 11 238.65 93.80 73.70 o
17 7 11 22.30 17.23 72.74 o
18 7 11 129.98 82.32 79.44 o
19 7 11 901.47 875.79 121.56 o
20 7 11 450.71 422.10 89.02 o
21 7 11 1.74 6.70 114.86 o
22 7 11 0.95 1.91 90.93 o
23 7 11 241.59 261.30 105.29 o
24 7 11 128.85 138.79 109.12 o
25 7 11 244.28 274.70 139.74 o
0 8 11 21446.80 20740.55 519.73 o
1 8 11 738.36 1215.58 75.62 o
2 8 11 3333.30 3098.30 104.33 o
3 8 11 67.31 58.39 37.33 o
4 8 11 5245.36 5132.25 130.17 o
5 8 11 296.64 684.36 61.26 o
6 8 11 15776.27 15032.09 265.13 o
7 8 11 40.86 96.67 49.77 o
8 8 11 105.67 126.34 47.86 o
9 8 11 78.99 233.55 61.26 o
10 8 11 12554.08 12525.30 237.37 o
11 8 11 1455.51 1942.06 104.33 o
12 8 11 6488.87 6498.11 167.50 o
13 8 11 216.89 278.53 66.04 o
14 8 11 978.23 1009.80 90.93 o
15 8 11 22.60 188.56 78.49 o
16 8 11 9468.19 9869.20 232.59 o
17 8 11 319.78 506.33 101.46 o
18 8 11 1367.53 1430.94 106.24 o
19 8 11 82.95 5.74 84.23 o
20 8 11 1423.44 1521.87 120.60 o
21 8 11 67.91 139.74 99.54 o
22 8 11 2633.88 2702.04 150.27 o
23 8 11 15.07 18.19 111.03 o
24 8 11 30.72 6.70 156.02 o
1 9 11 271.66 253.65 51.69 o
2 9 11 21.29 46.90 45.94 o
3 9 11 227.13 173.24 49.77 o
4 9 11 86.87 100.50 49.77 o
5 9 11 23.56 20.10 45.94 o
6 9 11 194.84 118.69 49.77 o
7 9 11 263.77 196.22 50.73 o
8 9 11 83.73 56.47 49.77 o
9 9 11 996.16 1076.80 66.04 o
10 9 11 90.55 132.09 57.43 o
11 9 11 172.42 113.90 64.13 o
12 9 11 13.45 4.79 67.96 o
13 9 11 835.57 804.97 91.89 o
14 9 11 43.57 61.26 74.66 o
15 9 11 18.59 6.70 74.66 o
16 9 11 46.36 3.83 75.62 o
17 9 11 88.90 70.83 86.14 o
18 9 11 169.53 99.54 141.66 o
19 9 11 8.02 14.36 124.43 o
20 9 11 3.64 0.96 94.76 o
21 9 11 0.03 0.96 98.59 o
22 9 11 3.45 0.00 112.94 o
23 9 11 54.42 10.53 116.77 o
0 10 11 23302.93 21799.16 544.62 o
1 10 11 1381.73 1960.25 90.93 o
2 10 11 2656.83 2740.33 92.84 o
3 10 11 42.40 6.70 45.94 o
4 10 11 5928.79 5683.57 135.92 o
5 10 11 388.44 952.37 67.96 o
6 10 11 11967.77 10274.08 223.02 o
7 10 11 60.47 113.90 55.51 o
8 10 11 0.13 1.91 54.56 o
9 10 11 4.67 18.19 62.21 o
10 10 11 9351.19 8549.29 216.32 o
11 10 11 1293.44 1554.42 104.33 o
12 10 11 5846.80 5358.14 180.90 o
13 10 11 78.09 147.40 75.62 o
14 10 11 1666.61 1745.85 132.09 o
15 10 11 251.50 555.15 98.59 o
16 10 11 8053.30 7875.45 261.30 o
17 10 11 631.78 733.18 111.03 o
18 10 11 357.93 444.12 103.37 o
19 10 11 15.74 3.83 96.67 o
20 10 11 1184.94 939.92 151.23 o
21 10 11 127.81 285.23 109.12 o
22 10 11 1791.60 1780.30 179.94 o
1 11 11 1.66 16.27 49.77 o
2 11 11 254.77 338.83 56.47 o
3 11 11 579.64 664.26 62.21 o
4 11 11 315.10 350.32 63.17 o
5 11 11 12.51 22.01 54.56 o
6 11 11 15.62 140.70 66.04 o
7 11 11 275.11 263.22 82.32 o
8 11 11 207.26 257.47 68.92 o
9 11 11 133.03 194.30 76.57 o
10 11 11 9.85 0.96 65.09 o
11 11 11 10.38 13.40 68.92 o
12 11 11 0.06 21.06 84.23 o
13 11 11 151.89 154.10 88.06 o
14 11 11 96.39 20.10 89.97 o
15 11 11 117.27 34.46 88.06 o
16 11 11 11.65 14.36 91.89 o
17 11 11 123.25 31.59 94.76 o
18 11 11 67.34 46.90 97.63 o
19 11 11 200.72 95.72 105.29 o
20 11 11 1.60 0.00 103.37 o
21 11 11 1.34 0.96 113.90 o
0 12 11 12084.18 11618.88 334.05 o
1 12 11 1590.25 2074.15 83.27 o
2 12 11 1320.14 1542.93 87.10 o
3 12 11 25.52 14.36 53.60 o
4 12 11 4511.82 4430.66 131.13 o
5 12 11 853.53 1273.97 94.76 o
6 12 11 7779.17 7251.39 213.45 o
7 12 11 13.92 84.23 75.62 o
8 12 11 89.42 29.67 73.70 o
9 12 11 5.91 78.49 81.36 o
10 12 11 6693.88 6492.37 223.97 o
11 12 11 1244.57 1759.25 129.22 o
12 12 11 5698.47 5464.39 191.43 o
13 12 11 0.49 11.49 91.89 o
14 12 11 707.84 735.09 107.20 o
15 12 11 104.45 201.96 99.54 o
16 12 11 5002.18 5225.10 209.62 o
17 12 11 430.43 789.65 199.09 o
18 12 11 251.47 210.57 106.24 o
19 12 11 52.21 5.74 103.37 o
1 13 11 517.57 594.39 73.70 o
2 13 11 1.20 11.49 67.00 o
3 13 11 3755.71 3632.40 156.02 o
4 13 11 74.80 111.99 82.32 o
5 13 11 62.31 74.66 78.49 o
6 13 11 0.70 3.83 73.70 o
7 13 11 1443.74 1448.17 117.73 o
8 13 11 4.45 3.83 78.49 o
9 13 11 721.15 674.79 95.72 o
10 13 11 221.81 199.09 92.84 o
11 13 11 306.88 282.36 93.80 o
12 13 11 36.34 7.66 89.02 o
13 13 11 1387.02 1285.46 131.13 o
14 13 11 11.81 35.41 96.67 o
15 13 11 64.34 7.66 152.19 o
16 13 11 0.54 0.96 107.20 o
17 13 11 352.24 313.95 107.20 o
0 14 11 5598.41 5303.58 486.23 o
1 14 11 261.93 279.49 90.93 o
2 14 11 1104.69 992.57 103.37 o
3 14 11 17.01 3.83 89.02 o
4 14 11 2290.49 2244.52 136.87 o
5 14 11 111.29 300.55 89.97 o
6 14 11 4319.68 3722.37 171.33 o
7 14 11 0.97 5.74 82.32 o
8 14 11 11.90 0.96 89.02 o
9 14 11 3.99 0.96 89.02 o
10 14 11 3712.73 3716.62 197.17 o
11 14 11 612.68 944.71 133.04 o
12 14 11 1951.38 1964.08 160.80 o
13 14 11 0.30 4.79 101.46 o
14 14 11 607.36 401.05 120.60 o
15 14 11 42.51 114.86 113.90 o
1 15 11 825.07 810.71 152.19 o
2 15 11 52.07 142.62 98.59 o
3 15 11 3523.01 3251.45 199.09 o
4 15 11 255.60 376.16 96.67 o
5 15 11 47.88 5.74 83.27 o
6 15 11 1.62 1.91 84.23 o
7 15 11 1632.82 1531.44 128.26 o
8 15 11 95.59 199.09 132.09 o
9 15 11 1566.93 1273.97 137.83 o
10 15 11 11.42 1.91 94.76 o
11 15 11 105.19 18.19 98.59 o
12 15 11 5.50 2.87 141.66 o
0 16 11 1186.54 1043.30 325.43 o
1 16 11 153.25 57.43 113.90 o
2 16 11 331.85 356.06 122.52 o
3 16 11 7.02 0.96 124.43 o
4 16 11 811.75 782.95 130.17 o
5 16 11 108.52 173.24 221.10 o
6 16 11 1403.63 1288.33 201.00 o
7 16 11 0.95 6.70 112.94 o
0 0 12 3758.81 8004.67 1531.44 o
1 0 12 44297.86 37649.61 1454.87 o
2 0 12 416.44 714.04 115.82 o
3 0 12 475.28 551.32 72.74 o
4 0 12 743.47 929.40 77.53 o
5 0 12 19364.46 18819.54 330.22 o
6 0 12 7556.58 10014.69 245.03 o
7 0 12 6370.42 6664.66 187.60 o
8 0 12 94.05 78.49 59.34 o
9 0 12 3135.04 2749.90 103.37 o
10 0 12 2518.28 3218.91 318.73 o
11 0 12 30731.11 28782.54 579.08 o
12 0 12 1619.90 1874.11 129.22 o
13 0 12 1263.70 1001.18 83.27 o
14 0 12 1.99 12.44 73.70 o
15 0 12 6342.55 5965.93 186.64 o
16 0 12 4117.74 4600.08 190.47 o
17 0 12 6595.94 6881.93 241.20 o
18 0 12 72.78 57.43 82.32 o
19 0 12 1.82 9.57 82.32 o
20 0 12 475.76 481.45 143.57 o
21 0 12 3343.99 3937.73 181.86 o
22 0 12 1222.48 1410.84 145.49 o
23 0 12 926.02 804.97 309.16 o
24 0 12 41.45 0.96 120.60 o
25 0 12 241.91 33.50 233.55 o
26 0 12 577.20 536.01 240.25 o
27 0 12 1816.04 2070.32 301.50 o
1 1 12 243.23 295.76 60.30 o
2 1 12 2615.20 2413.94 78.49 o
3 1 12 932.54 1001.18 45.94 o
4 1 12 32.18 25.84 30.63 o
5 1 12 54.56 76.57 31.59 o
6 1 12 1611.91 1641.52 60.30 o
7 1 12 297.72 299.59 44.99 o
8 1 12 1929.62 1924.83 67.96 o
9 1 12 661.52 637.46 52.64 o
10 1 12 120.36 132.09 46.90 o
11 1 12 4.81 19.14 48.81 o
12 1 12 721.65 744.66 56.47 o
13 1 12 649.59 635.55 56.47 o
14 1 12 72.68 96.67 51.69 o
15 1 12 135.52 99.54 51.69 o
16 1 12 36.84 32.54 50.73 o
17 1 12 16.55 7.66 54.56 o
18 1 12 14.59 0.00 56.47 o
19 1 12 95.04 9.57 68.92 o
20 1 12 2.34 3.83 61.26 o
21 1 12 0.57 0.00 76.57 o
22 1 12 7.82 2.87 76.57 o
23 1 12 33.57 0.96 110.07 o
24 1 12 63.37 26.80 92.84 o
25 1 12 41.92 1.91 109.12 o
26 1 12 12.15 0.96 117.73 o
27 1 12 6.38 4.79 193.34 o
0 2 12 16643.65 18826.24 506.33 o
1 2 12 19402.85 17293.84 291.93 o
2 2 12 468.88 680.54 47.86 o
3 2 12 670.28 655.65 44.99 o
4 2 12 3373.60 3042.79 89.02 o
5 2 12 13269.86 11347.05 194.30 o
6 2 12 11742.92 12800.01 203.87 o
7 2 12 5444.96 5427.06 101.46 o
8 2 12 757.84 761.89 53.60 o
9 2 12 3950.95 3828.61 89.97 o
10 2 12 6360.39 7653.40 140.70 o
11 2 12 26800.10 24444.73 344.58 o
12 2 12 1361.86 1856.88 68.92 o
13 2 12 2194.18 2024.38 86.14 o
14 2 12 181.36 128.26 53.60 o
15 2 12 3683.91 3069.59 87.10 o
16 2 12 3062.99 3484.99 99.54 o
17 2 12 4045.39 4242.10 114.86 o
18 2 12 1.20 3.83 55.51 o
19 2 12 13.54 4.79 60.30 o
20 2 12 211.03 268.96 73.70 o
21 2 12 2906.46 3194.98 134.00 o
22 2 12 529.26 633.64 100.50 o
23 2 12 354.94 463.26 101.46 o
24 2 12 6.04 3.83 92.84 o
25 2 12 506.10 333.09 103.37 o
26 2 12 461.18 429.76 129.22 o
27 2 12 1583.21 2061.71 188.56 o
1 3 12 171.72 261.30 46.90 o
2 3 12 3788.31 3367.26 81.36 o
3 3 12 1837.35 2610.16 68.92 o
4 3 12 1460.33 1154.33 65.09 o
5 3 12 9.17 33.50 36.37 o
6 3 12 74.37 63.17 28.71 o
7 3 12 2.59 17.23 29.67 o
8 3 12 1991.17 1748.72 67.00 o
9 3 12 1057.91 1142.84 55.51 o
10 3 12 39.13 26.80 46.90 o
11 3 12 0.58 4.79 45.94 o
12 3 12 1960.75 1846.35 77.53 o
13 3 12 1333.46 1455.83 69.87 o
14 3 12 2122.94 2089.46 77.53 o
15 3 12 45.89 77.53 56.47 o
16 3 12 5.85 15.31 52.64 o
17 3 12 125.70 21.06 54.56 o
18 3 12 296.93 236.42 69.87 o
19 3 12 317.70 186.64 69.87 o
20 3 12 626.77 598.22 103.37 o
21 3 12 11.92 26.80 92.84 o
22 3 12 1.47 4.79 79.44 o
23 3 12 61.05 0.96 123.47 o
24 3 12 459.20 329.26 109.12 o
25 3 12 45.42 4.79 103.37 o
26 3 12 52.78 114.86 124.43 o
27 3 12 7.14 0.96 192.39 o
0 4 12 5251.73 5644.33 196.22 o
1 4 12 14024.53 12531.05 268.00 o
2 4 12 391.11 709.25 56.47 o
3 4 12 65.78 94.76 34.46 o
4 4 12 645.27 889.20 44.99 o
5 4 12 8832.27 7793.14 156.97 o
6 4 12 3878.53 4629.75 115.82 o
7 4 12 4491.47 4222.00 111.99 o
8 4 12 27.11 36.37 45.94 o
9 4 12 5208.10 4931.25 112.94 o
10 4 12 1409.08 1865.49 84.23 o
11 4 12 10082.74 9494.00 159.84 o
12 4 12 2094.91 2124.88 75.62 o
13 4 12 646.15 661.39 57.43 o
14 4 12 1.33 8.61 53.60 o
15 4 12 2018.02 1966.95 86.14 o
16 4 12 2938.28 3172.00 141.66 o
17 4 12 2398.42 2373.74 109.12 o
18 4 12 85.67 43.07 70.83 o
19 4 12 6.66 2.87 73.70 o
20 4 12 455.61 591.52 89.02 o
21 4 12 2582.12 2593.88 168.46 o
22 4 12 396.01 308.20 100.50 o
23 4 12 320.56 251.73 98.59 o
24 4 12 8.14 17.23 121.56 o
25 4 12 442.53 351.28 146.44 o
26 4 12 353.96 428.80 119.64 o
27 4 12 864.95 879.62 146.44 o
1 5 12 550.73 760.94 63.17 o
2 5 12 9489.97 8815.38 182.82 o
3 5 12 3324.26 3910.93 124.43 o
4 5 12 5767.89 5020.27 96.67 o
5 5 12 110.48 82.32 29.67 o
6 5 12 6.41 13.40 25.84 o
7 5 12 647.89 1068.18 61.26 o
8 5 12 7419.58 6484.71 149.32 o
9 5 12 2519.21 3006.42 110.07 o
10 5 12 4328.95 3974.10 110.07 o
11 5 12 521.80 416.36 53.60 o
12 5 12 5088.88 4843.19 112.94 o
13 5 12 2572.18 3275.38 222.06 o
14 5 12 11587.44 11191.03 218.23 o
15 5 12 28.41 35.41 61.26 o
16 5 12 417.25 366.59 69.87 o
17 5 12 303.74 299.59 78.49 o
18 5 12 2515.95 2525.93 116.77 o
19 5 12 656.95 656.61 94.76 o
20 5 12 1651.80 1663.53 111.03 o
21 5 12 17.87 2.87 83.27 o
22 5 12 100.40 47.86 89.02 o
23 5 12 345.28 400.09 106.24 o
24 5 12 1375.69 1392.66 142.62 o
25 5 12 90.40 73.70 111.03 o
26 5 12 144.99 162.72 176.12 o
0 6 12 4593.40 4352.17 279.49 o
1 6 12 11460.83 10721.07 211.53 o
2 6 12 615.81 558.98 63.17 o
3 6 12 716.56 671.92 63.17 o
4 6 12 1777.02 2076.06 79.44 o
5 6 12 8090.85 8020.94 166.54 o
6 6 12 1675.30 2069.36 76.57 o
7 6 12 2371.51 2424.47 74.66 o
8 6 12 321.79 291.93 44.03 o
9 6 12 5938.34 5700.80 113.90 o
10 6 12 873.87 976.30 65.09 o
11 6 12 3178.25 2792.97 98.59 o
12 6 12 233.78 242.16 51.69 o
13 6 12 261.10 300.55 62.21 o
14 6 12 51.64 31.59 57.43 o
15 6 12 433.48 290.97 69.87 o
16 6 12 877.32 785.82 84.23 o
17 6 12 733.63 632.68 85.19 o
18 6 12 28.06 0.96 73.70 o
19 6 12 73.88 48.81 78.49 o
20 6 12 255.70 187.60 82.32 o
21 6 12 823.41 800.18 122.52 o
22 6 12 123.95 67.96 92.84 o
23 6 12 170.03 255.56 141.66 o
24 6 12 0.05 11.49 103.37 o
25 6 12 70.98 8.61 117.73 o
26 6 12 178.51 178.03 150.27 o
1 7 12 3307.99 3503.18 115.82 o
2 7 12 12289.47 10769.89 211.53 o
3 7 12 8469.71 8685.21 225.89 o
4 7 12 6064.53 4799.17 136.87 o
5 7 12 56.54 30.63 41.16 o
6 7 12 1232.84 1218.46 87.10 o
7 7 12 5322.32 6348.80 129.22 o
8 7 12 6688.37 5601.26 131.13 o
9 7 12 4890.84 5816.62 152.19 o
10 7 12 3514.29 3516.58 103.37 o
11 7 12 1603.62 1295.99 68.92 o
12 7 12 6529.35 6070.26 180.90 o
13 7 12 4087.24 5203.08 213.45 o
14 7 12 8555.85 8639.26 197.17 o
15 7 12 109.98 229.72 76.57 o
16 7 12 421.14 510.16 81.36 o
17 7 12 656.80 648.95 85.19 o
18 7 12 2578.72 2435.95 125.39 o
19 7 12 884.19 939.92 100.50 o
20 7 12 1308.67 1363.94 108.16 o
21 7 12 34.83 2.87 107.20 o
22 7 12 210.44 103.37 165.59 o
23 7 12 837.39 837.51 136.87 o
24 7 12 1468.33 1587.92 211.53 o
25 7 12 115.82 153.14 153.14 o
0 8 12 36.95 58.39 77.53 o
1 8 12 2139.27 1897.08 87.10 o
2 8 12 63.04 89.02 52.64 o
3 8 12 690.23 826.02 92.84 o
4 8 12 155.82 288.10 49.77 o
5 8 12 1727.14 1929.62 80.40 o
6 8 12 228.61 419.23 52.64 o
7 8 12 1123.90 922.70 65.09 o
8 8 12 41.16 52.64 48.81 o
9 8 12 1165.06 986.82 69.87 o
10 8 12 161.07 191.43 58.39 o
11 8 12 1393.22 1025.11 76.57 o
12 8 12 92.25 111.03 68.92 o
13 8 12 775.82 767.64 85.19 o
14 8 12 58.24 68.92 71.79 o
15 8 12 30.76 42.11 74.66 o
16 8 12 96.36 75.62 79.44 o
17 8 12 290.88 222.06 85.19 o
18 8 12 139.37 54.56 94.76 o
19 8 12 0.28 3.83 78.49 o
20 8 12 39.77 6.70 123.47 o
21 8 12 393.74 223.97 153.14 o
22 8 12 59.34 1.91 188.56 o
23 8 12 28.55 90.93 114.86 o
24 8 12 2.31 0.00 127.30 o
1 9 12 1138.30 1445.30 98.59 o
2 9 12 10853.58 10199.42 191.43 o
3 9 12 1932.66 2759.47 161.76 o
4 9 12 8485.04 8123.36 163.67 o
5 9 12 362.12 356.06 51.69 o
6 9 12 1884.20 2192.84 83.27 o
7 9 12 420.69 766.68 67.96 o
8 9 12 4850.47 4458.42 125.39 o
9 9 12 1782.82 2209.11 90.93 o
10 9 12 1100.89 1029.90 85.19 o
11 9 12 37.81 41.16 64.13 o
12 9 12 6731.70 6813.02 180.90 o
13 9 12 1100.71 1514.22 114.86 o
14 9 12 4178.39 4199.99 156.02 o
15 9 12 539.96 698.72 115.82 o
16 9 12 438.31 483.36 91.89 o
17 9 12 233.79 295.76 88.06 o
18 9 12 2189.22 2110.52 133.04 o
19 9 12 971.89 932.27 127.30 o
20 9 12 1704.98 1553.46 149.32 o
21 9 12 39.00 5.74 100.50 o
22 9 12 175.09 27.76 148.36 o
23 9 12 507.67 306.29 117.73 o
0 10 12 326.25 409.66 84.23 o
1 10 12 264.18 275.66 61.26 o
2 10 12 101.82 126.34 50.73 o
3 10 12 33.91 18.19 48.81 o
4 10 12 99.60 149.32 51.69 o
5 10 12 1006.81 837.51 68.92 o
6 10 12 66.49 103.37 56.47 o
7 10 12 22.41 7.66 53.60 o
8 10 12 91.58 71.79 58.39 o
9 10 12 351.04 366.59 67.96 o
10 10 12 31.28 31.59 67.00 o
11 10 12 43.07 75.62 70.83 o
12 10 12 183.39 223.02 84.23 o
13 10 12 77.74 76.57 77.53 o
14 10 12 31.61 3.83 74.66 o
15 10 12 89.60 111.03 85.19 o
16 10 12 11.40 43.07 81.36 o
17 10 12 1.58 0.00 146.44 o
18 10 12 3.61 2.87 141.66 o
19 10 12 7.13 0.96 93.80 o
20 10 12 0.01 1.91 94.76 o
21 10 12 30.01 0.96 105.29 o
22 10 12 20.76 0.96 159.84 o
1 11 12 4986.44 4481.39 131.13 o
2 11 12 7029.52 6679.01 170.37 o
3 11 12 7058.17 7398.79 214.40 o
4 11 12 7477.97 6572.77 169.42 o
5 11 12 75.16 8.61 55.51 o
6 11 12 2250.86 2178.48 147.40 o
7 11 12 5322.38 5502.67 188.56 o
8 11 12 6980.52 6251.17 202.92 o
9 11 12 2125.81 2331.62 121.56 o
10 11 12 1809.83 1778.39 108.16 o
11 11 12 1123.70 861.44 92.84 o
12 11 12 4349.00 4006.64 162.72 o
13 11 12 2369.62 2429.25 187.60 o
14 11 12 3757.02 3954.96 180.90 o
15 11 12 155.36 306.29 94.76 o
16 11 12 995.34 993.52 127.30 o
17 11 12 931.18 774.34 186.64 o
18 11 12 1448.81 1368.73 134.96 o
19 11 12 545.18 523.56 145.49 o
20 11 12 1723.90 1751.59 147.40 o
0 12 12 279.08 416.36 84.23 o
1 12 12 461.50 503.46 59.34 o
2 12 12 81.51 89.97 57.43 o
3 12 12 100.53 96.67 63.17 o
4 12 12 282.15 311.07 63.17 o
5 12 12 243.12 297.67 70.83 o
6 12 12 433.84 522.61 84.23 o
7 12 12 177.76 259.39 70.83 o
8 12 12 15.65 2.87 70.83 o
9 12 12 35.53 57.43 75.62 o
10 12 12 217.47 196.22 90.93 o
11 12 12 147.19 155.06 87.10 o
12 12 12 48.64 111.99 85.19 o
13 12 12 94.41 135.92 89.02 o
14 12 12 117.76 232.59 96.67 o
15 12 12 704.41 768.59 119.64 o
16 12 12 103.65 102.42 152.19 o
17 12 12 529.37 451.78 114.86 o
18 12 12 4.70 2.87 183.77 o
1 13 12 639.69 648.95 79.44 o
2 13 12 5071.60 4877.65 188.56 o
3 13 12 727.78 1106.47 104.33 o
4 13 12 4604.31 4353.13 174.20 o
5 13 12 21.93 20.10 113.90 o
6 13 12 1000.67 899.72 104.33 o
7 13 12 327.53 355.10 89.97 o
8 13 12 3334.17 3082.99 167.50 o
9 13 12 774.48 842.29 104.33 o
10 13 12 846.74 872.92 115.82 o
11 13 12 17.24 8.61 93.80 o
12 13 12 2160.77 2192.84 229.72 o
13 13 12 585.78 762.85 113.90 o
14 13 12 2197.05 2410.11 154.10 o
15 13 12 246.91 230.67 175.16 o
16 13 12 431.23 342.66 165.59 o
0 14 12 457.64 797.31 154.10 o
1 14 12 1324.87 1224.20 118.69 o
2 14 12 147.04 92.84 111.03 o
3 14 12 2.90 5.74 78.49 o
4 14 12 497.39 639.38 99.54 o
5 14 12 1685.28 1461.57 124.43 o
6 14 12 850.96 843.25 111.03 o
7 14 12 439.07 408.70 170.37 o
8 14 12 40.69 7.66 109.12 o
9 14 12 732.64 668.09 115.82 o
10 14 12 348.20 402.00 111.99 o
11 14 12 904.85 921.74 130.17 o
12 14 12 116.20 265.13 124.43 o
13 14 12 192.81 195.26 127.30 o
14 14 12 25.10 25.84 142.62 o
1 15 12 448.53 491.02 128.26 o
2 15 12 1784.98 1750.63 148.36 o
3 15 12 825.33 1060.53 141.66 o
4 15 12 874.71 881.54 130.17 o
5 15 12 2.85 0.96 84.23 o
6 15 12 441.85 457.52 146.44 o
7 15 12 492.62 420.19 103.37 o
8 15 12 973.73 968.64 131.13 o
9 15 12 317.29 267.05 111.99 o
10 15 12 358.05 333.09 153.14 o
0 16 12 440.15 704.46 268.96 o
1 16 12 2471.86 2205.28 241.20 o
2 16 12 57.57 6.70 118.69 o
3 16 12 29.82 1.91 157.93 o
4 16 12 439.98 578.12 141.66 o
1 1 13 61.99 236.42 78.49 o
2 1 13 33951.02 31877.02 469.96 o
3 1 13 6007.75 6859.92 179.94 o
4 1 13 13018.75 11565.28 200.04 o
5 1 13 215.87 277.57 41.16 o
6 1 13 1798.26 2074.15 65.09 o
7 1 13 3.77 56.47 53.60 o
8 1 13 13233.24 12545.40 210.57 o
9 1 13 2525.52 3074.38 89.02 o
10 1 13 3043.61 2923.15 80.40 o
11 1 13 0.17 20.10 49.77 o
12 1 13 14048.51 14280.72 225.89 o
13 1 13 1981.86 3107.88 111.99 o
14 1 13 10501.35 9754.35 168.46 o
15 1 13 881.11 1204.10 67.96 o
16 1 13 588.42 460.39 59.34 o
17 1 13 1894.22 1406.06 77.53 o
18 1 13 6615.31 6258.82 144.53 o
19 1 13 2444.45 2896.34 112.94 o
20 1 13 3257.69 3089.69 114.86 o
21 1 13 458.84 404.88 95.72 o
22 1 13 929.17 870.05 95.72 o
23 1 13 38.63 60.30 85.19 o
24 1 13 2976.76 2335.45 174.20 o
25 1 13 495.00 474.75 181.86 o
26 1 13 267.02 209.62 136.87 o
27 1 13 58.37 12.44 267.05 o
0 2 13 564.37 576.21 97.63 o
1 2 13 1363.11 1317.04 72.74 o
2 2 13 16.42 9.57 28.71 o
3 2 13 0.50 1.91 35.41 o
4 2 13 1508.42 1563.99 64.13 o
5 2 13 1039.37 1027.03 55.51 o
6 2 13 71.45 109.12 38.29 o
7 2 13 911.88 749.45 57.43 o
8 2 13 247.50 279.49 45.94 o
9 2 13 1888.60 2055.01 73.70 o
10 2 13 71.51 126.34 48.81 o
11 2 13 517.87 528.35 54.56 o
12 2 13 419.00 475.71 55.51 o
13 2 13 227.36 277.57 56.47 o
14 2 13 283.12 216.32 53.60 o
15 2 13 603.97 477.62 59.34 o
16 2 13 666.13 727.44 67.00 o
17 2 13 372.82 276.62 59.34 o
18 2 13 60.39 11.49 58.39 o
19 2 13 9.34 1.91 62.21 o
20 2 13 122.90 183.77 75.62 o
21 2 13 370.65 188.56 77.53 o
22 2 13 103.51 84.23 127.30 o
23 2 13 35.78 2.87 128.26 o
24 2 13 4.22 6.70 137.83 o
25 2 13 139.55 105.29 110.07 o
26 2 13 36.90 3.83 256.52 o
27 2 13 72.02 10.53 206.75 o
1 3 13 859.55 862.39 53.60 o
2 3 13 17277.65 16034.23 250.77 o
3 3 13 7379.47 7549.07 194.30 o
4 3 13 5737.10 4819.27 123.47 o
5 3 13 192.88 260.35 38.29 o
6 3 13 803.36 945.67 57.43 o
7 3 13 86.22 198.13 52.64 o
8 3 13 8390.00 7877.37 156.02 o
9 3 13 1298.39 1525.70 67.00 o
10 3 13 718.38 711.16 57.43 o
11 3 13 398.30 396.26 54.56 o
12 3 13 6850.98 6884.80 136.87 o
13 3 13 2356.92 2788.19 95.72 o
14 3 13 3864.13 3824.78 98.59 o
15 3 13 11.77 33.50 56.47 o
16 3 13 351.92 210.57 58.39 o
17 3 13 110.26 19.14 56.47 o
18 3 13 2000.96 1830.08 94.76 o
19 3 13 1132.53 1438.60 92.84 o
20 3 13 1761.76 1985.14 114.86 o
21 3 13 8.23 28.71 85.19 o
22 3 13 359.23 212.49 89.02 o
23 3 13 28.62 34.46 100.50 o
24 3 13 1863.14 1800.40 201.96 o
25 3 13 181.67 231.63 166.54 o
26 3 13 285.60 268.96 178.03 o
0 4 13 3389.30 3851.58 193.34 o
1 4 13 7693.71 7099.20 165.59 o
2 4 13 186.89 226.85 63.17 o
3 4 13 31.96 24.89 44.99 o
4 4 13 713.09 853.78 59.34 o
5 4 13 4619.05 4753.22 120.60 o
6 4 13 2315.86 2211.02 87.10 o
7 4 13 2371.92 2205.28 77.53 o
8 4 13 608.83 626.94 58.39 o
9 4 13 3734.29 3938.68 107.20 o
10 4 13 1539.56 1720.96 70.83 o
11 4 13 2728.46 2657.06 87.10 o
12 4 13 329.25 431.68 58.39 o
13 4 13 1433.17 1458.70 72.74 o
14 4 13 84.87 7.66 55.51 o
15 4 13 2518.60 2176.57 87.10 o
16 4 13 558.56 762.85 73.70 o
17 4 13 3367.60 2703.00 118.69 o
18 4 13 141.29 198.13 75.62 o
19 4 13 38.97 16.27 99.54 o
20 4 13 1.91 7.66 91.89 o
21 4 13 1523.59 1470.19 115.82 o
22 4 13 90.97 235.46 95.72 o
23 4 13 648.01 601.09 121.56 o
24 4 13 7.03 8.61 145.49 o
25 4 13 319.84 311.07 114.86 o
26 4 13 22.39 87.10 158.89 o
1 5 13 125.59 156.97 62.21 o
2 5 13 14066.57 13114.91 248.86 o
3 5 13 763.68 1132.31 80.40 o
4 5 13 6174.77 4981.02 119.64 o
5 5 13 31.27 120.60 46.90 o
6 5 13 81.21 85.19 29.67 o
7 5 13 657.33 748.49 60.30 o
8 5 13 12966.12 12063.96 216.32 o
9 5 13 1781.37 1989.92 87.10 o
10 5 13 1025.82 1081.58 61.26 o
11 5 13 332.34 321.60 51.69 o
12 5 13 7661.26 7426.55 148.36 o
13 5 13 1464.68 2031.08 88.06 o
14 5 13 6462.73 5879.79 153.14 o
15 5 13 572.95 669.05 73.70 o
16 5 13 1.95 0.00 62.21 o
17 5 13 263.64 169.42 76.57 o
18 5 13 3195.26 2962.39 132.09 o
19 5 13 626.72 716.91 92.84 o
20 5 13 1650.30 1685.55 114.86 o
21 5 13 113.28 121.56 86.14 o
22 5 13 654.90 504.42 99.54 o
23 5 13 24.44 71.79 94.76 o
24 5 13 1554.56 1436.69 148.36 o
25 5 13 230.03 406.79 187.60 o
26 5 13 6.59 24.89 168.46 o
0 6 13 4715.58 6756.54 228.76 o
1 6 13 14978.56 12930.18 261.30 o
2 6 13 785.47 973.42 69.87 o
3 6 13 1104.28 1070.10 72.74 o
4 6 13 569.57 1016.50 73.70 o
5 6 13 12861.25 11799.78 236.42 o
6 6 13 3979.41 4487.13 118.69 o
7 6 13 1437.79 1415.63 68.92 o
8 6 13 465.49 464.22 57.43 o
9 6 13 7124.03 6534.48 133.04 o
10 6 13 1843.40 2362.25 103.37 o
11 6 13 4679.31 4407.69 111.03 o
12 6 13 329.04 484.32 60.30 o
13 6 13 540.89 417.32 66.04 o
14 6 13 2.46 0.96 57.43 o
15 6 13 3377.55 2826.47 134.00 o
16 6 13 664.13 920.78 89.97 o
17 6 13 2177.56 1914.31 112.94 o
18 6 13 238.00 312.99 84.23 o
19 6 13 82.86 40.20 108.16 o
20 6 13 6.72 4.79 81.36 o
21 6 13 1232.12 872.92 131.13 o
22 6 13 353.81 434.55 104.33 o
23 6 13 531.60 514.95 106.24 o
24 6 13 35.19 98.59 129.22 o
25 6 13 194.59 121.56 122.52 o
1 7 13 556.72 768.59 59.34 o
2 7 13 2295.27 2181.35 91.89 o
3 7 13 1172.41 1573.56 73.70 o
4 7 13 352.08 347.45 56.47 o
5 7 13 164.26 223.97 53.60 o
6 7 13 225.91 228.76 52.64 o
7 7 13 76.88 97.63 51.69 o
8 7 13 2863.19 2496.25 89.97 o
9 7 13 1688.49 1666.40 77.53 o
10 7 13 445.94 461.35 60.30 o
11 7 13 80.67 59.34 54.56 o
12 7 13 901.67 970.55 78.49 o
13 7 13 997.86 966.72 79.44 o
14 7 13 1371.67 1493.16 92.84 o
15 7 13 124.42 130.17 89.97 o
16 7 13 0.98 0.96 75.62 o
17 7 13 0.34 0.96 75.62 o
18 7 13 413.33 403.92 82.32 o
19 7 13 424.84 373.29 88.06 o
20 7 13 285.22 207.70 87.10 o
21 7 13 111.13 73.70 101.46 o
22 7 13 78.66 32.54 125.39 o
23 7 13 42.20 68.92 225.89 o
24 7 13 350.31 377.12 125.39 o
0 8 13 1357.82 2233.04 124.43 o
1 8 13 8704.43 7482.06 171.33 o
2 8 13 232.65 334.05 61.26 o
3 8 13 20.50 21.06 47.86 o
4 8 13 245.32 511.12 59.34 o
5 8 13 8325.16 8570.35 185.69 o
6 8 13 1780.59 2313.44 88.06 o
7 8 13 3263.23 3178.70 93.80 o
8 8 13 187.50 118.69 51.69 o
9 8 13 3056.76 3157.65 109.12 o
10 8 13 1329.86 1906.65 85.19 o
11 8 13 9810.33 9450.93 209.62 o
12 8 13 1147.01 1477.84 110.07 o
13 8 13 1596.24 1349.59 103.37 o
14 8 13 14.38 2.87 70.83 o
15 8 13 4881.72 4450.76 173.24 o
16 8 13 586.66 1012.67 101.46 o
17 8 13 5014.62 5289.23 186.64 o
18 8 13 202.80 305.33 92.84 o
19 8 13 107.50 71.79 110.07 o
20 8 13 28.99 83.27 135.92 o
21 8 13 2356.54 1927.71 140.70 o
22 8 13 317.80 373.29 202.92 o
23 8 13 536.95 597.26 140.70 o
1 9 13 667.71 686.28 65.09 o
2 9 13 488.41 435.50 56.47 o
3 9 13 362.04 443.16 58.39 o
4 9 13 43.22 1.91 48.81 o
5 9 13 66.35 12.44 49.77 o
6 9 13 43.34 52.64 51.69 o
7 9 13 332.18 276.62 63.17 o
8 9 13 463.95 361.80 62.21 o
9 9 13 175.52 123.47 58.39 o
10 9 13 29.63 26.80 64.13 o
11 9 13 181.15 239.29 73.70 o
12 9 13 132.71 72.74 72.74 o
13 9 13 23.71 4.79 71.79 o
14 9 13 212.86 140.70 82.32 o
15 9 13 181.15 179.94 84.23 o
16 9 13 9.17 3.83 77.53 o
17 9 13 23.01 3.83 101.46 o
18 9 13 39.84 35.41 86.14 o
19 9 13 16.28 6.70 125.39 o
20 9 13 3.22 1.91 118.69 o
21 9 13 18.00 1.91 141.66 o
22 9 13 14.98 1.91 136.87 o
0 10 13 3638.80 4780.02 198.13 o
1 10 13 9582.31 8634.48 189.52 o
2 10 13 511.31 804.97 62.21 o
3 10 13 108.44 82.32 52.64 o
4 10 13 1052.29 1551.54 79.44 o
5 10 13 10928.47 9984.06 201.00 o
6 10 13 1403.97 2356.51 104.33 o
7 10 13 2494.24 2483.81 99.54 o
8 10 13 22.83 9.57 60.30 o
9 10 13 4099.12 4065.99 125.39 o
10 10 13 1207.90 1634.82 106.24 o
11 10 13 8293.07 7708.91 207.70 o
12 10 13 1517.04 1974.61 112.94 o
13 10 13 159.95 112.94 78.49 o
14 10 13 209.76 301.50 85.19 o
15 10 13 3834.89 3355.78 152.19 o
16 10 13 1018.90 1206.01 114.86 o
17 10 13 2431.25 2264.62 138.79 o
18 10 13 19.92 14.36 95.72 o
19 10 13 116.59 3.83 102.42 o
20 10 13 124.08 88.06 121.56 o
21 10 13 1501.72 1329.49 139.74 o
1 11 13 13.23 20.10 53.60 o
2 11 13 282.76 306.29 57.43 o
3 11 13 224.15 265.13 59.34 o
4 11 13 419.14 301.50 64.13 o
5 11 13 2.91 0.96 53.60 o
6 11 13 274.15 168.46 80.40 o
7 11 13 145.53 247.90 70.83 o
8 11 13 266.07 267.05 73.70 o
9 11 13 63.18 107.20 76.57 o
10 11 13 23.71 80.40 75.62 o
11 11 13 0.01 8.61 69.87 o
12 11 13 161.38 111.03 81.36 o
13 11 13 117.34 166.54 86.14 o
14 11 13 191.99 193.34 90.93 o
15 11 13 170.23 97.63 91.89 o
16 11 13 0.08 0.96 111.99 o
17 11 13 6.62 1.91 128.26 o
18 11 13 78.25 0.00 187.60 o
19 11 13 33.47 3.83 137.83 o
0 12 13 2586.46 2979.62 144.53 o
1 12 13 3757.64 3680.25 118.69 o
2 12 13 389.58 465.18 68.92 o
3 12 13 14.94 26.80 59.34 o
4 12 13 1196.09 1214.63 85.19 o
5 12 13 5752.58 5160.97 172.29 o
6 12 13 1104.90 1469.23 102.42 o
7 12 13 2019.72 1820.50 139.74 o
8 12 13 10.34 2.87 86.14 o
9 12 13 2005.49 2047.35 125.39 o
10 12 13 849.54 1394.57 109.12 o
11 12 13 6094.34 5784.08 218.23 o
12 12 13 1650.72 1844.43 141.66 o
13 12 13 408.02 333.09 104.33 o
14 12 13 33.23 6.70 93.80 o
15 12 13 2061.17 2073.19 150.27 o
16 12 13 552.67 751.37 128.26 o
17 12 13 1779.73 1584.09 143.57 o
1 13 13 1.66 2.87 60.30 o
2 13 13 2631.13 2306.74 106.24 o
3 13 13 188.68 216.32 74.66 o
4 13 13 1223.12 1058.61 92.84 o
5 13 13 5.08 0.00 96.67 o
6 13 13 342.31 211.53 79.44 o
7 13 13 93.06 106.24 86.14 o
8 13 13 1298.94 848.04 115.82 o
9 13 13 1.10 2.87 110.07 o
10 13 13 108.38 86.14 95.72 o
11 13 13 100.32 125.39 104.33 o
12 13 13 912.15 648.95 122.52 o
13 13 13 32.90 48.81 110.07 o
14 13 13 1058.33 1007.88 128.26 o
15 13 13 8.00 29.67 106.24 o
0 14 13 724.87 1072.01 147.40 o
1 14 13 2604.07 2702.04 178.03 o
2 14 13 288.26 299.59 110.07 o
3 14 13 37.93 22.97 81.36 o
4 14 13 340.42 446.99 101.46 o
5 14 13 3212.56 2899.22 164.63 o
6 14 13 715.30 1027.98 116.77 o
7 14 13 942.63 886.32 115.82 o
8 14 13 4.28 3.83 83.27 o
9 14 13 1244.16 1381.17 242.16 o
10 14 13 605.98 709.25 125.39 o
11 14 13 3053.01 2786.27 184.73 o
12 14 13 680.22 753.28 132.09 o
1 15 13 67.82 11.49 110.07 o
2 15 13 2525.51 2393.84 166.54 o
3 15 13 372.15 377.12 121.56 o
4 15 13 1146.67 1001.18 141.66 o
5 15 13 9.71 1.91 86.14 o
6 15 13 287.50 170.37 98.59 o
7 15 13 73.72 150.27 117.73 o
8 15 13 1922.93 1670.23 157.93 o
9 15 13 161.31 202.92 174.20 o
0 0 14 24845.38 25884.29 862.39 o
1 0 14 1064.12 1778.39 478.58 o
2 0 14 6451.50 5276.78 222.06 o
3 0 14 227.13 193.34 53.60 o
4 0 14 4790.08 5348.57 181.86 o
5 0 14 2294.17 3837.23 157.93 o
6 0 14 13873.15 11759.58 257.47 o
7 0 14 415.49 904.51 71.79 o
8 0 14 6.64 20.10 64.13 o
9 0 14 1323.64 2080.85 112.94 o
10 0 14 19203.07 18290.24 382.86 o
11 0 14 1642.28 2792.02 320.65 o
12 0 14 10615.23 10548.78 257.47 o
13 0 14 215.17 261.30 77.53 o
14 0 14 1903.40 1614.72 102.42 o
15 0 14 278.41 708.29 90.93 o
16 0 14 9334.32 7857.27 223.97 o
17 0 14 715.05 1222.28 105.29 o
18 0 14 3078.70 3283.03 175.16 o
19 0 14 231.60 35.41 87.10 o
20 0 14 1779.02 1786.05 130.17 o
21 0 14 456.17 521.65 185.69 o
22 0 14 3406.48 3524.24 283.32 o
23 0 14 0.08 10.53 189.52 o
24 0 14 120.95 4.79 162.72 o
25 0 14 316.94 281.40 502.51 o
26 0 14 855.17 862.39 522.61 o
1 1 14 1486.93 1642.47 82.32 o
2 1 14 954.76 964.81 65.09 o
3 1 14 1957.76 1765.95 69.87 o
4 1 14 334.38 245.99 45.94 o
5 1 14 382.40 477.62 41.16 o
6 1 14 187.37 241.20 45.94 o
7 1 14 1800.63 1893.25 63.17 o
8 1 14 960.12 944.71 56.47 o
9 1 14 461.30 437.42 52.64 o
10 1 14 10.03 17.23 49.77 o
11 1 14 371.08 441.25 58.39 o
12 1 14 123.73 77.53 53.60 o
13 1 14 604.71 704.46 62.21 o
14 1 14 429.83 465.18 61.26 o
15 1 14 12.08 7.66 54.56 o
16 1 14 9.88 2.87 56.47 o
17 1 14 69.76 55.51 60.30 o
18 1 14 153.15 113.90 63.17 o
19 1 14 1.95 0.96 62.21 o
20 1 14 3.58 28.71 68.92 o
21 1 14 3.61 0.00 81.36 o
22 1 14 46.86 2.87 126.34 o
23 1 14 28.72 0.00 89.97 o
24 1 14 24.66 0.00 226.85 o
25 1 14 67.73 1.91 229.72 o
26 1 14 1.36 1.91 136.87 o
0 2 14 16002.41 15427.39 469.00 o
1 2 14 1357.79 1631.95 137.83 o
2 2 14 2726.39 2366.08 95.72 o
3 2 14 14.66 7.66 33.50 o
4 2 14 6093.24 6065.48 125.39 o
5 2 14 2374.69 4081.30 100.50 o
6 2 14 9846.91 8578.96 167.50 o
7 2 14 212.85 291.93 52.64 o
8 2 14 22.14 25.84 44.99 o
9 2 14 1086.58 1643.43 67.96 o
10 2 14 18246.44 16991.38 248.86 o
11 2 14 1542.55 3233.26 126.34 o
12 2 14 10560.29 10608.13 184.73 o
13 2 14 40.83 40.20 54.56 o
14 2 14 1153.24 938.97 67.96 o
15 2 14 116.99 360.85 59.34 o
16 2 14 6904.42 6704.86 145.49 o
17 2 14 606.22 764.77 72.74 o
18 2 14 1738.81 1648.22 82.32 o
19 2 14 24.77 4.79 71.79 o
20 2 14 1748.51 1825.29 106.24 o
21 2 14 121.50 247.90 135.92 o
22 2 14 2177.36 2083.72 202.92 o
23 2 14 18.45 50.73 100.50 o
24 2 14 35.67 11.49 136.87 o
25 2 14 121.26 109.12 173.24 o
26 2 14 859.97 1022.24 162.72 o
1 3 14 1371.38 1129.44 70.83 o
2 3 14 541.48 806.88 67.00 o
3 3 14 2375.60 1877.93 72.74 o
4 3 14 299.47 356.06 48.81 o
5 3 14 264.12 222.06 47.86 o
6 3 14 0.35 5.74 39.24 o
7 3 14 185.46 142.62 50.73 o
8 3 14 1045.62 1135.18 68.92 o
9 3 14 1402.19 1280.67 66.04 o
10 3 14 5.94 7.66 50.73 o
11 3 14 191.03 209.62 54.56 o
12 3 14 0.66 17.23 54.56 o
13 3 14 2355.36 2244.52 80.40 o
14 3 14 627.04 600.13 59.34 o
15 3 14 671.56 593.43 69.87 o
16 3 14 45.06 0.00 58.39 o
17 3 14 281.15 207.70 64.13 o
18 3 14 247.40 180.90 72.74 o
19 3 14 550.93 501.55 117.73 o
20 3 14 2.22 17.23 79.44 o
21 3 14 102.67 86.14 89.97 o
22 3 14 83.59 34.46 126.34 o
23 3 14 161.33 139.74 114.86 o
24 3 14 24.28 16.27 141.66 o
25 3 14 249.58 242.16 115.82 o
26 3 14 0.96 36.37 202.92 o
0 4 14 10008.37 8674.68 422.10 o
1 4 14 645.73 1159.11 85.19 o
2 4 14 1877.75 2040.65 89.02 o
3 4 14 63.25 55.51 43.07 o
4 4 14 3135.74 3428.52 111.99 o
5 4 14 358.29 573.33 59.34 o
6 4 14 4450.89 3432.35 103.37 o
7 4 14 421.22 524.52 51.69 o
8 4 14 45.21 40.20 46.90 o
9 4 14 19.28 69.87 52.64 o
10 4 14 8905.20 8579.92 151.23 o
11 4 14 2079.55 2808.29 131.13 o
12 4 14 6497.06 6196.61 141.66 o
13 4 14 197.48 265.13 58.39 o
14 4 14 458.29 436.46 61.26 o
15 4 14 563.54 680.54 73.70 o
16 4 14 5813.49 5517.99 144.53 o
17 4 14 797.63 919.82 116.77 o
18 4 14 1571.12 1429.99 98.59 o
19 4 14 130.79 56.47 100.50 o
20 4 14 1689.83 1740.10 127.30 o
21 4 14 168.38 244.07 108.16 o
22 4 14 1852.55 2000.45 130.17 o
23 4 14 4.02 8.61 161.76 o
24 4 14 27.06 1.91 124.43 o
25 4 14 136.49 81.36 166.54 o
1 5 14 2723.25 2769.04 105.29 o
2 5 14 2081.72 2233.04 95.72 o
3 5 14 6707.99 5984.12 145.49 o
4 5 14 1005.04 933.22 93.80 o
5 5 14 2436.71 2144.98 90.93 o
6 5 14 387.34 245.03 44.03 o
7 5 14 2142.41 1977.48 78.49 o
8 5 14 3800.20 3442.88 113.90 o
9 5 14 9254.76 8602.89 163.67 o
10 5 14 712.49 602.05 60.30 o
11 5 14 74.19 93.80 53.60 o
12 5 14 512.14 693.94 63.17 o
13 5 14 9076.48 8379.87 227.80 o
14 5 14 448.42 690.11 90.93 o
15 5 14 3936.95 3783.63 140.70 o
16 5 14 439.00 341.70 67.96 o
17 5 14 724.55 581.95 89.02 o
18 5 14 369.21 330.22 133.04 o
19 5 14 2976.95 2874.33 137.83 o
20 5 14 0.68 10.53 108.16 o
21 5 14 283.29 282.36 145.49 o
22 5 14 253.90 385.73 129.22 o
23 5 14 1228.81 1444.34 128.26 o
24 5 14 75.91 146.44 165.59 o
25 5 14 743.38 808.79 134.00 o
0 6 14 11514.23 10633.97 312.03 o
1 6 14 17.55 42.11 72.74 o
2 6 14 916.48 972.47 69.87 o
3 6 14 102.01 81.36 51.69 o
4 6 14 5977.46 5555.32 129.22 o
5 6 14 91.80 259.39 59.34 o
6 6 14 3309.59 3012.16 99.54 o
7 6 14 0.22 0.96 52.64 o
8 6 14 578.59 378.08 58.39 o
9 6 14 11.35 27.76 57.43 o
10 6 14 5797.78 5340.91 136.87 o
11 6 14 264.38 432.63 61.26 o
12 6 14 1117.21 1152.41 77.53 o
13 6 14 97.47 122.52 69.87 o
14 6 14 265.57 286.19 67.96 o
15 6 14 105.58 108.16 67.96 o
16 6 14 1503.00 1408.93 109.12 o
17 6 14 183.08 134.96 79.44 o
18 6 14 554.60 429.76 89.97 o
19 6 14 2.46 3.83 102.42 o
20 6 14 353.00 253.65 89.97 o
21 6 14 30.37 2.87 129.22 o
22 6 14 603.17 666.18 114.86 o
23 6 14 45.99 2.87 130.17 o
24 6 14 95.05 74.66 174.20 o
1 7 14 5670.44 4958.05 178.03 o
2 7 14 3187.10 3892.74 150.27 o
3 7 14 11287.27 9689.26 192.39 o
4 7 14 1218.92 1760.20 88.06 o
5 7 14 992.57 939.92 66.04 o
6 7 14 772.59 693.94 62.21 o
7 7 14 7045.01 6446.42 150.27 o
8 7 14 5421.46 6253.08 138.79 o
9 7 14 7960.85 7597.88 159.84 o
10 7 14 540.92 344.58 59.34 o
11 7 14 907.27 814.54 71.79 o
12 7 14 717.43 1016.50 118.69 o
13 7 14 8608.53 8128.14 184.73 o
14 7 14 725.20 1089.24 88.06 o
15 7 14 2432.03 2385.23 130.17 o
16 7 14 226.12 112.94 82.32 o
17 7 14 744.80 651.82 100.50 o
18 7 14 319.37 389.56 97.63 o
19 7 14 2561.55 2448.40 141.66 o
20 7 14 9.88 3.83 131.13 o
21 7 14 204.07 120.60 105.29 o
22 7 14 219.52 231.63 139.74 o
23 7 14 1570.69 1863.58 158.89 o
0 8 14 2047.50 1728.62 133.04 o
1 8 14 238.85 170.37 61.26 o
2 8 14 20.58 4.79 54.56 o
3 8 14 40.62 58.39 52.64 o
4 8 14 1445.33 1304.60 81.36 o
5 8 14 131.15 210.57 55.51 o
6 8 14 1572.69 1296.94 73.70 o
7 8 14 0.79 6.70 50.73 o
8 8 14 54.24 45.94 53.60 o
9 8 14 34.34 70.83 60.30 o
10 8 14 2437.86 2331.62 95.72 o
11 8 14 45.35 71.79 64.13 o
12 8 14 756.68 663.31 85.19 o
13 8 14 71.10 82.32 75.62 o
14 8 14 0.78 14.36 79.44 o
15 8 14 0.55 8.61 79.44 o
16 8 14 519.41 476.66 91.89 o
17 8 14 27.32 40.20 86.14 o
18 8 14 279.06 196.22 108.16 o
19 8 14 31.63 4.79 138.79 o
20 8 14 240.43 68.92 99.54 o
21 8 14 0.96 0.96 103.37 o
22 8 14 447.53 323.52 119.64 o
1 9 14 4975.59 4372.27 128.26 o
2 9 14 1046.10 1410.84 147.40 o
3 9 14 10719.36 9927.59 197.17 o
4 9 14 252.56 372.33 80.40 o
5 9 14 782.61 528.35 67.96 o
6 9 14 3.39 0.96 53.60 o
7 9 14 4842.96 4646.02 137.83 o
8 9 14 1400.53 1453.92 143.57 o
9 9 14 4405.81 4222.96 130.17 o
10 9 14 0.73 20.10 66.04 o
11 9 14 716.42 653.74 86.14 o
12 9 14 55.68 173.24 81.36 o
13 9 14 6222.89 5573.50 199.09 o
14 9 14 1154.70 1488.37 157.93 o
15 9 14 2095.17 1916.22 122.52 o
16 9 14 36.37 2.87 82.32 o
17 9 14 611.71 666.18 101.46 o
18 9 14 369.23 478.58 108.16 o
19 9 14 2843.90 2778.61 155.06 o
20 9 14 60.59 72.74 152.19 o
21 9 14 268.66 101.46 244.07 o
0 10 14 546.33 490.06 97.63 o
1 10 14 17.88 19.14 58.39 o
2 10 14 299.19 244.07 58.39 o
3 10 14 71.69 122.52 55.51 o
4 10 14 674.70 591.52 71.79 o
5 10 14 0.18 32.54 62.21 o
6 10 14 226.05 95.72 61.26 o
7 10 14 3.80 2.87 59.34 o
8 10 14 67.15 91.89 60.30 o
9 10 14 131.43 89.97 69.87 o
10 10 14 60.18 66.04 70.83 o
11 10 14 16.92 17.23 72.74 o
12 10 14 36.79 9.57 75.62 o
13 10 14 1.97 25.84 82.32 o
14 10 14 54.21 91.89 84.23 o
15 10 14 12.43 9.57 101.46 o
16 10 14 12.16 3.83 79.44 o
17 10 14 20.57 0.00 89.97 o
18 10 14 15.40 8.61 101.46 o
19 10 14 15.64 2.87 103.37 o
20 10 14 3.56 2.87 166.54 o
1 11 14 4115.90 3765.44 118.69 o
2 11 14 2696.22 3541.47 113.90 o
3 11 14 9922.36 8806.76 195.26 o
4 11 14 119.67 154.10 71.79 o
5 11 14 199.17 222.06 61.26 o
6 11 14 490.22 556.11 73.70 o
7 11 14 5433.53 5590.73 167.50 o
8 11 14 1701.46 2390.97 140.70 o
9 11 14 5206.26 5236.58 180.90 o
10 11 14 17.73 13.40 78.49 o
11 11 14 179.67 61.26 74.66 o
12 11 14 617.14 988.74 101.46 o
13 11 14 5477.16 5279.66 210.57 o
14 11 14 1241.09 1623.33 116.77 o
15 11 14 2501.54 2633.13 140.70 o
16 11 14 263.28 141.66 92.84 o
17 11 14 367.32 388.60 111.99 o
18 11 14 449.02 521.65 118.69 o
0 12 14 126.80 235.46 81.36 o
1 12 14 520.39 698.72 72.74 o
2 12 14 643.33 873.88 77.53 o
3 12 14 10.01 21.06 59.34 o
4 12 14 5.12 5.74 62.21 o
5 12 14 294.78 416.36 77.53 o
6 12 14 334.33 245.03 77.53 o
7 12 14 49.79 84.23 73.70 o
8 12 14 47.20 17.23 76.57 o
9 12 14 13.87 5.74 77.53 o
10 12 14 41.44 21.06 106.24 o
11 12 14 90.64 139.74 120.60 o
12 12 14 249.37 217.27 130.17 o
13 12 14 99.25 125.39 92.84 o
14 12 14 13.35 71.79 101.46 o
15 12 14 91.00 15.31 94.76 o
16 12 14 497.79 411.58 115.82 o
1 13 14 2094.32 2105.74 97.63 o
2 13 14 358.92 640.34 81.36 o
3 13 14 6153.77 5491.19 191.43 o
4 13 14 4.80 4.79 80.40 o
5 13 14 204.98 158.89 74.66 o
6 13 14 27.07 16.27 71.79 o
7 13 14 2379.71 2205.28 148.36 o
8 13 14 469.67 595.35 97.63 o
9 13 14 2828.21 2644.61 158.89 o
10 13 14 0.36 4.79 95.72 o
11 13 14 90.10 46.90 108.16 o
12 13 14 171.72 240.25 133.04 o
13 13 14 3041.92 3005.46 202.92 o
14 13 14 609.92 854.74 139.74 o
0 14 14 1571.84 1452.96 172.29 o
1 14 14 978.47 1263.44 128.26 o
2 14 14 781.20 735.09 146.44 o
3 14 14 14.40 3.83 84.23 o
4 14 14 729.23 659.48 111.03 o
5 14 14 526.12 604.92 111.03 o
6 14 14 1917.56 1678.85 138.79 o
7 14 14 64.25 16.27 132.09 o
8 14 14 43.03 1.91 95.72 o
9 14 14 93.20 133.04 104.33 o
10 14 14 1076.98 903.55 152.19 o
11 14 14 189.04 267.05 118.69 o
1 15 14 798.20 766.68 142.62 o
2 15 14 130.25 244.07 131.13 o
3 15 14 2279.31 2130.62 159.84 o
4 15 14 25.00 9.57 126.34 o
5 15 14 14.34 0.96 92.84 o
6 15 14 34.66 4.79 115.82 o
1 1 15 15200.78 14341.98 445.08 o
2 1 15 8710.89 10102.75 368.50 o
3 1 15 17712.34 17374.24 285.23 o
4 1 15 3057.34 3773.10 134.96 o
5 1 15 1253.92 1252.91 67.00 o
6 1 15 1.43 22.01 47.86 o
7 1 15 12310.72 11837.11 194.30 o
8 1 15 3173.84 4199.03 104.33 o
9 1 15 8415.06 8098.47 153.14 o
10 1 15 1937.41 2060.75 81.36 o
11 1 15 785.37 729.35 61.26 o
12 1 15 2504.91 2927.93 102.42 o
13 1 15 11145.68 9381.06 170.37 o
14 1 15 3595.40 4385.67 115.82 o
15 1 15 3718.92 3585.49 102.42 o
16 1 15 1063.84 926.52 72.74 o
17 1 15 3135.74 2858.06 101.46 o
18 1 15 927.48 1257.70 85.19 o
19 1 15 2802.67 3104.05 155.06 o
20 1 15 2196.84 2471.37 128.26 o
21 1 15 20.07 4.79 81.36 o
22 1 15 72.97 136.87 93.80 o
23 1 15 2126.58 2126.79 134.96 o
24 1 15 1041.44 1273.01 159.84 o
25 1 15 620.38 603.96 152.19 o
26 1 15 409.19 357.98 248.86 o
0 2 15 3842.35 3455.32 235.46 o
1 2 15 14.75 53.60 69.87 o
2 2 15 957.86 891.11 86.14 o
3 2 15 543.21 441.25 60.30 o
4 2 15 1226.67 1352.46 78.49 o
5 2 15 86.42 80.40 43.07 o
6 2 15 1257.59 1281.63 63.17 o
7 2 15 202.12 245.99 47.86 o
8 2 15 0.70 9.57 46.90 o
9 2 15 0.26 1.91 49.77 o
10 2 15 1548.33 1311.30 68.92 o
11 2 15 2.51 9.57 52.64 o
12 2 15 206.26 266.09 57.43 o
13 2 15 182.39 205.79 55.51 o
14 2 15 240.40 312.99 59.34 o
15 2 15 59.64 77.53 58.39 o
16 2 15 215.26 179.94 63.17 o
17 2 15 327.85 261.30 67.96 o
18 2 15 26.64 1.91 61.26 o
19 2 15 0.02 2.87 75.62 o
20 2 15 109.91 17.23 78.49 o
21 2 15 220.77 180.90 84.23 o
22 2 15 121.42 4.79 172.29 o
23 2 15 47.90 29.67 139.74 o
24 2 15 15.85 34.46 150.27 o
25 2 15 29.58 0.96 130.17 o
1 3 15 7584.85 7684.98 209.62 o
2 3 15 8654.43 9964.92 259.39 o
3 3 15 10273.08 11094.36 207.70 o
4 3 15 2175.20 2580.48 83.27 o
5 3 15 583.31 569.51 58.39 o
6 3 15 141.25 173.24 47.86 o
7 3 15 9507.81 9247.05 178.03 o
8 3 15 3507.55 4149.26 108.16 o
9 3 15 3917.05 4006.64 115.82 o
10 3 15 134.55 185.69 55.51 o
11 3 15 1019.77 949.50 70.83 o
12 3 15 3263.97 3281.12 100.50 o
13 3 15 3838.72 3680.25 108.16 o
14 3 15 1294.58 1811.89 83.27 o
15 3 15 1638.76 1369.69 80.40 o
16 3 15 4.26 0.96 62.21 o
17 3 15 607.65 562.81 70.83 o
18 3 15 548.80 777.21 86.14 o
19 3 15 1015.33 1099.77 130.17 o
20 3 15 739.33 944.71 106.24 o
21 3 15 100.18 92.84 91.89 o
22 3 15 182.98 223.02 122.52 o
23 3 15 924.05 1115.08 135.92 o
24 3 15 573.32 918.87 204.83 o
25 3 15 512.52 497.72 209.62 o
0 4 15 14265.43 13678.67 423.06 o
1 4 15 3915.23 3886.04 134.96 o
2 4 15 2666.09 2655.14 104.33 o
3 4 15 9.91 38.29 53.60 o
4 4 15 3202.86 3480.21 120.60 o
5 4 15 3856.90 4244.02 111.03 o
6 4 15 3046.95 3461.07 101.46 o
7 4 15 529.98 547.49 60.30 o
8 4 15 17.96 28.71 51.69 o
9 4 15 1651.11 1678.85 78.49 o
10 4 15 3465.56 3417.04 102.42 o
11 4 15 920.19 1200.27 69.87 o
12 4 15 1303.05 1265.36 70.83 o
13 4 15 131.41 138.79 57.43 o
14 4 15 577.90 518.78 67.00 o
15 4 15 513.42 666.18 69.87 o
16 4 15 2107.42 1936.32 96.67 o
17 4 15 982.14 1174.43 84.23 o
18 4 15 401.21 191.43 92.84 o
19 4 15 10.00 0.00 86.14 o
20 4 15 444.45 288.10 106.24 o
21 4 15 280.85 441.25 119.64 o
22 4 15 804.36 614.49 137.83 o
23 4 15 207.87 201.00 138.79 o
24 4 15 5.53 17.23 155.06 o
25 4 15 10.92 2.87 224.93 o
1 5 15 3391.81 3120.32 103.37 o
2 5 15 2070.17 3077.25 117.73 o
3 5 15 8034.26 7382.52 166.54 o
4 5 15 804.53 1144.75 73.70 o
5 5 15 1170.68 1295.03 72.74 o
6 5 15 517.57 484.32 63.17 o
7 5 15 7924.67 6986.26 154.10 o
8 5 15 2749.94 3284.95 104.33 o
9 5 15 4662.31 4207.64 119.64 o
10 5 15 1210.17 1291.20 75.62 o
11 5 15 1367.01 1221.33 74.66 o
12 5 15 1178.71 1578.35 71.79 o
13 5 15 4670.57 4528.29 123.47 o
14 5 15 2497.80 3339.51 123.47 o
15 5 15 1584.94 1654.92 89.02 o
16 5 15 234.37 173.24 69.87 o
17 5 15 1026.87 922.70 109.12 o
18 5 15 386.32 584.82 111.99 o
19 5 15 1778.50 1951.64 116.77 o
20 5 15 1017.60 1091.15 146.44 o
21 5 15 8.99 0.00 106.24 o
22 5 15 140.26 159.84 171.33 o
23 5 15 934.14 1149.54 126.34 o
24 5 15 777.95 1090.20 139.74 o
0 6 15 22410.50 20551.03 532.18 o
1 6 15 6143.57 7455.26 173.24 o
2 6 15 2463.37 2516.35 109.12 o
3 6 15 24.75 13.40 58.39 o
4 6 15 5730.30 5860.65 143.57 o
5 6 15 5095.06 5755.36 189.52 o
6 6 15 4222.15 4610.61 124.43 o
7 6 15 296.52 396.26 61.26 o
8 6 15 11.04 2.87 54.56 o
9 6 15 984.91 1133.27 71.79 o
10 6 15 4982.51 4648.89 120.60 o
11 6 15 1040.04 1549.63 79.44 o
12 6 15 1761.17 1835.82 92.84 o
13 6 15 22.68 24.89 63.17 o
14 6 15 827.58 881.54 84.23 o
15 6 15 671.71 979.17 89.02 o
16 6 15 2470.94 2358.43 204.83 o
17 6 15 936.05 1225.16 125.39 o
18 6 15 122.35 2.87 89.02 o
19 6 15 2.21 0.96 87.10 o
20 6 15 599.37 375.20 140.70 o
21 6 15 255.71 185.69 106.24 o
22 6 15 756.69 764.77 120.60 o
23 6 15 369.50 307.25 197.17 o
1 7 15 183.63 359.89 66.04 o
2 7 15 1783.31 1921.96 95.72 o
3 7 15 240.53 318.73 60.30 o
4 7 15 396.09 579.08 62.21 o
5 7 15 242.84 178.99 59.34 o
6 7 15 591.20 496.76 66.04 o
7 7 15 883.80 926.52 67.96 o
8 7 15 1190.08 1092.11 74.66 o
9 7 15 1096.91 1116.04 74.66 o
10 7 15 686.02 774.34 67.00 o
11 7 15 54.09 38.29 62.21 o
12 7 15 531.57 572.38 77.53 o
13 7 15 559.86 613.54 78.49 o
14 7 15 1040.82 1200.27 129.22 o
15 7 15 722.13 708.29 93.80 o
16 7 15 1.97 10.53 82.32 o
17 7 15 80.51 69.87 117.73 o
18 7 15 228.31 205.79 93.80 o
19 7 15 328.11 355.10 98.59 o
20 7 15 324.66 307.25 141.66 o
21 7 15 6.49 0.00 130.17 o
22 7 15 46.06 9.57 102.42 o
23 7 15 121.27 201.96 147.40 o
0 8 15 12750.08 13009.62 374.25 o
1 8 15 2370.45 2889.64 111.03 o
2 8 15 2495.02 2656.10 97.63 o
3 8 15 42.73 22.01 52.64 o
4 8 15 1324.53 1532.40 84.23 o
5 8 15 2799.59 2956.65 104.33 o
6 8 15 4618.57 4951.35 130.17 o
7 8 15 460.46 602.05 68.92 o
8 8 15 487.88 374.25 62.21 o
9 8 15 168.15 261.30 64.13 o
10 8 15 4857.01 4755.14 139.74 o
11 8 15 2552.59 3008.33 125.39 o
12 8 15 3987.77 4022.91 146.44 o
13 8 15 311.68 294.80 79.44 o
14 8 15 457.32 494.85 90.93 o
15 8 15 814.05 1088.28 104.33 o
16 8 15 4955.12 4808.74 195.26 o
17 8 15 1575.12 2137.32 134.00 o
18 8 15 678.76 441.25 102.42 o
19 8 15 14.08 2.87 92.84 o
20 8 15 1092.78 882.49 114.86 o
21 8 15 663.32 625.98 198.13 o
22 8 15 1290.24 1415.63 201.00 o
1 9 15 84.94 143.57 62.21 o
2 9 15 1324.93 1219.41 78.49 o
3 9 15 9.45 2.87 53.60 o
4 9 15 4.82 13.40 54.56 o
5 9 15 6.57 16.27 54.56 o
6 9 15 16.58 9.57 56.47 o
7 9 15 182.86 104.33 64.13 o
8 9 15 373.43 385.73 67.96 o
9 9 15 156.22 154.10 62.21 o
10 9 15 12.25 81.36 74.66 o
11 9 15 32.84 6.70 74.66 o
12 9 15 352.47 316.82 82.32 o
13 9 15 136.40 50.73 81.36 o
14 9 15 50.54 104.33 98.59 o
15 9 15 187.90 134.96 87.10 o
16 9 15 42.22 42.11 110.07 o
17 9 15 35.97 2.87 97.63 o
18 9 15 2.31 44.99 97.63 o
19 9 15 17.92 0.00 127.30 o
20 9 15 1.46 2.87 154.10 o
0 10 15 13624.93 13444.17 374.25 o
1 10 15 3595.47 4514.89 133.04 o
2 10 15 2629.67 2446.48 102.42 o
3 10 15 17.15 10.53 55.51 o
4 10 15 2991.97 2934.63 110.07 o
5 10 15 4222.96 4691.96 145.49 o
6 10 15 6210.82 6181.29 166.54 o
7 10 15 738.20 793.48 77.53 o
8 10 15 29.13 32.54 63.17 o
9 10 15 457.64 480.49 99.54 o
10 10 15 6140.57 5886.49 181.86 o
11 10 15 2898.65 3358.65 191.43 o
12 10 15 1129.76 1058.61 102.42 o
13 10 15 0.71 1.91 79.44 o
14 10 15 813.80 849.95 104.33 o
15 10 15 1361.89 1690.33 125.39 o
16 10 15 2374.07 2266.54 146.44 o
17 10 15 835.80 1226.11 124.43 o
18 10 15 372.28 306.29 101.46 o
19 10 15 83.82 4.79 164.63 o
1 11 15 102.22 73.70 59.34 o
2 11 15 3.51 2.87 59.34 o
3 11 15 869.55 770.51 73.70 o
4 11 15 81.55 96.67 63.17 o
5 11 15 21.95 65.09 63.17 o
6 11 15 80.22 65.09 62.21 o
7 11 15 150.78 201.00 78.49 o
8 11 15 182.82 49.77 108.16 o
9 11 15 42.56 33.50 83.27 o
10 11 15 24.79 0.96 79.44 o
11 11 15 15.29 0.96 82.32 o
12 11 15 0.48 2.87 102.42 o
13 11 15 147.60 141.66 89.02 o
14 11 15 123.45 39.24 139.74 o
15 11 15 2.31 0.00 124.43 o
16 11 15 13.96 5.74 108.16 o
17 11 15 67.98 25.84 115.82 o
0 12 15 4840.93 5352.40 196.22 o
1 12 15 1985.59 2542.20 102.42 o
2 12 15 1360.53 1530.49 93.80 o
3 12 15 6.80 3.83 62.21 o
4 12 15 1120.83 1508.47 91.89 o
5 12 15 2841.07 2997.80 134.96 o
6 12 15 3262.20 3577.84 146.44 o
7 12 15 847.15 740.84 100.50 o
8 12 15 0.58 14.36 76.57 o
9 12 15 209.80 288.10 93.80 o
10 12 15 3608.97 3266.76 174.20 o
11 12 15 2127.81 2575.70 210.57 o
12 12 15 1015.24 913.12 130.17 o
13 12 15 74.66 16.27 86.14 o
14 12 15 264.23 336.92 100.50 o
15 12 15 590.18 862.39 128.26 o
1 13 15 651.48 558.02 76.57 o
2 13 15 279.85 500.59 79.44 o
3 13 15 2428.30 2158.38 126.34 o
4 13 15 32.26 74.66 103.37 o
5 13 15 179.79 148.36 77.53 o
6 13 15 122.79 68.92 86.14 o
7 13 15 731.26 627.89 116.77 o
8 13 15 154.00 61.26 88.06 o
9 13 15 461.17 292.89 95.72 o
10 13 15 0.56 5.74 89.97 o
11 13 15 45.86 25.84 95.72 o
12 13 15 32.22 2.87 138.79 o
13 13 15 944.26 883.45 170.37 o
0 14 15 3009.85 2946.12 199.09 o
1 14 15 1198.28 1318.00 114.86 o
2 14 15 713.24 943.75 151.23 o
3 14 15 0.33 0.96 87.10 o
4 14 15 762.24 816.45 119.64 o
5 14 15 1591.55 1617.59 148.36 o
6 14 15 1365.73 1448.17 134.00 o
7 14 15 495.39 366.59 107.20 o
8 14 15 4.02 0.96 136.87 o
9 14 15 188.36 186.64 122.52 o
1 15 15 558.55 654.69 143.57 o
2 15 15 449.72 378.08 111.99 o
3 15 15 1916.86 2032.99 393.39 o
1 0 16 55519.58 46592.29 2439.78 o
2 0 16 625.73 1417.54 325.43 o
3 0 16 644.32 525.48 117.73 o
4 0 16 766.55 1518.04 89.02 o
5 0 16 22865.77 18469.22 445.08 o
6 0 16 509.98 2840.83 311.07 o
7 0 16 8431.17 8968.52 252.69 o
8 0 16 1104.16 888.24 81.36 o
9 0 16 3938.29 3526.15 150.27 o
10 0 16 1014.49 1669.27 213.45 o
11 0 16 15264.33 14521.92 323.52 o
12 0 16 4.04 41.16 77.53 o
13 0 16 875.53 687.24 94.76 o
14 0 16 2.68 24.89 87.10 o
15 0 16 5427.08 5160.01 179.94 o
16 0 16 150.10 427.85 126.34 o
17 0 16 5567.78 6050.16 292.89 o
18 0 16 369.19 357.02 97.63 o
19 0 16 149.12 1.91 104.33 o
20 0 16 175.49 142.62 135.92 o
21 0 16 3688.83 4039.19 252.69 o
22 0 16 39.57 31.59 245.99 o
23 0 16 438.72 388.60 178.99 o
24 0 16 160.98 70.83 482.41 o
25 0 16 636.25 937.05 329.26 o
1 1 16 68.79 85.19 79.44 o
2 1 16 3061.29 2872.42 134.00 o
3 1 16 705.07 1045.21 68.92 o
4 1 16 606.28 481.45 53.60 o
5 1 16 20.41 10.53 44.99 o
6 1 16 629.10 767.64 58.39 o
7 1 16 690.03 714.04 55.51 o
8 1 16 2041.22 2022.46 69.87 o
9 1 16 188.20 156.97 52.64 o
10 1 16 18.57 16.27 54.56 o
11 1 16 95.15 65.09 54.56 o
12 1 16 296.11 220.15 56.47 o
13 1 16 194.38 166.54 57.43 o
14 1 16 425.92 349.36 61.26 o
15 1 16 9.08 13.40 60.30 o
16 1 16 88.43 59.34 63.17 o
17 1 16 52.00 18.19 64.13 o
18 1 16 126.48 95.72 68.92 o
19 1 16 62.26 83.27 84.23 o
20 1 16 0.66 5.74 74.66 o
21 1 16 21.45 3.83 149.32 o
22 1 16 33.04 10.53 134.96 o
23 1 16 51.54 9.57 210.57 o
24 1 16 71.70 1.91 205.79 o
25 1 16 0.17 0.96 275.66 o
0 2 16 98.31 2390.97 594.39 o
1 2 16 45300.61 38381.83 805.92 o
2 2 16 846.37 1027.03 111.03 o
3 2 16 8.73 12.44 46.90 o
4 2 16 75.22 73.70 69.87 o
5 2 16 19118.01 17865.26 260.35 o
6 2 16 8.02 372.33 98.59 o
7 2 16 6135.61 6489.50 139.74 o
8 2 16 152.31 60.30 56.47 o
9 2 16 4433.24 4253.59 115.82 o
10 2 16 34.21 262.26 97.63 o
11 2 16 13432.24 12665.05 214.40 o
12 2 16 5.72 51.69 61.26 o
13 2 16 469.28 329.26 62.21 o
14 2 16 391.18 339.79 63.17 o
15 2 16 4643.33 5096.84 122.52 o
16 2 16 9.41 53.60 71.79 o
17 2 16 3620.47 3677.38 122.52 o
18 2 16 3.71 4.79 77.53 o
19 2 16 239.51 29.67 79.44 o
20 2 16 3.53 20.10 145.49 o
21 2 16 2630.54 2803.50 138.79 o
22 2 16 93.20 208.66 190.47 o
23 2 16 265.97 386.69 169.42 o
24 2 16 19.48 2.87 218.23 o
25 2 16 594.31 527.39 241.20 o
1 3 16 252.68 224.93 71.79 o
2 3 16 6552.51 5942.01 171.33 o
3 3 16 5.10 232.59 78.49 o
4 3 16 3089.68 2813.07 111.03 o
5 3 16 69.32 128.26 53.60 o
6 3 16 3.41 18.19 51.69 o
7 3 16 39.81 65.09 58.39 o
8 3 16 4346.60 3995.16 111.99 o
9 3 16 22.56 14.36 56.47 o
10 3 16 17.56 8.61 54.56 o
11 3 16 33.97 26.80 54.56 o
12 3 16 506.21 503.46 63.17 o
13 3 16 0.28 3.83 61.26 o
14 3 16 2031.50 1791.79 87.10 o
15 3 16 56.67 36.37 64.13 o
16 3 16 252.89 156.02 67.00 o
17 3 16 0.15 3.83 69.87 o
18 3 16 936.35 1022.24 93.80 o
19 3 16 86.79 21.06 102.42 o
20 3 16 125.98 104.33 120.60 o
21 3 16 15.43 11.49 96.67 o
22 3 16 87.92 117.73 134.00 o
23 3 16 44.25 11.49 190.47 o
24 3 16 235.41 170.37 210.57 o
0 4 16 165.12 922.70 313.95 o
1 4 16 24591.05 20897.52 369.46 o
2 4 16 108.96 283.32 81.36 o
3 4 16 73.35 45.94 61.26 o
4 4 16 56.71 100.50 59.34 o
5 4 16 4070.14 3550.08 115.82 o
6 4 16 636.91 1021.28 77.53 o
7 4 16 5402.83 5290.18 137.83 o
8 4 16 95.07 98.59 57.43 o
9 4 16 494.35 702.55 63.17 o
10 4 16 835.33 903.55 67.96 o
11 4 16 7287.09 6525.87 147.40 o
12 4 16 202.34 292.89 62.21 o
13 4 16 92.97 118.69 58.39 o
14 4 16 4.35 21.06 65.09 o
15 4 16 4121.16 4161.70 125.39 o
16 4 16 168.06 202.92 77.53 o
17 4 16 3882.55 4068.86 189.52 o
18 4 16 63.97 39.24 74.66 o
19 4 16 109.72 7.66 100.50 o
20 4 16 55.52 41.16 145.49 o
21 4 16 2466.12 2491.47 167.50 o
22 4 16 36.95 125.39 171.33 o
23 4 16 356.61 533.13 140.70 o
24 4 16 118.23 33.50 182.82 o
1 5 16 125.68 309.16 71.79 o
2 5 16 9712.14 8689.99 238.33 o
3 5 16 1144.78 1790.83 153.14 o
4 5 16 8995.76 8155.90 177.07 o
5 5 16 83.89 212.49 64.13 o
6 5 16 17.16 27.76 57.43 o
7 5 16 1353.51 1860.71 81.36 o
8 5 16 11989.61 9913.23 194.30 o
9 5 16 0.19 30.63 65.09 o
10 5 16 578.14 738.92 67.96 o
11 5 16 509.13 570.46 67.00 o
12 5 16 1757.39 1583.13 79.44 o
13 5 16 116.22 148.36 93.80 o
14 5 16 6297.52 5689.32 156.97 o
15 5 16 70.72 97.63 76.57 o
16 5 16 19.31 0.96 72.74 o
17 5 16 320.74 351.28 89.97 o
18 5 16 2948.77 2490.51 182.82 o
19 5 16 13.03 39.24 147.40 o
20 5 16 1067.85 1127.53 164.63 o
21 5 16 285.42 316.82 149.32 o
22 5 16 336.26 440.29 167.50 o
23 5 16 59.30 105.29 156.97 o
0 6 16 365.03 736.05 257.47 o
1 6 16 18601.29 16313.71 311.07 o
2 6 16 219.06 399.13 73.70 o
3 6 16 456.92 519.73 66.04 o
4 6 16 396.98 486.23 66.04 o
5 6 16 3064.20 2892.52 108.16 o
6 6 16 154.46 287.15 64.13 o
7 6 16 1525.89 1526.66 81.36 o
8 6 16 0.06 14.36 54.56 o
9 6 16 1732.79 1670.23 87.10 o
10 6 16 6.55 23.93 61.26 o
11 6 16 1741.35 1563.03 81.36 o
12 6 16 21.26 38.29 67.96 o
13 6 16 65.66 22.01 70.83 o
14 6 16 39.57 42.11 70.83 o
15 6 16 1718.91 1734.36 98.59 o
16 6 16 0.72 0.96 85.19 o
17 6 16 768.33 575.25 106.24 o
18 6 16 3.48 0.00 123.47 o
19 6 16 0.26 2.87 148.36 o
20 6 16 1.34 3.83 98.59 o
21 6 16 523.12 463.26 118.69 o
22 6 16 24.61 13.40 142.62 o
23 6 16 277.86 315.86 136.87 o
1 7 16 161.92 246.95 78.49 o
2 7 16 17305.36 14343.89 271.83 o
3 7 16 696.47 1401.27 203.87 o
4 7 16 11103.81 10028.09 203.87 o
5 7 16 109.80 226.85 59.34 o
6 7 16 1319.99 1206.01 80.40 o
7 7 16 778.79 1656.83 153.14 o
8 7 16 14560.35 13606.89 235.46 o
9 7 16 1.15 87.10 70.83 o
10 7 16 112.34 180.90 61.26 o
11 7 16 204.83 184.73 66.04 o
12 7 16 3654.94 3444.79 127.30 o
13 7 16 78.19 189.52 103.37 o
14 7 16 4278.53 3794.15 152.19 o
15 7 16 1.25 2.87 119.64 o
16 7 16 108.38 6.70 122.52 o
17 7 16 153.63 164.63 94.76 o
18 7 16 2679.08 2400.54 147.40 o
19 7 16 1.23 2.87 94.76 o
20 7 16 894.99 781.99 144.53 o
21 7 16 160.41 31.59 139.74 o
22 7 16 351.37 396.26 165.59 o
0 8 16 56.14 87.10 105.29 o
1 8 16 4574.00 4357.92 132.09 o
2 8 16 91.66 124.43 59.34 o
3 8 16 60.74 42.11 58.39 o
4 8 16 53.70 75.62 57.43 o
5 8 16 391.58 403.92 66.04 o
6 8 16 170.38 223.02 62.21 o
7 8 16 987.45 1014.58 76.57 o
8 8 16 29.18 27.76 58.39 o
9 8 16 619.42 601.09 72.74 o
10 8 16 0.00 8.61 65.09 o
11 8 16 626.15 517.82 77.53 o
12 8 16 4.46 7.66 77.53 o
13 8 16 7.69 27.76 77.53 o
14 8 16 2.05 3.83 106.24 o
15 8 16 390.34 327.35 89.97 o
16 8 16 0.32 1.91 91.89 o
17 8 16 387.28 228.76 94.76 o
18 8 16 17.37 0.96 89.97 o
19 8 16 10.44 7.66 139.74 o
20 8 16 16.76 0.96 171.33 o
21 8 16 378.71 165.59 201.00 o
1 9 16 113.62 170.37 72.74 o
2 9 16 12444.46 10256.85 224.93 o
3 9 16 467.64 1049.04 184.73 o
4 9 16 7784.89 6998.70 187.60 o
5 9 16 8.92 37.33 64.13 o
6 9 16 527.17 551.32 70.83 o
7 9 16 258.32 520.69 82.32 o
8 9 16 6748.58 5746.75 165.59 o
9 9 16 112.70 176.12 70.83 o
10 9 16 464.30 547.49 96.67 o
11 9 16 43.96 7.66 75.62 o
12 9 16 2277.10 2341.20 122.52 o
13 9 16 219.48 308.20 95.72 o
14 9 16 4216.74 3755.87 162.72 o
15 9 16 10.69 14.36 85.19 o
16 9 16 13.13 2.87 118.69 o
17 9 16 205.57 191.43 146.44 o
18 9 16 2755.39 2409.15 156.97 o
19 9 16 18.91 94.76 141.66 o
0 10 16 28.97 38.29 97.63 o
1 10 16 45.96 144.53 64.13 o
2 10 16 0.08 2.87 61.26 o
3 10 16 135.47 160.80 61.26 o
4 10 16 0.20 1.91 67.96 o
5 10 16 963.46 931.31 79.44 o
6 10 16 31.01 113.90 67.96 o
7 10 16 8.29 23.93 65.09 o
8 10 16 23.10 18.19 64.13 o
9 10 16 65.41 40.20 83.27 o
10 10 16 4.40 5.74 103.37 o
11 10 16 198.74 140.70 79.44 o
12 10 16 0.96 13.40 79.44 o
13 10 16 38.42 14.36 86.14 o
14 10 16 4.91 1.91 112.94 o
15 10 16 12.89 0.96 86.14 o
16 10 16 1.81 4.79 91.89 o
17 10 16 0.01 0.96 137.83 o
18 10 16 4.47 1.91 126.34 o
1 11 16 11.99 52.64 76.57 o
2 11 16 10832.64 10227.18 207.70 o
3 11 16 78.32 474.75 151.23 o
4 11 16 5044.59 4750.35 153.14 o
5 11 16 6.20 4.79 74.66 o
6 11 16 933.98 957.15 87.10 o
7 11 16 107.77 242.16 95.72 o
8 11 16 6117.35 5826.19 202.92 o
9 11 16 49.91 172.29 97.63 o
10 11 16 1081.62 1041.38 112.94 o
11 11 16 111.63 87.10 124.43 o
12 11 16 1893.34 1907.61 131.13 o
13 11 16 238.66 470.92 178.99 o
14 11 16 4780.47 4774.28 236.42 o
15 11 16 1.39 48.81 96.67 o
16 11 16 0.03 0.96 95.72 o
0 12 16 102.45 108.16 111.99 o
1 12 16 16.18 24.89 66.04 o
2 12 16 1.26 0.00 64.13 o
3 12 16 3.86 2.87 67.00 o
4 12 16 96.36 136.87 70.83 o
5 12 16 403.05 326.39 103.37 o
6 12 16 48.16 84.23 89.97 o
7 12 16 183.27 138.79 93.80 o
8 12 16 14.65 7.66 96.67 o
9 12 16 14.85 3.83 82.32 o
10 12 16 42.59 43.07 134.96 o
11 12 16 276.96 143.57 116.77 o
12 12 16 11.47 35.41 98.59 o
13 12 16 96.86 35.41 99.54 o
14 12 16 44.06 101.46 98.59 o
1 13 16 30.13 39.24 107.20 o
2 13 16 5171.18 5032.71 163.67 o
3 13 16 142.92 395.30 122.52 o
4 13 16 2889.79 2714.49 141.66 o
5 13 16 0.04 2.87 95.72 o
6 13 16 232.96 131.13 89.02 o
7 13 16 129.90 175.16 93.80 o
8 13 16 3326.40 2939.42 162.72 o
9 13 16 16.46 117.73 112.94 o
10 13 16 608.66 498.68 111.03 o
11 13 16 162.33 11.49 95.72 o
0 14 16 753.50 950.45 212.49 o
1 14 16 907.50 959.07 101.46 o
2 14 16 0.25 22.01 88.06 o
3 14 16 84.06 87.10 168.46 o
4 14 16 388.57 423.06 111.99 o
5 14 16 1764.94 1703.73 131.13 o
6 14 16 112.66 130.17 95.72 o
7 14 16 461.37 345.53 108.16 o
1 1 17 9793.08 8172.17 172.29 o
2 1 17 11719.40 13541.80 262.26 o
3 1 17 17341.27 16604.69 286.19 o
4 1 17 9282.51 9867.29 167.50 o
5 1 17 1443.25 1246.21 67.00 o
6 1 17 2500.12 2704.91 84.23 o
7 1 17 4719.94 4610.61 114.86 o
8 1 17 8220.61 8890.99 165.59 o
9 1 17 5729.05 6119.08 132.09 o
10 1 17 1373.40 1622.37 79.44 o
11 1 17 6.47 7.66 56.47 o
12 1 17 7727.00 7480.15 156.97 o
13 1 17 3903.42 5334.21 130.17 o
14 1 17 4356.06 4973.37 129.22 o
15 1 17 1197.09 1219.41 81.36 o
16 1 17 102.29 117.73 66.04 o
17 1 17 1031.24 1188.78 96.67 o
18 1 17 4657.33 4782.89 160.80 o
19 1 17 2895.83 3628.57 222.06 o
20 1 17 345.01 350.32 122.52 o
21 1 17 423.49 326.39 136.87 o
22 1 17 1383.57 1711.39 207.70 o
23 1 17 770.36 887.28 206.75 o
24 1 17 1789.63 2087.55 253.65 o
0 2 17 684.64 629.81 111.03 o
1 2 17 928.83 960.98 81.36 o
2 2 17 193.49 176.12 64.13 o
3 2 17 918.85 1015.54 74.66 o
4 2 17 68.89 178.99 57.43 o
5 2 17 843.84 949.50 63.17 o
6 2 17 261.04 414.45 58.39 o
7 2 17 769.42 801.14 66.04 o
8 2 17 80.27 149.32 57.43 o
9 2 17 708.91 612.58 65.09 o
10 2 17 220.38 347.45 58.39 o
11 2 17 647.80 661.39 67.00 o
12 2 17 16.07 39.24 60.30 o
13 2 17 194.15 171.33 63.17 o
14 2 17 14.09 12.44 63.17 o
15 2 17 524.35 555.15 74.66 o
16 2 17 109.66 100.50 66.04 o
17 2 17 30.60 98.59 67.96 o
18 2 17 37.11 45.94 80.40 o
19 2 17 45.90 9.57 125.39 o
20 2 17 49.73 18.19 95.72 o
21 2 17 207.61 155.06 131.13 o
22 2 17 134.16 103.37 114.86 o
23 2 17 72.04 65.09 207.70 o
24 2 17 1.69 36.37 214.40 o
1 3 17 6597.91 5836.72 159.84 o
2 3 17 10853.39 12836.38 268.96 o
3 3 17 12729.42 12429.59 242.16 o
4 3 17 5670.17 6423.45 201.00 o
5 3 17 776.36 658.52 66.04 o
6 3 17 2351.01 2610.16 98.59 o
7 3 17 5042.65 5093.97 120.60 o
8 3 17 5222.10 6276.05 134.00 o
9 3 17 3105.92 3532.85 104.33 o
10 3 17 202.83 251.73 59.34 o
11 3 17 518.22 493.89 64.13 o
12 3 17 3739.44 3574.97 108.16 o
13 3 17 1697.75 2167.95 99.54 o
14 3 17 1944.77 2013.85 92.84 o
15 3 17 55.50 20.10 65.09 o
16 3 17 10.85 38.29 65.09 o
17 3 17 857.52 1008.84 121.56 o
18 3 17 1769.52 1660.66 109.12 o
19 3 17 1317.89 1415.63 113.90 o
20 3 17 142.51 55.51 112.94 o
21 3 17 137.80 86.14 206.75 o
22 3 17 478.96 687.24 112.94 o
23 3 17 412.93 561.85 176.12 o
0 4 17 10773.91 9043.18 287.15 o
1 4 17 2345.51 3374.92 124.43 o
2 4 17 1195.53 1017.45 84.23 o
3 4 17 1799.32 1653.96 85.19 o
4 4 17 3721.83 3264.85 116.77 o
5 4 17 2137.29 2613.98 106.24 o
6 4 17 3631.49 3360.56 110.07 o
7 4 17 1966.98 1952.59 86.14 o
8 4 17 2.15 4.79 56.47 o
9 4 17 1902.10 2256.01 91.89 o
10 4 17 2739.39 2893.47 101.46 o
11 4 17 1703.46 1827.20 99.54 o
12 4 17 653.45 615.45 71.79 o
13 4 17 277.78 257.47 67.96 o
14 4 17 261.57 217.27 71.79 o
15 4 17 1765.17 1659.70 95.72 o
16 4 17 1226.46 1268.23 89.02 o
17 4 17 279.09 344.58 79.44 o
18 4 17 206.80 116.77 112.94 o
19 4 17 117.72 19.14 138.79 o
20 4 17 160.71 201.96 101.46 o
21 4 17 981.79 865.27 156.97 o
22 4 17 479.93 758.07 135.92 o
23 4 17 278.61 254.60 178.99 o
1 5 17 1678.58 1654.92 100.50 o
2 5 17 8679.46 8081.24 200.04 o
3 5 17 4512.48 5461.51 147.40 o
4 5 17 4651.90 4774.28 127.30 o
5 5 17 1458.43 1276.84 81.36 o
6 5 17 895.94 911.21 70.83 o
7 5 17 2109.71 2303.87 93.80 o
8 5 17 4375.96 4369.40 124.43 o
9 5 17 4037.47 4078.43 120.60 o
10 5 17 2.13 2.87 60.30 o
11 5 17 33.89 94.76 61.26 o
12 5 17 2948.71 2410.11 99.54 o
13 5 17 1386.30 1798.49 97.63 o
14 5 17 2022.66 2172.74 114.86 o
15 5 17 722.16 664.26 87.10 o
16 5 17 113.04 85.19 76.57 o
17 5 17 332.34 319.69 114.86 o
18 5 17 1901.22 1711.39 178.03 o
19 5 17 1782.18 1657.79 158.89 o
20 5 17 61.48 44.03 100.50 o
21 5 17 198.18 109.12 183.77 o
22 5 17 490.52 612.58 140.70 o
0 6 17 13826.11 12595.18 337.88 o
1 6 17 2870.30 4067.90 131.13 o
2 6 17 1194.28 1001.18 78.49 o
3 6 17 1965.85 1935.36 91.89 o
4 6 17 4118.29 3875.51 128.26 o
5 6 17 4243.72 5048.98 139.74 o
6 6 17 3177.84 3900.40 119.64 o
7 6 17 2831.63 2821.69 103.37 o
8 6 17 11.22 1.91 61.26 o
9 6 17 2980.80 2993.97 105.29 o
10 6 17 1854.57 2083.72 90.93 o
11 6 17 3113.87 3216.03 111.03 o
12 6 17 636.73 731.26 86.14 o
13 6 17 278.83 90.93 71.79 o
14 6 17 317.47 263.22 76.57 o
15 6 17 1829.57 1730.53 107.20 o
16 6 17 1146.02 1252.91 134.96 o
17 6 17 374.79 250.77 94.76 o
18 6 17 132.25 18.19 93.80 o
19 6 17 190.26 41.16 156.97 o
20 6 17 83.36 77.53 158.89 o
21 6 17 1620.92 1421.37 146.44 o
22 6 17 470.82 604.92 129.22 o
1 7 17 656.18 885.37 77.53 o
2 7 17 889.04 1138.05 81.36 o
3 7 17 1173.40 1344.80 85.19 o
4 7 17 977.77 1004.05 78.49 o
5 7 17 646.80 814.54 73.70 o
6 7 17 43.55 72.74 63.17 o
7 7 17 406.68 502.51 69.87 o
8 7 17 673.92 908.34 71.79 o
9 7 17 1743.62 1905.69 87.10 o
10 7 17 48.74 52.64 67.96 o
11 7 17 1.27 0.96 64.13 o
12 7 17 221.65 156.02 83.27 o
13 7 17 382.17 479.53 83.27 o
14 7 17 504.43 505.38 89.97 o
15 7 17 234.31 153.14 90.93 o
16 7 17 1.58 17.23 147.40 o
17 7 17 225.57 129.22 112.94 o
18 7 17 327.63 321.60 102.42 o
19 7 17 689.48 506.33 135.92 o
20 7 17 13.26 8.61 165.59 o
21 7 17 93.02 11.49 134.00 o
0 8 17 6154.24 5617.53 224.93 o
1 8 17 1843.13 2769.04 108.16 o
2 8 17 854.79 603.01 70.83 o
3 8 17 468.98 429.76 66.04 o
4 8 17 1428.39 1757.33 89.02 o
5 8 17 3029.21 3530.94 119.64 o
6 8 17 2998.98 3619.00 123.47 o
7 8 17 3480.04 2989.19 119.64 o
8 8 17 365.91 354.15 69.87 o
9 8 17 1369.07 1600.36 92.84 o
10 8 17 2103.97 2279.94 105.29 o
11 8 17 4008.75 4165.53 145.49 o
12 8 17 2073.14 2362.25 126.34 o
13 8 17 583.49 376.16 111.03 o
14 8 17 148.40 38.29 87.10 o
15 8 17 1997.71 1842.52 129.22 o
16 8 17 2228.98 2162.21 141.66 o
17 8 17 1183.13 1234.73 134.00 o
18 8 17 474.49 374.25 147.40 o
19 8 17 179.76 7.66 116.77 o
20 8 17 397.98 430.72 181.86 o
1 9 17 330.25 405.83 67.96 o
2 9 17 295.91 312.99 64.13 o
3 9 17 96.73 201.96 66.04 o
4 9 17 391.60 541.75 68.92 o
5 9 17 0.08 2.87 63.17 o
6 9 17 146.24 142.62 70.83 o
7 9 17 186.16 112.94 74.66 o
8 9 17 76.96 80.40 67.96 o
9 9 17 428.34 375.20 74.66 o
10 9 17 257.08 280.45 85.19 o
11 9 17 3.73 0.96 79.44 o
12 9 17 89.50 2.87 104.33 o
13 9 17 105.20 43.07 86.14 o
14 9 17 55.57 3.83 98.59 o
15 9 17 9.24 3.83 89.97 o
16 9 17 1.05 10.53 110.07 o
17 9 17 120.31 19.14 191.43 o
18 9 17 30.69 0.96 112.94 o
0 10 17 5862.90 6048.25 244.07 o
1 10 17 3603.77 4056.41 143.57 o
2 10 17 1260.34 940.88 80.40 o
3 10 17 943.88 843.25 78.49 o
4 10 17 1807.75 2299.08 104.33 o
5 10 17 5434.91 5191.60 158.89 o
6 10 17 4245.05 4973.37 201.96 o
7 10 17 1485.28 1511.34 96.67 o
8 10 17 57.67 34.46 67.96 o
9 10 17 2295.05 2240.70 137.83 o
10 10 17 3115.80 3141.38 156.97 o
11 10 17 2531.11 2412.98 140.70 o
12 10 17 865.89 858.57 103.37 o
13 10 17 43.01 75.62 93.80 o
14 10 17 513.15 358.93 103.37 o
15 10 17 1214.15 1059.57 122.52 o
16 10 17 1469.71 1532.40 134.00 o
17 10 17 552.85 580.03 125.39 o
1 11 17 0.11 1.91 61.26 o
2 11 17 25.43 69.87 63.17 o
3 11 17 201.22 183.77 71.79 o
4 11 17 5.08 5.74 67.00 o
5 11 17 30.60 67.00 69.87 o
6 11 17 497.38 370.42 76.57 o
7 11 17 49.32 43.07 79.44 o
8 11 17 301.66 180.90 93.80 o
9 11 17 7.75 5.74 85.19 o
10 11 17 126.50 79.44 92.84 o
11 11 17 1.63 8.61 93.80 o
12 11 17 36.07 1.91 95.72 o
13 11 17 72.70 9.57 103.37 o
14 11 17 34.21 82.32 99.54 o
15 11 17 86.44 83.27 106.24 o
0 12 17 2712.80 2991.10 169.42 o
1 12 17 1772.45 2238.78 114.86 o
2 12 17 725.42 694.89 83.27 o
3 12 17 394.39 272.79 73.70 o
4 12 17 1082.96 1578.35 98.59 o
5 12 17 2617.53 2964.30 145.49 o
6 12 17 2873.11 3194.98 208.66 o
7 12 17 785.99 761.89 105.29 o
8 12 17 85.22 31.59 92.84 o
9 12 17 1061.92 1246.21 126.34 o
10 12 17 2089.98 2339.28 202.92 o
11 12 17 1476.18 1447.22 142.62 o
12 12 17 800.66 744.66 124.43 o
13 12 17 60.48 159.84 233.55 o
1 13 17 137.35 127.30 75.62 o
2 13 17 549.41 752.32 87.10 o
3 13 17 528.00 626.94 91.89 o
4 13 17 346.45 443.16 89.97 o
5 13 17 46.37 56.47 100.50 o
6 13 17 544.91 298.63 112.94 o
7 13 17 203.40 130.17 138.79 o
8 13 17 1487.64 1217.50 147.40 o
9 13 17 35.61 0.96 94.76 o
0 14 17 2013.17 2249.31 170.37 o
1 14 17 856.67 1159.11 111.03 o
2 14 17 320.54 304.37 152.19 o
3 14 17 71.04 17.23 130.17 o
4 14 17 855.83 1150.50 195.26 o
0 0 18 12228.22 10212.82 526.43 o
1 0 18 1423.12 1261.53 125.39 o
2 0 18 166.80 349.36 107.20 o
3 0 18 53.86 318.73 103.37 o
4 0 18 12517.80 10648.33 295.76 o
5 0 18 187.02 1845.39 256.52 o
6 0 18 20548.94 18696.07 371.38 o
7 0 18 1218.09 1314.17 101.46 o
8 0 18 27.07 0.00 72.74 o
9 0 18 229.39 590.56 91.89 o
10 0 18 13997.93 11728.95 291.93 o
11 0 18 120.81 796.35 187.60 o
12 0 18 6793.80 6146.84 190.47 o
13 0 18 291.92 449.86 90.93 o
14 0 18 530.12 488.15 101.46 o
15 0 18 325.40 345.53 144.53 o
16 0 18 5929.50 6483.75 209.62 o
17 0 18 87.37 178.03 114.86 o
18 0 18 354.98 356.06 175.16 o
19 0 18 451.30 620.24 180.90 o
20 0 18 2831.58 3426.61 217.27 o
21 0 18 0.62 21.06 275.66 o
22 0 18 4295.09 4433.53 851.87 o
23 0 18 102.77 201.00 482.41 o
1 1 18 115.05 148.36 59.34 o
2 1 18 320.87 286.19 53.60 o
3 1 18 603.91 791.57 67.96 o
4 1 18 72.96 25.84 63.17 o
5 1 18 0.81 0.00 58.39 o
6 1 18 152.93 173.24 58.39 o
7 1 18 1087.63 910.25 67.96 o
8 1 18 338.47 289.06 58.39 o
9 1 18 672.07 532.18 67.00 o
10 1 18 13.35 39.24 60.30 o
11 1 18 41.61 67.96 65.09 o
12 1 18 197.52 130.17 61.26 o
13 1 18 264.64 172.29 64.13 o
14 1 18 9.33 0.00 62.21 o
15 1 18 98.89 87.10 78.49 o
16 1 18 19.29 26.80 68.92 o
17 1 18 59.78 67.00 76.57 o
18 1 18 19.95 76.57 84.23 o
19 1 18 145.08 212.49 101.46 o
20 1 18 0.37 16.27 122.52 o
21 1 18 0.06 19.14 114.86 o
22 1 18 20.69 40.20 179.94 o
23 1 18 77.24 12.44 239.29 o
0 2 18 11301.36 8014.24 271.83 o
1 2 18 124.69 276.62 77.53 o
2 2 18 258.97 223.97 65.09 o
3 2 18 1611.71 2526.88 98.59 o
4 2 18 13721.88 12251.56 233.55 o
5 2 18 1428.06 2762.34 128.26 o
6 2 18 18701.94 15345.08 268.00 o
7 2 18 781.48 1021.28 75.62 o
8 2 18 20.15 26.80 53.60 o
9 2 18 651.80 1114.13 75.62 o
10 2 18 14591.02 12465.96 222.06 o
11 2 18 810.81 1619.50 122.52 o
12 2 18 5435.38 5452.90 134.00 o
13 2 18 30.39 20.10 62.21 o
14 2 18 554.97 597.26 72.74 o
15 2 18 51.20 89.97 70.83 o
16 2 18 4232.54 4287.09 134.00 o
17 2 18 0.26 2.87 74.66 o
18 2 18 150.24 207.70 99.54 o
19 2 18 0.29 2.87 117.73 o
20 2 18 2284.93 2871.46 162.72 o
21 2 18 6.23 27.76 199.09 o
22 2 18 3406.48 3933.90 344.58 o
23 2 18 2.00 67.96 175.16 o
1 3 18 437.41 283.32 70.83 o
2 3 18 504.20 614.49 69.87 o
3 3 18 2673.18 2338.32 97.63 o
4 3 18 403.73 326.39 66.04 o
5 3 18 39.09 32.54 63.17 o
6 3 18 72.31 153.14 60.30 o
7 3 18 3477.60 2849.44 105.29 o
8 3 18 46.56 193.34 69.87 o
9 3 18 2556.06 2170.82 95.72 o
10 3 18 5.45 7.66 62.21 o
11 3 18 153.51 218.23 67.00 o
12 3 18 80.04 119.64 63.17 o
13 3 18 1247.22 1267.27 77.53 o
14 3 18 6.77 31.59 65.09 o
15 3 18 423.75 342.66 82.32 o
16 3 18 64.49 5.74 68.92 o
17 3 18 563.52 618.32 105.29 o
18 3 18 18.27 10.53 151.23 o
19 3 18 886.32 971.51 111.03 o
20 3 18 32.50 10.53 147.40 o
21 3 18 0.41 55.51 159.84 o
22 3 18 3.00 72.74 163.67 o
0 4 18 3343.20 3642.92 174.20 o
1 4 18 930.75 1009.80 81.36 o
2 4 18 195.27 203.87 67.00 o
3 4 18 807.59 764.77 82.32 o
4 4 18 3648.68 3233.26 119.64 o
5 4 18 368.72 823.15 97.63 o
6 4 18 9398.41 8426.77 169.42 o
7 4 18 38.15 49.77 69.87 o
8 4 18 752.49 424.98 67.96 o
9 4 18 359.28 319.69 67.96 o
10 4 18 7186.16 6179.38 169.42 o
11 4 18 4.54 44.99 79.44 o
12 4 18 5396.28 5088.23 134.96 o
13 4 18 245.42 185.69 69.87 o
14 4 18 97.90 164.63 71.79 o
15 4 18 157.81 146.44 82.32 o
16 4 18 4037.79 3933.90 162.72 o
17 4 18 15.82 13.40 116.77 o
18 4 18 370.84 336.92 95.72 o
19 4 18 204.09 53.60 107.20 o
20 4 18 1947.49 1956.42 188.56 o
21 4 18 1.65 32.54 132.09 o
22 4 18 3046.04 3646.75 366.59 o
1 5 18 863.43 806.88 83.27 o
2 5 18 234.10 280.45 76.57 o
3 5 18 4618.85 3543.38 125.39 o
4 5 18 338.93 360.85 73.70 o
5 5 18 208.12 253.65 66.04 o
6 5 18 446.28 378.08 71.79 o
7 5 18 5869.30 5056.64 134.00 o
8 5 18 27.09 270.87 78.49 o
9 5 18 6399.09 5023.14 141.66 o
10 5 18 246.37 313.95 70.83 o
11 5 18 8.04 24.89 63.17 o
12 5 18 150.23 167.50 69.87 o
13 5 18 3598.99 2953.77 119.64 o
14 5 18 26.29 50.73 96.67 o
15 5 18 1869.71 1675.97 109.12 o
16 5 18 236.50 305.33 99.54 o
17 5 18 1172.70 1183.04 116.77 o
18 5 18 1.55 31.59 114.86 o
19 5 18 2551.20 2358.42 154.10 o
20 5 18 72.72 158.89 117.73 o
21 5 18 22.14 15.31 188.56 o
0 6 18 6191.08 4959.01 217.27 o
1 6 18 0.70 6.70 74.66 o
2 6 18 77.06 137.83 66.04 o
3 6 18 1511.87 1684.59 95.72 o
4 6 18 4928.63 4387.59 128.26 o
5 6 18 330.92 894.94 86.14 o
6 6 18 4634.65 3582.62 125.39 o
7 6 18 58.50 37.33 67.96 o
8 6 18 2.79 6.70 60.30 o
9 6 18 49.34 150.27 66.04 o
10 6 18 4486.92 3914.76 127.30 o
11 6 18 353.27 633.64 71.79 o
12 6 18 990.01 963.85 93.80 o
13 6 18 25.68 8.61 74.66 o
14 6 18 273.38 257.47 79.44 o
15 6 18 0.18 1.91 79.44 o
16 6 18 1075.91 1152.41 151.23 o
17 6 18 5.76 24.89 91.89 o
18 6 18 39.80 11.49 112.94 o
19 6 18 72.99 20.10 134.00 o
20 6 18 477.58 509.21 141.66 o
21 6 18 3.19 72.74 155.06 o
1 7 18 3841.20 3533.81 127.30 o
2 7 18 5.36 142.62 157.93 o
3 7 18 10693.32 9905.58 198.13 o
4 7 18 629.31 1085.41 80.40 o
5 7 18 11.11 11.49 62.21 o
6 7 18 92.81 169.42 77.53 o
7 7 18 12302.01 10775.63 223.02 o
8 7 18 32.54 428.80 100.50 o
9 7 18 6430.17 5808.00 143.57 o
10 7 18 57.06 42.11 76.57 o
11 7 18 493.71 421.15 81.36 o
12 7 18 9.18 24.89 82.32 o
13 7 18 4737.30 4145.43 143.57 o
14 7 18 11.61 49.77 95.72 o
15 7 18 1000.44 1057.65 133.04 o
16 7 18 71.24 100.50 120.60 o
17 7 18 1601.46 1554.42 129.22 o
18 7 18 4.48 89.97 162.72 o
19 7 18 2078.28 1795.62 145.49 o
20 7 18 52.61 10.53 191.43 o
0 8 18 1641.48 1470.19 131.13 o
1 8 18 175.86 130.17 75.62 o
2 8 18 157.37 163.67 66.04 o
3 8 18 454.05 409.66 73.70 o
4 8 18 1133.55 1151.45 78.49 o
5 8 18 92.72 145.49 66.04 o
6 8 18 965.43 718.82 77.53 o
7 8 18 45.62 25.84 64.13 o
8 8 18 20.67 44.03 68.92 o
9 8 18 6.27 21.06 69.87 o
10 8 18 1130.56 751.37 89.97 o
11 8 18 199.60 72.74 74.66 o
12 8 18 436.77 617.36 92.84 o
13 8 18 26.44 3.83 96.67 o
14 8 18 14.88 23.93 91.89 o
15 8 18 25.14 11.49 114.86 o
16 8 18 331.15 162.72 130.17 o
17 8 18 41.53 16.27 148.36 o
18 8 18 16.55 64.13 110.07 o
19 8 18 108.50 175.16 265.13 o
1 9 18 2483.94 2299.08 104.33 o
2 9 18 96.17 173.24 90.93 o
3 9 18 7353.81 5708.46 162.72 o
4 9 18 9.13 181.86 77.53 o
5 9 18 44.85 22.97 65.09 o
6 9 18 90.07 78.49 67.96 o
7 9 18 6256.38 5553.40 165.59 o
8 9 18 128.42 210.57 129.22 o
9 9 18 5046.68 4221.04 144.53 o
10 9 18 13.49 18.19 92.84 o
11 9 18 92.22 7.66 82.32 o
12 9 18 211.87 202.92 89.97 o
13 9 18 4127.91 3776.93 169.42 o
14 9 18 5.80 33.50 98.59 o
15 9 18 1156.60 1340.01 122.52 o
16 9 18 111.91 36.37 91.89 o
17 9 18 1152.54 1279.71 167.50 o
0 10 18 18.58 9.57 95.72 o
1 10 18 364.63 322.56 70.83 o
2 10 18 137.90 153.14 68.92 o
3 10 18 223.50 177.07 67.00 o
4 10 18 17.52 9.57 65.09 o
5 10 18 8.37 14.36 89.02 o
6 10 18 37.24 52.64 89.02 o
7 10 18 3.99 35.41 73.70 o
8 10 18 31.96 40.20 71.79 o
9 10 18 23.82 40.20 89.02 o
10 10 18 17.30 2.87 116.77 o
11 10 18 62.37 7.66 132.09 o
12 10 18 15.95 1.91 89.02 o
13 10 18 0.94 1.91 110.07 o
14 10 18 1.53 0.96 94.76 o
15 10 18 10.85 4.79 95.72 o
1 11 18 2021.89 2072.24 102.42 o
2 11 18 314.56 597.26 104.33 o
3 11 18 6595.82 6052.08 172.29 o
4 11 18 40.88 164.63 82.32 o
5 11 18 43.51 0.96 105.29 o
6 11 18 22.82 95.72 75.62 o
7 11 18 5284.09 4496.70 163.67 o
8 11 18 4.21 203.87 112.94 o
9 11 18 5055.12 4725.46 240.25 o
10 11 18 19.68 29.67 97.63 o
11 11 18 70.73 3.83 146.44 o
12 11 18 81.80 118.69 124.43 o
13 11 18 4162.14 3842.97 237.37 o
0 12 18 232.23 311.07 100.50 o
1 12 18 148.36 230.67 70.83 o
2 12 18 90.01 156.97 77.53 o
3 12 18 168.59 124.43 90.93 o
4 12 18 142.03 90.93 74.66 o
5 12 18 6.65 13.40 82.32 o
6 12 18 261.01 195.26 124.43 o
7 12 18 0.32 15.31 110.07 o
8 12 18 1.03 3.83 103.37 o
9 12 18 6.13 1.91 114.86 o
10 12 18 156.99 4.79 146.44 o
11 12 18 64.22 28.71 156.97 o
1 13 18 873.18 804.01 96.67 o
2 13 18 28.88 235.46 90.93 o
3 13 18 3605.44 3239.01 154.10 o
4 13 18 4.03 213.45 104.33 o
5 13 18 106.40 10.53 102.42 o
6 13 18 83.09 20.10 92.84 o
7 13 18 2068.15 1802.32 345.53 o
1 1 19 1244.55 1227.07 91.89 o
2 1 19 4839.31 4342.60 124.43 o
3 1 19 3458.38 3972.18 127.30 o
4 1 19 1452.16 1152.41 86.14 o
5 1 19 91.80 132.09 65.09 o
6 1 19 2597.35 2116.27 85.19 o
7 1 19 5099.13 6010.92 140.70 o
8 1 19 11233.68 10227.18 206.75 o
9 1 19 5161.02 6302.85 198.13 o
10 1 19 5585.19 4966.67 126.34 o
11 1 19 187.84 232.59 61.26 o
12 1 19 1877.77 2314.40 91.89 o
13 1 19 2514.03 3218.91 111.99 o
14 1 19 4116.08 4070.77 150.27 o
15 1 19 184.29 298.63 74.66 o
16 1 19 266.00 123.47 104.33 o
17 1 19 1363.53 1470.19 113.90 o
18 1 19 3334.25 4041.10 156.02 o
19 1 19 1974.75 2495.30 158.89 o
20 1 19 2515.01 3422.78 288.10 o
21 1 19 0.98 11.49 204.83 o
22 1 19 15.29 0.00 156.97 o
0 2 19 465.97 455.60 103.37 o
1 2 19 82.98 71.79 69.87 o
2 2 19 34.40 43.07 65.09 o
3 2 19 502.69 473.79 70.83 o
4 2 19 221.17 196.22 67.96 o
5 2 19 192.77 289.06 67.00 o
6 2 19 358.00 462.30 65.09 o
7 2 19 289.06 369.46 67.96 o
8 2 19 8.10 1.91 63.17 o
9 2 19 93.34 148.36 67.00 o
10 2 19 226.66 289.06 64.13 o
11 2 19 149.00 221.10 64.13 o
12 2 19 360.33 320.65 67.00 o
13 2 19 180.35 207.70 65.09 o
14 2 19 3.60 0.96 64.13 o
15 2 19 135.94 166.54 79.44 o
16 2 19 354.12 359.89 83.27 o
17 2 19 41.05 40.20 88.06 o
18 2 19 31.69 39.24 83.27 o
19 2 19 0.06 60.30 107.20 o
20 2 19 44.98 124.43 131.13 o
21 2 19 150.73 136.87 128.26 o
22 2 19 43.49 55.51 144.53 o
1 3 19 2175.01 2017.68 109.12 o
2 3 19 4923.73 4941.78 131.13 o
3 3 19 3875.22 4306.23 131.13 o
4 3 19 787.15 850.91 82.32 o
5 3 19 18.44 11.49 62.21 o
6 3 19 2855.74 2495.30 103.37 o
7 3 19 4302.75 4882.44 139.74 o
8 3 19 8417.97 8315.75 181.86 o
9 3 19 3295.15 4158.83 122.52 o
10 3 19 1792.74 1629.07 86.14 o
11 3 19 72.42 112.94 67.00 o
12 3 19 1386.68 1407.97 87.10 o
13 3 19 1469.36 2025.34 96.67 o
14 3 19 1634.16 1653.00 102.42 o
15 3 19 144.31 114.86 75.62 o
16 3 19 10.99 2.87 73.70 o
17 3 19 733.46 848.99 118.69 o
18 3 19 1744.78 2064.58 181.86 o
19 3 19 1049.47 1204.10 125.39 o
20 3 19 1089.78 1231.86 156.02 o
21 3 19 22.02 1.91 167.50 o
0 4 19 967.09 1263.44 135.92 o
1 4 19 1700.77 1575.47 92.84 o
2 4 19 126.74 179.94 67.00 o
3 4 19 1859.37 1604.19 92.84 o
4 4 19 401.15 952.37 81.36 o
5 4 19 3452.69 2758.51 111.99 o
6 4 19 919.57 1395.53 89.02 o
7 4 19 1876.75 1407.01 85.19 o
8 4 19 5.43 41.16 63.17 o
9 4 19 1179.82 1056.70 81.36 o
10 4 19 702.82 994.48 80.40 o
11 4 19 2284.00 2086.59 97.63 o
12 4 19 307.68 564.72 76.57 o
13 4 19 521.43 396.26 74.66 o
14 4 19 137.78 113.90 74.66 o
15 4 19 1136.87 1073.93 134.00 o
16 4 19 818.89 863.35 96.67 o
17 4 19 623.97 546.53 110.07 o
18 4 19 58.76 43.07 132.09 o
19 4 19 0.35 0.00 204.83 o
20 4 19 185.12 284.27 116.77 o
21 4 19 860.67 857.61 245.03 o
1 5 19 2372.28 2092.34 106.24 o
2 5 19 2343.08 2371.82 104.33 o
3 5 19 3612.08 3376.84 124.43 o
4 5 19 577.35 558.98 71.79 o
5 5 19 50.50 24.89 63.17 o
6 5 19 803.88 949.50 78.49 o
7 5 19 2949.05 3415.12 122.52 o
8 5 19 6172.39 5653.90 148.36 o
9 5 19 1731.55 2058.84 93.80 o
10 5 19 1401.06 1184.00 83.27 o
11 5 19 189.08 216.32 67.96 o
12 5 19 714.70 586.73 76.57 o
13 5 19 1259.31 1459.66 102.42 o
14 5 19 2068.24 2021.51 111.03 o
15 5 19 12.91 55.51 86.14 o
16 5 19 82.78 164.63 89.97 o
17 5 19 1049.94 1164.86 123.47 o
18 5 19 1449.40 1572.60 167.50 o
19 5 19 574.28 823.15 175.16 o
20 5 19 931.73 1078.71 182.82 o
0 6 19 1503.50 1889.42 152.19 o
1 6 19 1651.86 1792.75 102.42 o
2 6 19 353.22 211.53 67.00 o
3 6 19 1729.27 1335.23 89.02 o
4 6 19 785.61 1424.24 93.80 o
5 6 19 4125.50 3977.93 126.34 o
6 6 19 2641.69 3366.31 118.69 o
7 6 19 2085.75 1933.45 101.46 o
8 6 19 13.91 5.74 62.21 o
9 6 19 1076.83 1117.00 83.27 o
10 6 19 1890.26 2306.74 100.50 o
11 6 19 2159.95 2234.95 102.42 o
12 6 19 669.23 721.69 103.37 o
13 6 19 387.19 262.26 79.44 o
14 6 19 184.84 131.13 89.97 o
15 6 19 740.28 850.91 95.72 o
16 6 19 1304.91 1221.33 128.26 o
17 6 19 541.31 549.41 129.22 o
18 6 19 178.56 169.42 153.14 o
19 6 19 10.95 8.61 139.74 o
1 7 19 376.61 377.12 76.57 o
2 7 19 576.52 629.81 73.70 o
3 7 19 497.48 558.98 73.70 o
4 7 19 244.10 339.79 70.83 o
5 7 19 0.04 8.61 67.00 o
6 7 19 46.70 43.07 67.96 o
7 7 19 638.44 804.01 81.36 o
8 7 19 2317.84 2252.18 106.24 o
9 7 19 550.18 647.04 74.66 o
10 7 19 465.47 494.85 88.06 o
11 7 19 7.40 3.83 72.74 o
12 7 19 179.74 97.63 78.49 o
13 7 19 153.89 191.43 84.23 o
14 7 19 633.45 431.68 98.59 o
15 7 19 6.04 4.79 100.50 o
16 7 19 36.91 0.00 127.30 o
17 7 19 246.02 282.36 134.96 o
18 7 19 494.39 452.73 155.06 o
0 8 19 1787.27 2211.98 161.76 o
1 8 19 957.63 1070.10 87.10 o
2 8 19 545.95 445.08 72.74 o
3 8 19 730.85 586.73 76.57 o
4 8 19 612.72 1151.46 88.06 o
5 8 19 3781.24 3677.38 129.22 o
6 8 19 2486.08 3604.64 145.49 o
7 8 19 2931.50 2771.91 112.94 o
8 8 19 1.98 0.00 68.92 o
9 8 19 795.80 717.86 84.23 o
10 8 19 1550.44 1906.65 118.69 o
11 8 19 3745.59 3494.57 143.57 o
12 8 19 896.97 1258.66 145.49 o
13 8 19 796.54 647.99 104.33 o
14 8 19 246.63 167.50 127.30 o
15 8 19 1231.87 1221.33 134.00 o
16 8 19 1644.10 1802.32 139.74 o
17 8 19 1398.22 1462.53 156.02 o
1 9 19 98.46 119.64 67.00 o
2 9 19 4.57 12.44 64.13 o
3 9 19 144.92 123.47 68.92 o
4 9 19 3.76 7.66 66.04 o
5 9 19 16.87 68.92 66.04 o
6 9 19 2.75 20.10 72.74 o
7 9 19 221.29 215.36 75.62 o
8 9 19 421.18 445.08 106.24 o
9 9 19 59.12 49.77 95.72 o
10 9 19 87.00 36.37 90.93 o
11 9 19 40.59 0.96 93.80 o
12 9 19 69.49 7.66 146.44 o
13 9 19 0.06 5.74 93.80 o
14 9 19 91.61 0.96 97.63 o
15 9 19 18.87 17.23 127.30 o
16 9 19 14.37 3.83 175.16 o
0 10 19 3711.78 4026.74 201.96 o
1 10 19 1830.42 2142.11 107.20 o
2 10 19 495.08 423.06 80.40 o
3 10 19 671.57 453.69 92.84 o
4 10 19 1767.46 2518.27 119.64 o
5 10 19 4667.56 4445.98 163.67 o
6 10 19 1821.85 2534.54 162.72 o
7 10 19 2125.51 1866.45 122.52 o
8 10 19 63.37 0.96 95.72 o
9 10 19 1264.64 1228.98 127.30 o
10 10 19 1161.31 970.55 123.47 o
11 10 19 2557.68 2397.67 170.37 o
12 10 19 589.73 641.29 147.40 o
13 10 19 234.54 89.02 96.67 o
14 10 19 280.19 121.56 114.86 o
1 11 19 0.23 18.19 91.89 o
2 11 19 61.65 100.50 70.83 o
3 11 19 18.50 26.80 88.06 o
4 11 19 85.25 96.67 77.53 o
5 11 19 8.47 14.36 73.70 o
6 11 19 46.27 82.32 79.44 o
7 11 19 8.99 43.07 89.97 o
8 11 19 67.55 15.31 95.72 o
9 11 19 17.49 1.91 89.97 o
10 11 19 13.05 0.96 125.39 o
11 11 19 10.24 25.84 103.37 o
12 11 19 0.06 111.99 248.86 o
0 12 19 2433.04 2595.80 233.55 o
1 12 19 1267.83 1483.59 102.42 o
2 12 19 358.99 280.45 102.42 o
3 12 19 392.96 297.67 105.29 o
4 12 19 1257.23 1914.31 114.86 o
5 12 19 2877.67 2825.52 143.57 o
6 12 19 919.52 1221.33 151.23 o
7 12 19 1581.99 1504.64 170.37 o
8 12 19 58.24 6.70 95.72 o
1 13 19 171.28 295.76 111.99 o
0 0 20 114.91 902.60 398.18 o
1 0 20 6212.64 5503.63 241.20 o
2 0 20 200.10 363.72 106.24 o
3 0 20 786.68 512.08 118.69 o
4 0 20 530.09 1002.14 142.62 o
5 0 20 12340.19 11233.15 361.80 o
6 0 20 455.49 878.67 162.72 o
7 0 20 2480.97 1956.42 134.96 o
8 0 20 972.84 882.50 103.37 o
9 0 20 587.87 746.58 99.54 o
10 0 20 3.07 234.50 112.94 o
11 0 20 6600.10 5527.56 213.45 o
12 0 20 334.64 652.78 111.03 o
13 0 20 177.44 77.53 93.80 o
14 0 20 230.61 477.62 105.29 o
15 0 20 2612.74 2604.41 219.19 o
16 0 20 242.58 625.02 145.49 o
17 0 20 3758.72 4239.23 209.62 o
18 0 20 411.23 645.12 133.04 o
19 0 20 14.51 22.01 178.03 o
20 0 20 55.83 86.14 167.50 o
21 0 20 1658.97 1808.06 393.39 o
1 1 20 257.53 149.32 65.09 o
2 1 20 110.51 134.00 64.13 o
3 1 20 240.92 54.56 63.17 o
4 1 20 43.71 3.83 65.09 o
5 1 20 3.44 2.87 66.04 o
6 1 20 2.64 9.57 70.83 o
7 1 20 88.96 67.96 59.34 o
8 1 20 570.35 417.32 67.96 o
9 1 20 3.54 20.10 63.17 o
10 1 20 39.01 25.84 65.09 o
11 1 20 93.52 89.02 67.96 o
12 1 20 10.91 0.00 66.04 o
13 1 20 44.15 33.50 65.09 o
14 1 20 143.60 146.44 70.83 o
15 1 20 26.01 63.17 75.62 o
16 1 20 4.65 41.16 76.57 o
17 1 20 26.07 63.17 86.14 o
18 1 20 45.86 129.22 85.19 o
19 1 20 7.90 29.67 102.42 o
20 1 20 84.35 76.57 170.37 o
21 1 20 16.47 76.57 238.33 o
0 2 20 4371.44 4917.85 201.96 o
1 2 20 6116.49 5437.59 151.23 o
2 2 20 2.66 18.19 68.92 o
3 2 20 975.19 540.79 77.53 o
4 2 20 743.84 1407.97 95.72 o
5 2 20 13198.90 9561.00 210.57 o
6 2 20 2324.46 4157.87 120.60 o
7 2 20 2497.87 2370.87 96.67 o
8 2 20 3.58 0.96 64.13 o
9 2 20 1480.33 1373.51 85.19 o
10 2 20 1182.73 990.65 89.02 o
11 2 20 5979.12 5070.04 144.53 o
12 2 20 88.23 266.09 77.53 o
13 2 20 68.67 51.69 68.92 o
14 2 20 191.33 75.62 69.87 o
15 2 20 2197.05 2033.95 111.99 o
16 2 20 335.10 543.66 131.13 o
17 2 20 2788.62 3083.95 152.19 o
18 2 20 8.31 30.63 117.73 o
19 2 20 12.63 0.00 165.59 o
20 2 20 3.80 70.83 190.47 o
1 3 20 3.11 4.79 76.57 o
2 3 20 2318.09 1986.09 98.59 o
3 3 20 285.96 175.16 73.70 o
4 3 20 646.14 554.19 76.57 o
5 3 20 2.04 22.97 64.13 o
6 3 20 151.16 276.62 70.83 o
7 3 20 579.53 877.71 73.70 o
8 3 20 3697.49 3239.01 111.03 o
9 3 20 371.62 666.18 74.66 o
10 3 20 94.19 44.99 67.96 o
11 3 20 25.84 23.93 65.09 o
12 3 20 318.79 296.72 71.79 o
13 3 20 67.77 88.06 72.74 o
14 3 20 879.28 799.22 86.14 o
15 3 20 12.95 31.59 77.53 o
16 3 20 30.62 9.57 120.60 o
17 3 20 53.74 67.96 107.20 o
18 3 20 502.07 330.22 128.26 o
19 3 20 65.47 111.03 214.40 o
20 3 20 341.15 271.83 134.00 o
0 4 20 135.64 393.39 122.52 o
1 4 20 2107.92 1973.65 108.16 o
2 4 20 112.73 140.70 67.00 o
3 4 20 33.35 8.61 65.09 o
4 4 20 284.46 306.29 78.49 o
5 4 20 5064.63 4272.73 133.04 o
6 4 20 34.23 186.64 87.10 o
7 4 20 3610.78 3352.91 120.60 o
8 4 20 615.41 555.15 72.74 o
9 4 20 472.19 501.55 71.79 o
10 4 20 8.23 148.36 72.74 o
11 4 20 3801.52 3417.04 120.60 o
12 4 20 92.10 159.84 71.79 o
13 4 20 336.55 251.73 77.53 o
14 4 20 64.80 22.01 90.93 o
15 4 20 1639.78 1605.15 110.07 o
16 4 20 92.25 228.76 109.12 o
17 4 20 2633.10 2350.77 143.57 o
18 4 20 226.70 186.64 137.83 o
19 4 20 4.79 6.70 118.69 o
20 4 20 23.02 58.39 192.39 o
1 5 20 157.18 214.40 79.44 o
2 5 20 3670.84 3188.28 118.69 o
3 5 20 16.27 60.30 78.49 o
4 5 20 929.33 802.09 79.44 o
5 5 20 14.40 39.24 64.13 o
6 5 20 214.25 264.17 74.66 o
7 5 20 161.41 199.09 80.40 o
8 5 20 5137.23 4506.28 139.74 o
9 5 20 647.64 827.94 84.23 o
10 5 20 769.25 554.19 76.57 o
11 5 20 219.24 176.12 68.92 o
12 5 20 520.56 355.10 76.57 o
13 5 20 22.12 27.76 86.14 o
14 5 20 2374.59 2416.81 131.13 o
15 5 20 351.46 347.45 89.97 o
16 5 20 15.03 0.96 101.46 o
17 5 20 0.49 0.96 113.90 o
18 5 20 1336.74 1207.93 165.59 o
19 5 20 219.99 212.49 183.77 o
0 6 20 1905.50 2181.35 150.27 o
1 6 20 2582.68 1994.71 103.37 o
2 6 20 1.42 29.67 66.04 o
3 6 20 314.35 194.30 72.74 o
4 6 20 153.17 141.66 74.66 o
5 6 20 3869.51 2917.40 120.60 o
6 6 20 214.65 421.15 80.40 o
7 6 20 1581.64 1487.42 92.84 o
8 6 20 77.64 28.71 68.92 o
9 6 20 1124.86 1013.62 82.32 o
10 6 20 140.07 193.34 71.79 o
11 6 20 1292.72 1007.88 87.10 o
12 6 20 20.59 3.83 78.49 o
13 6 20 6.20 1.91 117.73 o
14 6 20 16.08 18.19 83.27 o
15 6 20 914.78 780.08 109.12 o
16 6 20 30.41 17.23 124.43 o
17 6 20 847.59 679.58 163.67 o
18 6 20 74.75 44.99 192.39 o
1 7 20 14.62 42.11 79.44 o
2 7 20 9485.43 7600.75 180.90 o
3 7 20 379.06 729.35 95.72 o
4 7 20 2140.32 1742.02 100.50 o
5 7 20 12.36 8.61 67.00 o
6 7 20 1914.26 1906.65 100.50 o
7 7 20 689.48 1203.14 100.50 o
8 7 20 7984.04 6485.67 175.16 o
9 7 20 622.33 1497.94 93.80 o
10 7 20 727.06 672.88 90.93 o
11 7 20 37.59 6.70 79.44 o
12 7 20 1827.46 1738.19 111.03 o
13 7 20 79.41 126.34 92.84 o
14 7 20 2456.38 2322.05 139.74 o
15 7 20 157.48 200.04 102.42 o
16 7 20 125.48 59.34 113.90 o
17 7 20 22.07 22.01 191.43 o
0 8 20 1061.75 1073.93 134.00 o
1 8 20 483.36 387.65 75.62 o
2 8 20 13.41 36.37 67.00 o
3 8 20 187.89 163.67 70.83 o
4 8 20 38.50 40.20 69.87 o
5 8 20 510.06 390.52 76.57 o
6 8 20 21.18 22.97 69.87 o
7 8 20 370.74 444.12 76.57 o
8 8 20 78.87 71.79 77.53 o
9 8 20 130.22 63.17 89.97 o
10 8 20 19.45 6.70 81.36 o
11 8 20 214.79 104.33 101.46 o
12 8 20 18.39 17.23 88.06 o
13 8 20 24.60 0.00 106.24 o
14 8 20 6.98 6.70 99.54 o
15 8 20 194.25 140.70 108.16 o
16 8 20 25.58 2.87 100.50 o
1 9 20 2.88 4.79 74.66 o
2 9 20 5857.41 4745.56 141.66 o
3 9 20 8.41 146.44 89.02 o
4 9 20 2439.33 1965.99 108.16 o
5 9 20 23.92 4.79 77.53 o
6 9 20 871.40 773.38 91.89 o
7 9 20 71.90 141.66 102.42 o
8 9 20 5896.35 5146.61 170.37 o
9 9 20 242.46 515.91 106.24 o
10 9 20 985.29 851.87 118.69 o
11 9 20 145.54 31.59 94.76 o
12 9 20 1594.59 1274.93 127.30 o
13 9 20 8.08 44.03 107.20 o
14 9 20 1995.86 1794.66 168.46 o
0 10 20 203.34 146.44 140.70 o
1 10 20 16.81 37.33 79.44 o
2 10 20 5.39 21.06 70.83 o
3 10 20 11.92 10.53 72.74 o
4 10 20 3.67 15.31 91.89 o
5 10 20 6.50 0.00 75.62 o
6 10 20 77.11 64.13 127.30 o
7 10 20 9.18 11.49 88.06 o
8 10 20 4.99 2.87 109.12 o
9 10 20 25.86 2.87 130.17 o
10 10 20 13.51 0.96 114.86 o
11 10 20 10.95 0.00 102.42 o
12 10 20 25.56 0.00 129.22 o
1 11 20 190.21 363.72 111.03 o
2 11 20 4245.25 3543.38 145.49 o
3 11 20 486.83 920.78 104.33 o
4 11 20 2425.10 2105.74 121.56 o
5 11 20 19.35 7.66 92.84 o
6 11 20 735.81 670.96 111.03 o
7 11 20 417.81 905.47 134.96 o
8 11 20 5790.59 5274.87 227.80 o
9 11 20 428.61 993.52 161.76 o
0 12 20 7.35 28.71 125.39 o
1 12 20 341.43 300.55 85.19 o
2 12 20 30.50 85.19 129.22 o
3 12 20 27.04 32.54 100.50 o
4 12 20 32.42 89.97 89.97 o
5 12 20 402.99 554.19 173.24 o
1 1 21 3542.00 3325.15 115.82 o
2 1 21 1280.49 1953.55 104.33 o
3 1 21 3704.10 2858.06 134.96 o
4 1 21 1536.46 1831.99 108.16 o
5 1 21 482.57 295.76 79.44 o
6 1 21 647.45 745.62 92.84 o
7 1 21 4811.28 4805.86 149.32 o
8 1 21 1479.30 2483.81 147.40 o
9 1 21 7157.84 5805.13 161.76 o
10 1 21 106.74 243.12 80.40 o
11 1 21 0.71 0.96 72.74 o
12 1 21 1545.13 1605.15 103.37 o
13 1 21 3146.37 3256.23 186.64 o
14 1 21 584.39 1202.18 92.84 o
15 1 21 1675.27 1803.28 109.12 o
16 1 21 175.04 29.67 85.19 o
17 1 21 315.30 365.63 109.12 o
18 1 21 968.96 1072.97 111.03 o
19 1 21 2280.47 2344.07 145.49 o
0 2 21 228.13 361.80 111.03 o
1 2 21 134.10 90.93 67.00 o
2 2 21 13.36 64.13 67.00 o
3 2 21 0.11 0.00 67.96 o
4 2 21 394.56 416.36 73.70 o
5 2 21 269.65 342.66 73.70 o
6 2 21 154.41 187.60 72.74 o
7 2 21 292.66 221.10 74.66 o
8 2 21 12.86 21.06 67.00 o
9 2 21 165.32 62.21 69.87 o
10 2 21 108.81 109.12 71.79 o
11 2 21 183.52 146.44 76.57 o
12 2 21 180.36 132.09 77.53 o
13 2 21 39.05 18.19 75.62 o
14 2 21 0.38 22.97 78.49 o
15 2 21 98.78 47.86 101.46 o
16 2 21 174.09 173.24 86.14 o
17 2 21 95.77 102.42 86.14 o
18 2 21 62.18 95.72 180.90 o
19 2 21 22.14 29.67 140.70 o
1 3 21 3895.44 3701.31 120.60 o
2 3 21 1396.98 1754.46 109.12 o
3 3 21 3694.71 3383.54 123.47 o
4 3 21 1053.44 1012.67 88.06 o
5 3 21 35.14 4.79 67.00 o
6 3 21 475.94 777.21 82.32 o
7 3 21 3808.69 3539.55 123.47 o
8 3 21 1452.63 2082.76 106.24 o
9 3 21 4164.17 3516.58 126.34 o
10 3 21 148.67 233.55 72.74 o
11 3 21 50.70 2.87 69.87 o
12 3 21 859.89 935.14 84.23 o
13 3 21 1879.24 2014.81 117.73 o
14 3 21 622.05 952.37 89.97 o
15 3 21 676.83 639.38 95.72 o
16 3 21 35.32 3.83 129.22 o
17 3 21 254.08 267.05 143.57 o
18 3 21 586.70 624.06 122.52 o
19 3 21 1020.18 909.30 173.24 o
0 4 21 1728.44 1349.59 143.57 o
1 4 21 204.59 311.07 77.53 o
2 4 21 241.08 253.65 70.83 o
3 4 21 1.11 1.91 68.92 o
4 4 21 1922.72 1541.97 95.72 o
5 4 21 455.86 1000.22 89.97 o
6 4 21 2150.02 1732.45 101.46 o
7 4 21 237.25 360.85 77.53 o
8 4 21 20.80 0.00 68.92 o
9 4 21 383.25 394.35 74.66 o
10 4 21 1566.65 1369.69 100.50 o
11 4 21 150.56 209.62 87.10 o
12 4 21 1101.92 976.30 87.10 o
13 4 21 0.19 8.61 90.93 o
14 4 21 63.51 37.33 101.46 o
15 4 21 237.36 372.33 95.72 o
16 4 21 1289.85 1170.60 138.79 o
17 4 21 83.66 116.77 177.07 o
18 4 21 356.08 257.47 177.07 o
1 5 21 2586.31 2475.20 105.29 o
2 5 21 1143.58 1334.27 94.76 o
3 5 21 2629.46 1964.08 109.12 o
4 5 21 334.20 425.93 75.62 o
5 5 21 14.29 0.00 68.92 o
6 5 21 294.32 396.26 76.57 o
7 5 21 2049.54 1978.44 104.33 o
8 5 21 826.38 1291.20 93.80 o
9 5 21 2963.53 2658.97 111.03 o
10 5 21 1.60 4.79 69.87 o
11 5 21 26.75 0.96 68.92 o
12 5 21 481.79 501.55 86.14 o
13 5 21 1654.48 1441.47 111.99 o
14 5 21 258.77 433.59 92.84 o
15 5 21 606.31 734.14 109.12 o
16 5 21 121.75 67.96 133.04 o
17 5 21 236.52 146.44 180.90 o
18 5 21 290.76 174.20 350.32 o
0 6 21 1694.95 1828.16 151.23 o
1 6 21 439.77 714.04 81.36 o
2 6 21 370.38 332.13 73.70 o
3 6 21 18.19 56.47 70.83 o
4 6 21 1874.86 1540.06 95.72 o
5 6 21 1242.01 1711.39 103.37 o
6 6 21 3295.01 2834.13 123.47 o
7 6 21 387.43 547.49 81.36 o
8 6 21 19.98 30.63 70.83 o
9 6 21 435.86 517.82 83.27 o
10 6 21 1739.82 1821.46 100.50 o
11 6 21 809.04 979.17 91.89 o
12 6 21 1042.30 709.25 94.76 o
13 6 21 35.04 1.91 84.23 o
14 6 21 29.23 0.00 104.33 o
15 6 21 474.00 446.03 128.26 o
16 6 21 1167.01 1167.73 174.20 o
17 6 21 365.76 261.30 218.23 o
1 7 21 810.36 719.78 82.32 o
2 7 21 195.45 353.19 77.53 o
3 7 21 985.55 722.65 90.93 o
4 7 21 0.68 2.87 69.87 o
5 7 21 69.67 24.89 71.79 o
6 7 21 56.05 106.24 80.40 o
7 7 21 657.05 600.13 85.19 o
8 7 21 241.49 284.27 80.40 o
9 7 21 1273.58 1053.83 101.46 o
10 7 21 1.49 7.66 86.14 o
11 7 21 24.24 24.89 82.32 o
12 7 21 42.17 61.26 86.14 o
13 7 21 564.04 368.50 96.67 o
14 7 21 120.07 76.57 95.72 o
15 7 21 187.08 20.10 122.52 o
0 8 21 2071.23 1736.28 167.50 o
1 8 21 598.06 999.27 88.06 o
2 8 21 487.78 310.12 76.57 o
3 8 21 40.88 30.63 72.74 o
4 8 21 1921.75 1483.59 123.47 o
5 8 21 1447.07 2198.58 107.20 o
6 8 21 4275.89 3482.12 134.96 o
7 8 21 168.34 459.43 93.80 o
8 8 21 51.73 25.84 97.63 o
9 8 21 243.34 211.53 110.07 o
10 8 21 2536.26 2189.97 131.13 o
11 8 21 895.36 1230.90 111.99 o
12 8 21 1984.23 1841.56 159.84 o
13 8 21 0.40 1.91 144.53 o
14 8 21 131.52 5.74 127.30 o
1 9 21 21.76 47.86 88.06 o
2 9 21 32.87 40.20 72.74 o
3 9 21 7.03 0.96 70.83 o
4 9 21 17.61 2.87 71.79 o
5 9 21 59.04 7.66 85.19 o
6 9 21 18.66 24.89 85.19 o
7 9 21 17.86 42.11 105.29 o
8 9 21 15.90 2.87 80.40 o
9 9 21 195.94 89.02 93.80 o
10 9 21 6.15 1.91 102.42 o
11 9 21 6.65 4.79 139.74 o
12 9 21 2.18 0.00 99.54 o
0 10 21 3310.48 3124.15 175.16 o
1 10 21 412.99 846.12 109.12 o
2 10 21 473.19 321.60 96.67 o
3 10 21 70.30 35.41 73.70 o
4 10 21 2545.99 2503.91 145.49 o
5 10 21 1197.83 1812.85 120.60 o
6 10 21 3297.16 2985.36 141.66 o
7 10 21 59.00 196.22 87.10 o
8 10 21 1.57 0.96 129.22 o
9 10 21 68.49 20.10 196.22 o
10 10 21 1854.92 1942.06 238.33 o
1 11 21 2.49 3.83 96.67 o
2 11 21 9.05 18.19 80.40 o
3 11 21 68.26 96.67 87.10 o
4 11 21 22.61 36.37 131.13 o
5 11 21 0.18 4.79 151.23 o
6 11 21 13.40 22.97 105.29 o
0 0 22 4557.19 3125.10 265.13 o
1 0 22 7.94 78.49 132.09 o
2 0 22 549.97 597.26 116.77 o
3 0 22 28.66 21.06 111.03 o
4 0 22 3765.12 4423.96 187.60 o
5 0 22 36.91 400.09 151.23 o
6 0 22 4106.11 3513.71 205.79 o
7 0 22 340.56 450.82 124.43 o
8 0 22 4.60 1.91 129.22 o
9 0 22 9.54 33.50 125.39 o
10 0 22 3457.90 3316.53 197.17 o
11 0 22 740.22 984.91 152.19 o
12 0 22 2081.31 1848.26 160.80 o
13 0 22 713.34 381.90 126.34 o
14 0 22 479.58 414.45 128.26 o
15 0 22 27.76 81.36 114.86 o
16 0 22 2474.96 2151.68 253.65 o
17 0 22 909.39 1137.10 198.13 o
18 0 22 462.84 895.90 144.53 o
1 1 22 36.00 57.43 78.49 o
2 1 22 154.61 97.63 79.44 o
3 1 22 48.41 29.67 75.62 o
4 1 22 6.51 7.66 80.40 o
5 1 22 0.25 6.70 82.32 o
6 1 22 61.41 69.87 80.40 o
7 1 22 31.22 39.24 81.36 o
8 1 22 0.07 3.83 70.83 o
9 1 22 87.49 97.63 75.62 o
10 1 22 28.79 38.29 74.66 o
11 1 22 2.10 18.19 76.57 o
12 1 22 24.11 17.23 77.53 o
13 1 22 58.64 44.99 78.49 o
14 1 22 5.93 5.74 80.40 o
15 1 22 39.36 82.32 110.07 o
16 1 22 33.29 19.14 86.14 o
17 1 22 2.98 22.97 110.07 o
18 1 22 1.30 30.63 108.16 o
0 2 22 4457.52 3216.99 203.87 o
1 2 22 750.96 647.99 89.97 o
2 2 22 515.49 516.86 75.62 o
3 2 22 316.79 387.65 75.62 o
4 2 22 3985.96 3109.79 123.47 o
5 2 22 1426.87 2075.11 120.60 o
6 2 22 4211.76 3291.65 142.62 o
7 2 22 319.27 506.33 92.84 o
8 2 22 0.62 0.96 76.57 o
9 2 22 673.57 643.21 88.06 o
10 2 22 3645.61 3255.28 128.26 o
11 2 22 1215.11 1921.96 107.20 o
12 2 22 1912.80 1899.95 106.24 o
13 2 22 59.08 51.69 79.44 o
14 2 22 386.90 401.05 89.02 o
15 2 22 230.20 469.96 108.16 o
16 2 22 2216.22 1867.41 121.56 o
17 2 22 470.46 818.37 131.13 o
18 2 22 421.38 623.11 184.73 o
1 3 22 1089.46 796.35 85.19 o
2 3 22 15.38 58.39 77.53 o
3 3 22 1966.46 1566.86 94.76 o
4 3 22 69.41 104.33 70.83 o
5 3 22 1.58 2.87 68.92 o
6 3 22 0.61 3.83 72.74 o
7 3 22 1179.00 908.34 89.97 o
8 3 22 314.59 340.75 79.44 o
9 3 22 920.40 881.54 82.32 o
10 3 22 67.36 45.94 73.70 o
11 3 22 102.90 24.89 73.70 o
12 3 22 27.00 82.32 81.36 o
13 3 22 1009.81 821.24 90.93 o
14 3 22 132.51 153.14 88.06 o
15 3 22 122.52 110.07 96.67 o
16 3 22 8.93 1.91 133.04 o
17 3 22 206.31 173.24 182.82 o
0 4 22 1464.15 860.48 140.70 o
1 4 22 5.41 0.96 71.79 o
2 4 22 331.92 345.53 75.62 o
3 4 22 6.85 9.57 70.83 o
4 4 22 1413.63 1258.66 93.80 o
5 4 22 75.11 155.06 84.23 o
6 4 22 2533.42 2207.19 111.03 o
7 4 22 347.25 443.16 82.32 o
8 4 22 62.14 8.61 72.74 o
9 4 22 24.28 14.36 76.57 o
10 4 22 2161.85 1831.03 103.37 o
11 4 22 598.18 976.30 89.02 o
12 4 22 1511.53 1201.23 93.80 o
13 4 22 195.56 165.59 84.23 o
14 4 22 158.05 116.77 90.93 o
15 4 22 43.93 219.19 115.82 o
16 4 22 1826.20 1541.02 121.56 o
17 4 22 585.65 581.95 158.89 o
1 5 22 1258.35 1273.01 90.93 o
2 5 22 149.28 255.56 87.10 o
3 5 22 2276.11 1954.51 106.24 o
4 5 22 92.17 171.33 77.53 o
5 5 22 14.41 18.19 71.79 o
6 5 22 5.23 12.44 73.70 o
7 5 22 1569.65 1190.70 92.84 o
8 5 22 466.94 690.11 89.02 o
9 5 22 1495.05 1547.72 98.59 o
10 5 22 392.68 306.29 83.27 o
11 5 22 92.64 14.36 83.27 o
12 5 22 13.99 14.36 86.14 o
13 5 22 1718.05 1353.41 111.99 o
14 5 22 587.79 598.22 143.57 o
15 5 22 248.78 264.17 147.40 o
16 5 22 66.34 9.57 155.06 o
0 6 22 921.44 804.97 130.17 o
1 6 22 317.19 269.92 79.44 o
2 6 22 189.03 201.96 74.66 o
3 6 22 41.64 88.06 72.74 o
4 6 22 897.32 708.29 83.27 o
5 6 22 411.20 476.66 84.23 o
6 6 22 1452.69 1173.47 95.72 o
7 6 22 88.49 81.36 79.44 o
8 6 22 0.51 0.00 75.62 o
9 6 22 142.94 194.30 79.44 o
10 6 22 1349.09 1015.54 98.59 o
11 6 22 360.29 473.79 96.67 o
12 6 22 587.75 418.28 94.76 o
13 6 22 6.58 4.79 94.76 o
14 6 22 93.67 36.37 119.64 o
15 6 22 11.56 15.31 142.62 o
1 7 22 2007.87 1715.22 104.33 o
2 7 22 872.56 1861.66 105.29 o
3 7 22 4272.48 3341.42 136.87 o
4 7 22 119.28 389.56 82.32 o
5 7 22 33.40 9.57 72.74 o
6 7 22 39.54 116.77 76.57 o
7 7 22 3454.95 2686.73 120.60 o
8 7 22 635.91 1093.07 101.46 o
9 7 22 2534.92 1854.96 124.43 o
10 7 22 200.52 129.22 88.06 o
11 7 22 202.88 90.93 101.46 o
12 7 22 52.92 131.13 96.67 o
13 7 22 2764.98 2310.57 131.13 o
14 7 22 493.32 601.09 169.42 o
0 8 22 6.19 0.96 99.54 o
1 8 22 444.63 341.70 80.40 o
2 8 22 0.98 19.14 72.74 o
3 8 22 97.93 92.84 78.49 o
4 8 22 59.99 20.10 76.57 o
5 8 22 323.36 342.66 79.44 o
6 8 22 147.85 134.96 77.53 o
7 8 22 10.08 12.44 82.32 o
8 8 22 2.63 3.83 100.50 o
9 8 22 57.80 31.59 87.10 o
10 8 22 230.19 109.12 141.66 o
11 8 22 309.12 166.54 97.63 o
12 8 22 62.28 5.74 124.43 o
1 9 22 1346.42 1311.30 97.63 o
2 9 22 496.93 982.04 102.42 o
3 9 22 3586.27 3127.02 131.13 o
4 9 22 110.31 249.82 87.10 o
5 9 22 99.33 45.94 83.27 o
6 9 22 2.11 32.54 94.76 o
7 9 22 2913.21 2658.01 128.26 o
8 9 22 605.06 938.97 108.16 o
9 9 22 2220.61 1823.38 132.09 o
10 9 22 124.90 24.89 135.92 o
0 10 22 13.75 8.61 136.87 o
1 10 22 19.72 0.00 77.53 o
2 10 22 4.62 5.74 106.24 o
3 10 22 18.40 76.57 84.23 o
4 10 22 13.37 12.44 113.90 o
5 10 22 6.70 1.91 86.14 o
6 10 22 0.47 4.79 83.27 o
7 10 22 52.85 121.56 241.20 o
1 1 23 4.40 1.91 89.02 o
2 1 23 5287.37 4102.36 175.16 o
3 1 23 1656.60 2253.14 134.96 o
4 1 23 3477.45 3245.71 137.83 o
5 1 23 105.49 178.99 86.14 o
6 1 23 380.94 324.47 86.14 o
7 1 23 809.34 1033.73 104.33 o
8 1 23 5103.28 4499.58 156.97 o
9 1 23 109.99 130.17 96.67 o
10 1 23 1179.98 1085.41 101.46 o
11 1 23 156.84 136.87 79.44 o
12 1 23 2260.46 2190.92 114.86 o
13 1 23 531.01 902.60 97.63 o
14 1 23 2673.53 2465.63 127.30 o
15 1 23 4.65 105.29 104.33 o
16 1 23 29.40 59.34 135.92 o
0 2 23 236.23 231.63 117.73 o
1 2 23 315.89 342.66 85.19 o
2 2 23 35.14 18.19 81.36 o
3 2 23 9.19 11.49 82.32 o
4 2 23 19.63 28.71 81.36 o
5 2 23 461.94 391.48 87.10 o
6 2 23 365.77 283.32 84.23 o
7 2 23 231.21 171.33 86.14 o
8 2 23 2.36 40.20 86.14 o
9 2 23 114.68 85.19 84.23 o
10 2 23 196.79 178.99 82.32 o
11 2 23 165.71 113.90 81.36 o
12 2 23 27.77 66.04 82.32 o
13 2 23 37.93 67.00 85.19 o
14 2 23 35.61 15.31 87.10 o
15 2 23 79.49 33.50 115.82 o
16 2 23 73.10 61.26 118.69 o
1 3 23 9.78 192.39 79.44 o
2 3 23 4774.65 4045.89 139.74 o
3 3 23 972.74 1098.81 109.12 o
4 3 23 2257.67 1957.38 109.12 o
5 3 23 4.14 0.96 71.79 o
6 3 23 388.45 201.96 83.27 o
7 3 23 645.34 1291.20 100.50 o
8 3 23 3723.45 2980.57 142.62 o
9 3 23 258.40 539.83 95.72 o
10 3 23 637.72 628.85 89.02 o
11 3 23 38.31 79.44 82.32 o
12 3 23 1531.47 1756.38 109.12 o
13 3 23 420.87 690.11 95.72 o
14 3 23 1638.77 1506.56 118.69 o
15 3 23 51.17 54.56 114.86 o
16 3 23 10.69 4.79 248.86 o
0 4 23 368.86 630.76 111.03 o
1 4 23 1465.41 1119.87 101.46 o
2 4 23 11.94 12.44 76.57 o
3 4 23 43.67 1.91 71.79 o
4 4 23 24.22 71.79 77.53 o
5 4 23 2286.23 1614.72 104.33 o
6 4 23 232.33 428.80 86.14 o
7 4 23 906.36 630.76 88.06 o
8 4 23 1.70 1.91 75.62 o
9 4 23 535.79 527.39 86.14 o
10 4 23 119.80 226.85 96.67 o
11 4 23 1140.18 1101.68 92.84 o
12 4 23 0.49 16.27 85.19 o
13 4 23 99.27 131.13 91.89 o
14 4 23 123.91 89.02 97.63 o
15 4 23 579.90 505.38 113.90 o
1 5 23 15.81 69.87 79.44 o
2 5 23 2992.09 2578.57 119.64 o
3 5 23 285.00 844.21 91.89 o
4 5 23 1069.19 975.34 94.76 o
5 5 23 17.29 35.41 74.66 o
6 5 23 192.92 43.07 75.62 o
7 5 23 368.86 520.69 86.14 o
8 5 23 2229.22 2249.31 112.94 o
9 5 23 29.52 149.32 86.14 o
10 5 23 381.93 297.67 86.14 o
11 5 23 77.78 42.11 88.06 o
12 5 23 993.17 922.70 138.79 o
13 5 23 82.48 226.85 96.67 o
14 5 23 1114.33 931.31 123.47 o
0 6 23 889.16 1579.30 165.59 o
1 6 23 1786.50 1690.33 104.33 o
2 6 23 10.46 14.36 75.62 o
3 6 23 33.65 10.53 74.66 o
4 6 23 217.45 527.39 85.19 o
5 6 23 2893.22 2316.31 122.52 o
6 6 23 364.60 865.27 91.89 o
7 6 23 1146.83 1259.61 102.42 o
8 6 23 1.22 0.00 79.44 o
9 6 23 350.58 182.82 88.06 o
10 6 23 274.34 379.99 95.72 o
11 6 23 1555.92 1247.17 124.43 o
12 6 23 126.42 225.89 101.46 o
13 6 23 225.91 81.36 112.94 o
1 7 23 3.59 0.96 82.32 o
2 7 23 1250.51 796.35 95.72 o
3 7 23 11.87 113.90 85.19 o
4 7 23 387.81 219.19 89.97 o
5 7 23 96.10 70.83 78.49 o
6 7 23 60.32 73.70 82.32 o
7 7 23 135.39 114.86 82.32 o
8 7 23 900.68 573.33 90.93 o
9 7 23 0.60 9.57 134.96 o
10 7 23 216.81 35.41 96.67 o
11 7 23 16.33 1.91 95.72 o
0 8 23 1118.58 1414.67 208.66 o
1 8 23 2414.21 2214.85 110.07 o
2 8 23 10.24 67.96 79.44 o
3 8 23 73.00 62.21 80.40 o
4 8 23 445.03 602.05 90.93 o
5 8 23 3826.82 3289.73 134.00 o
6 8 23 308.28 769.55 98.59 o
7 8 23 1343.76 1254.83 111.03 o
8 8 23 19.61 1.91 94.76 o
9 8 23 488.79 358.93 112.94 o
1 9 23 3.46 19.14 75.62 o
2 9 23 29.76 13.40 79.44 o
3 9 23 35.77 7.66 78.49 o
4 9 23 1.34 3.83 80.40 o
5 9 23 82.57 26.80 98.59 o
6 9 23 0.16 3.83 98.59 o
0 0 24 4250.28 4925.51 358.93 o
1 0 24 3943.46 3988.46 214.40 o
2 0 24 132.16 227.80 124.43 o
3 0 24 219.12 160.80 123.47 o
4 0 24 894.13 1152.41 170.37 o
5 0 24 4737.83 4529.25 233.55 o
6 0 24 2476.98 2795.84 220.15 o
7 0 24 1079.55 1257.70 150.27 o
8 0 24 275.45 208.66 129.22 o
9 0 24 851.50 428.80 162.72 o
10 0 24 645.85 908.34 159.84 o
11 0 24 2216.78 2003.32 184.73 o
12 0 24 635.20 766.68 150.27 o
13 0 24 23.37 6.70 125.39 o
14 0 24 0.06 23.93 184.73 o
1 1 24 8.62 28.71 83.27 o
2 1 24 130.02 80.40 87.10 o
3 1 24 65.84 42.11 84.23 o
4 1 24 23.69 97.63 89.02 o
5 1 24 0.12 0.96 86.14 o
6 1 24 5.77 1.91 87.10 o
7 1 24 10.05 32.54 85.19 o
8 1 24 25.12 58.39 86.14 o
9 1 24 30.16 58.39 89.97 o
10 1 24 5.90 11.49 89.97 o
11 1 24 0.02 1.91 89.97 o
12 1 24 4.01 3.83 92.84 o
13 1 24 19.34 40.20 94.76 o
14 1 24 28.35 6.70 123.47 o
0 2 24 4142.43 6076.96 249.82 o
1 2 24 3345.51 3792.24 147.40 o
2 2 24 155.19 161.76 89.97 o
3 2 24 249.00 254.60 89.97 o
4 2 24 1191.26 1711.39 113.90 o
5 2 24 3898.67 3853.50 159.84 o
6 2 24 2455.47 3144.25 145.49 o
7 2 24 1100.83 1143.80 107.20 o
8 2 24 119.95 85.19 89.02 o
9 2 24 610.59 496.76 96.67 o
10 2 24 805.26 1384.04 111.99 o
11 2 24 2092.11 2006.19 119.64 o
12 2 24 437.09 627.89 97.63 o
13 2 24 4.91 5.74 85.19 o
14 2 24 10.88 24.89 127.30 o
1 3 24 80.89 113.90 90.93 o
2 3 24 2205.80 1821.46 117.73 o
3 3 24 490.19 841.34 105.29 o
4 3 24 808.45 887.28 102.42 o
5 3 24 13.38 21.06 86.14 o
6 3 24 223.30 120.60 88.06 o
7 3 24 44.18 145.49 90.93 o
8 3 24 886.51 769.55 102.42 o
9 3 24 220.78 227.80 95.72 o
10 3 24 46.94 42.11 91.89 o
11 3 24 3.03 0.96 82.32 o
12 3 24 374.61 248.86 97.63 o
13 3 24 166.53 333.09 93.80 o
14 3 24 372.68 208.66 117.73 o
0 4 24 1619.00 1782.22 152.19 o
1 4 24 2113.80 1988.01 114.86 o
2 4 24 169.62 139.74 79.44 o
3 4 24 329.27 339.79 82.32 o
4 4 24 401.47 457.52 92.84 o
5 4 24 2321.72 2332.58 119.64 o
6 4 24 1583.98 1791.79 108.16 o
7 4 24 711.09 717.86 93.80 o
8 4 24 318.92 270.87 94.76 o
9 4 24 476.42 268.00 90.93 o
10 4 24 500.44 497.72 100.50 o
11 4 24 1190.83 1238.56 113.90 o
12 4 24 529.29 571.42 123.47 o
13 4 24 6.34 9.57 145.49 o
1 5 24 433.59 550.36 89.97 o
2 5 24 2549.91 2579.53 123.47 o
3 5 24 1638.87 2081.81 114.86 o
4 5 24 1434.59 1514.22 106.24 o
5 5 24 63.38 49.77 83.27 o
6 5 24 401.75 308.20 106.24 o
7 5 24 402.73 586.73 91.89 o
8 5 24 1329.94 1201.23 108.16 o
9 5 24 791.33 879.62 96.67 o
10 5 24 32.13 132.09 85.19 o
11 5 24 0.07 29.67 134.96 o
12 5 24 784.07 647.04 128.26 o
0 6 24 679.29 1202.18 135.92 o
1 6 24 541.02 687.24 85.19 o
2 6 24 94.24 158.89 82.32 o
3 6 24 109.33 99.54 82.32 o
4 6 24 238.97 303.42 91.89 o
5 6 24 736.27 753.28 93.80 o
6 6 24 582.41 655.65 96.67 o
7 6 24 566.01 489.11 89.02 o
8 6 24 136.04 36.37 106.24 o
9 6 24 150.83 54.56 86.14 o
10 6 24 112.86 178.03 93.80 o
1 7 24 438.78 665.22 89.02 o
2 7 24 2392.00 2377.57 126.34 o
3 7 24 1350.73 2254.10 119.64 o
4 7 24 2345.66 2276.11 118.69 o
5 7 24 70.47 37.33 98.59 o
6 7 24 405.85 363.72 88.06 o
7 7 24 350.62 546.53 150.27 o
8 7 24 1891.77 1870.28 124.43 o
0 8 24 721.69 603.96 117.73 o
1 8 24 1.29 2.87 83.27 o
2 8 24 84.79 117.73 102.42 o
3 8 24 24.26 45.94 91.89 o
4 8 24 364.73 232.59 87.10 o
5 8 24 82.12 73.70 84.23 o
1 1 25 2326.66 1837.73 121.56 o
2 1 25 7.65 236.42 134.00 o
3 1 25 8793.36 7027.42 198.13 o
4 1 25 14.54 122.52 116.77 o
5 1 25 575.04 564.72 102.42 o
6 1 25 128.57 167.50 93.80 o
7 1 25 2814.57 2380.44 134.96 o
8 1 25 1.18 95.72 114.86 o
9 1 25 2564.79 2434.04 149.32 o
10 1 25 57.98 186.64 95.72 o
11 1 25 293.27 248.86 98.59 o
12 1 25 87.89 542.71 107.20 o
0 2 25 640.71 356.06 139.74 o
1 2 25 43.80 53.60 92.84 o
2 2 25 299.92 376.16 98.59 o
3 2 25 1.02 1.91 90.93 o
4 2 25 118.01 115.82 94.76 o
5 2 25 7.78 106.24 90.93 o
6 2 25 455.28 266.09 97.63 o
7 2 25 21.97 54.56 94.76 o
8 2 25 3.93 31.59 93.80 o
9 2 25 30.03 72.74 94.76 o
10 2 25 366.45 312.03 99.54 o
11 2 25 57.64 78.49 110.07 o
12 2 25 116.27 192.39 111.99 o
1 3 25 1556.71 1445.30 112.94 o
2 3 25 7.06 673.84 124.43 o
3 3 25 6752.81 5324.64 178.99 o
4 3 25 24.96 85.19 111.03 o
5 3 25 425.05 469.96 98.59 o
6 3 25 7.87 5.74 90.93 o
7 3 25 2151.40 1786.05 124.43 o
8 3 25 25.15 166.54 110.07 o
9 3 25 1964.45 1788.92 124.43 o
10 3 25 0.12 27.76 94.76 o
11 3 25 233.34 210.57 102.42 o
0 4 25 2842.31 2233.99 242.16 o
1 4 25 3.12 50.73 93.80 o
2 4 25 788.96 601.09 100.50 o
3 4 25 0.25 0.96 91.89 o
4 4 25 629.56 663.31 101.46 o
5 4 25 43.34 78.49 96.67 o
6 4 25 1319.93 1155.28 108.16 o
7 4 25 0.69 3.83 92.84 o
8 4 25 0.32 2.87 89.97 o
9 4 25 5.12 55.51 95.72 o
10 4 25 1179.50 979.17 111.99 o
1 5 25 673.15 543.66 89.97 o
2 5 25 1.26 67.96 99.54 o
3 5 25 3492.31 2971.96 135.92 o
4 5 25 2.85 24.89 94.76 o
5 5 25 187.71 185.69 88.06 o
6 5 25 8.07 15.31 86.14 o
7 5 25 1038.67 1086.37 105.29 o
8 5 25 18.57 54.56 98.59 o
9 5 25 1083.76 1167.73 132.09 o
0 6 25 4278.25 3496.48 197.17 o
1 6 25 63.89 267.05 98.59 o
2 6 25 868.78 742.75 97.63 o
3 6 25 1.50 6.70 82.32 o
4 6 25 763.35 735.09 97.63 o
5 6 25 4.66 177.07 101.46 o
6 6 25 1549.96 1268.23 136.87 o
7 6 25 0.02 6.70 89.02 o
1 7 25 362.12 453.69 86.14 o
2 7 25 1.82 10.53 89.97 o
3 7 25 1533.19 1453.92 107.20 o
4 7 25 2.51 86.14 221.10 o
0 0 26 2801.00 4110.97 353.19 o
1 0 26 5281.30 4697.71 246.95 o
2 0 26 1068.24 1447.22 159.84 o
3 0 26 28.05 4.79 135.92 o
4 0 26 974.82 804.01 156.97 o
5 0 26 841.09 1132.31 159.84 o
6 0 26 1243.54 1414.67 169.42 o
7 0 26 385.14 394.35 144.53 o
8 0 26 39.79 16.27 160.80 o
9 0 26 1012.11 1361.07 166.54 o
1 1 26 21.22 28.71 98.59 o
2 1 26 219.92 94.76 94.76 o
3 1 26 47.58 127.30 96.67 o
4 1 26 68.80 9.57 91.89 o
5 1 26 0.01 3.83 96.67 o
6 1 26 54.05 64.13 94.76 o
7 1 26 24.07 53.60 96.67 o
8 1 26 43.30 34.46 96.67 o
9 1 26 2.17 27.76 96.67 o
0 2 26 1907.35 3122.23 221.10 o
1 2 26 3350.17 4149.26 167.50 o
2 2 26 880.00 1198.36 111.99 o
3 2 26 62.68 18.19 90.93 o
4 2 26 529.62 463.26 101.46 o
5 2 26 242.84 681.49 108.16 o
6 2 26 953.76 971.51 111.99 o
7 2 26 232.31 269.92 102.42 o
8 2 26 2.49 10.53 121.56 o
9 2 26 424.58 770.51 112.94 o
1 3 26 181.75 210.57 96.67 o
2 3 26 301.32 434.55 101.46 o
3 3 26 576.73 622.15 105.29 o
4 3 26 253.93 312.03 99.54 o
5 3 26 33.71 0.96 90.93 o
6 3 26 8.93 13.40 93.80 o
7 3 26 282.18 287.15 101.46 o
8 3 26 34.17 87.10 104.33 o
0 4 26 2552.38 3054.28 207.70 o
1 4 26 2873.39 2871.46 145.49 o
2 4 26 658.49 799.22 107.20 o
3 4 26 19.79 15.31 95.72 o
4 4 26 1008.43 748.49 107.20 o
5 4 26 391.75 553.23 105.29 o
6 4 26 844.44 749.45 111.03 o
1 5 26 454.28 527.39 93.80 o
2 5 26 1371.40 1297.90 111.03 o
3 5 26 1289.90 1286.41 118.69 o
4 5 26 1243.13 1340.97 114.86 o
1 1 27 0.31 46.90 108.16 o
2 1 27 3197.40 2464.67 135.92 o
3 1 27 6.29 215.36 123.47 o
4 1 27 1789.42 1347.67 134.96 o
0 2 27 8.58 46.90 147.40 o
1 2 27 189.19 108.16 95.72 o
2 2 27 30.12 95.72 100.50 o
3 2 27 3.03 63.17 100.50 o
