#------------------------------------------------------------------------------
#$Date: 2015-08-05 21:53:05 +0300 (Wed, 05 Aug 2015) $
#$Revision: 152829 $
#$URL: svn://www.crystallography.net/cod/cif/4/34/36/4343605.cif $
#------------------------------------------------------------------------------
#
# This file is available in the Crystallography Open Database (COD),
# http://www.crystallography.net/
#
# All data on this site have been placed in the public domain by the
# contributors.
#
data_4343605
loop_
_publ_author_name
'Seth, Saona'
'Savitha, Govardhan'
'Moorthy, Jarugu Narasimha'
_publ_section_title
;
 Carbon Dioxide Capture by a Metal-Organic Framework with Nitrogen-Rich
 Channels Based on Rationally Designed Triazole-Functionalized Tetraacid
 Organic Linker.
;
_journal_issue                   14
_journal_name_full               'Inorganic chemistry'
_journal_page_first              6829
_journal_page_last               6835
_journal_paper_doi               10.1021/acs.inorgchem.5b00722
_journal_volume                  54
_journal_year                    2015
_chemical_formula_moiety         'C32 H26 Cd N12 O8'
_chemical_formula_sum            'C32 H26 Cd N12 O8'
_chemical_formula_weight         819.06
_space_group_crystal_system      orthorhombic
_space_group_IT_number           37
_space_group_name_Hall           'C 2 -2c'
_space_group_name_H-M_alt        'C c c 2'
_symmetry_space_group_name_Hall  'C 2 -2c'
_symmetry_space_group_name_H-M   'C c c 2'
_atom_sites_solution_hydrogens   geom
_audit_creation_method           SHELXL-2014/5
_cell_angle_alpha                90
_cell_angle_beta                 90
_cell_angle_gamma                90
_cell_formula_units_Z            4
_cell_length_a                   18.066(5)
_cell_length_b                   20.762(5)
_cell_length_c                   15.240(4)
_cell_measurement_temperature    100(2)
_cell_volume                     5716(3)
_computing_cell_refinement       'Bruker SAINT'
_computing_data_collection       'Bruker APEX2'
_computing_data_reduction        'Bruker SAINT'
_computing_molecular_graphics    'Ortep-3 for Windows (Farrugia, 1997)'
_computing_publication_material  'WinGX publication routines (Farrugia, 1999)'
_computing_structure_refinement  'SHELXL-2014/5 (Sheldrick, 2014)'
_computing_structure_solution    'SUPERFLIP (Palatinus & Chapuis, 2007)'
_diffrn_ambient_temperature      100(2)
_diffrn_measured_fraction_theta_full 0.996
_diffrn_measured_fraction_theta_max 0.958
_diffrn_measurement_device_type  'Bruker APEX-II CCD'
_diffrn_measurement_method       '\f and \w scans'
_diffrn_radiation_monochromator  graphite
_diffrn_radiation_type           MoK\a
_diffrn_radiation_wavelength     0.71073
_diffrn_reflns_av_R_equivalents  0.0614
_diffrn_reflns_av_unetI/netI     0.0900
_diffrn_reflns_laue_measured_fraction_full 0.996
_diffrn_reflns_laue_measured_fraction_max 0.958
_diffrn_reflns_limit_h_max       22
_diffrn_reflns_limit_h_min       -24
_diffrn_reflns_limit_k_max       20
_diffrn_reflns_limit_k_min       -27
_diffrn_reflns_limit_l_max       20
_diffrn_reflns_limit_l_min       -19
_diffrn_reflns_number            17262
_diffrn_reflns_point_group_measured_fraction_full 0.997
_diffrn_reflns_point_group_measured_fraction_max 0.959
_diffrn_reflns_theta_full        25.242
_diffrn_reflns_theta_max         28.288
_diffrn_reflns_theta_min         1.494
_diffrn_source                   'sealed tube'
_exptl_absorpt_coefficient_mu    0.424
_exptl_crystal_colour            colorless
_exptl_crystal_density_diffrn    0.952
_exptl_crystal_description       square
_exptl_crystal_F_000             1656
_exptl_crystal_size_max          0.2
_exptl_crystal_size_mid          0.2
_exptl_crystal_size_min          0.2
_refine_diff_density_max         0.955
_refine_diff_density_min         -0.486
_refine_diff_density_rms         0.077
_refine_ls_abs_structure_details
;
 Refined as an inversion twin.
;
_refine_ls_abs_structure_Flack   0.05(6)
_refine_ls_extinction_coef       0.00000(6)
_refine_ls_extinction_expression Fc^*^=kFc[1+0.001xFc^2^\l^3^/sin(2\q)]^-1/4^
_refine_ls_extinction_method     SHELXL
_refine_ls_goodness_of_fit_ref   0.897
_refine_ls_hydrogen_treatment    constr
_refine_ls_matrix_type           full
_refine_ls_number_parameters     246
_refine_ls_number_reflns         6484
_refine_ls_number_restraints     1
_refine_ls_restrained_S_all      0.897
_refine_ls_R_factor_all          0.0906
_refine_ls_R_factor_gt           0.0570
_refine_ls_shift/su_max          3.938
_refine_ls_shift/su_mean         0.016
_refine_ls_structure_factor_coef Fsqd
_refine_ls_weighting_details
'w=1/[\s^2^(Fo^2^)+(0.0637P)^2^] where P=(Fo^2^+2Fc^2^)/3'
_refine_ls_weighting_scheme      calc
_refine_ls_wR_factor_gt          0.1222
_refine_ls_wR_factor_ref         0.1378
_reflns_Friedel_coverage         0.927
_reflns_friedel_fraction_full    0.998
_reflns_friedel_fraction_max     0.960
_reflns_number_gt                3882
_reflns_number_total             6484
_reflns_threshold_expression     'I > 2\s(I)'
_cod_data_source_file            ic5b00722_si_002.cif
_cod_data_source_block           CdMOF
_cod_depositor_comments          'Adding full bibliography for 4343605.cif.'
_cod_database_code               4343605
_shelx_space_group_comment
;
The symmetry employed for this shelxl refinement is uniquely defined
by the following loop, which should always be used as a source of
symmetry information in preference to the above space-group names.
They are only intended as comments.
;
_shelxl_version_number           2014/5
_shelx_hkl_file
;
  -1  -1   0 1616843   14346
  -1  -1   0 1759536   14218
  -2  -2   0  322447   14062
  -2  -2   0  325425   14707
  -3  -3   0     133    3747
  -3  -3   0     256    3280
  -4  -4   0   15985    3224
  -4  -4   0   16267    3779
  -5  -5   0   68195    2573
  -5  -5   0   68165    3145
  -6  -6   0  105703    4805
  -6  -6   0  112561    5644
  -7  -7   0   92571    4368
  -7  -7   0   97900    5247
  -8  -8   0   45244    2568
  -8  -8   0   49057    3336
  -9  -9   0   18056    1908
  -9  -9   0   18594    1146
 -10 -10   0    8402    1950
 -10 -10   0    8127    1122
 -11 -11   0    3040    1387
 -12 -12   0    4454    1248
 -13 -13   0      17     815
 -14 -14   0    8048    1963
 -15 -15   0    4321    1567
 -16 -16   0    4071    1793
 -17 -17   0     908    1288
  -1  -1   1  210036     531
  -1  -1  -1  208174     468
  -2  -2  -1   35628     798
  -2  -2   1   34641     977
  -2  -2  -1   36308     770
  -3  -3  -1   77444    7006
  -3  -3  -1   67881    7280
  -3  -3   1   82745    7596
  -3  -3   1   73893    6720
  -4  -4   1   14055    1142
  -4  -4  -1   14360     829
  -4  -4  -1   14618    1007
  -4  -4   1   14138     665
  -5  -5  -1    5169    1123
  -5  -5   1    5670     957
  -5  -5  -1    4814    1293
  -5  -5   1    7677    1603
  -6  -6   1     654     561
  -6  -6  -1     207     355
  -6  -6   1    1869     331
  -6  -6  -1     207     382
  -7  -7  -1   17338    1782
  -7  -7   1   18688    1966
  -7  -7  -1   17281    1447
  -7  -7   1   20140    1318
  -8  -8  -1    5303    1177
  -8  -8   1    6121     723
  -8  -8   1    5450    1269
  -8  -8  -1    4304     806
  -9  -9  -1    3840     712
  -9  -9  -1    3181     903
  -9  -9   1    4195     579
  -9  -9   1    4708    1123
 -10 -10  -1     325     844
 -10 -10   1     371     913
 -10 -10  -1     605     592
 -11 -11  -1    3408     914
 -11 -11  -1     796    1002
 -11 -11   1    1672    1132
 -12 -12   1     211    1029
 -12 -12  -1      29     905
 -13 -13   1    1002    1237
 -13 -13  -1     352     969
 -14 -14  -1    1084     958
 -14 -14   1      68    1011
 -15 -15  -1    1540    1210
 -15 -15   1    1485    1149
 -16 -16   1     896    1384
 -16 -16  -1     170     881
 -17 -17   1     163    1101
 -17 -17  -1    1518    1174
   0   0  -2   90683      76
  -1  -1  -2  190937   12546
  -1  -1   2  169574   13065
  -2  -2   2  492716   18095
   2   2   2  489714   16348
  -2  -2  -2  492658   17259
  -3  -3  -2  333155   15588
  -3  -3   2  337341   15983
  -3  -3  -2  325000   15130
  -4  -4  -2   98920    4198
  -4  -4  -2   97416    4068
  -4  -4   2  102437    4599
  -5  -5   2   67441    1861
  -5  -5  -2   65219    2491
  -5  -5  -2   64075    2350
  -5  -5   2   75716    2906
  -6  -6   2   69683    4159
  -6  -6  -2   57522    3656
  -6  -6  -2   59397    3413
  -6  -6   2   59644    2882
  -7  -7   2   48556    2402
  -7  -7  -2   52987    3307
  -7  -7  -2   50414    2921
  -7  -7   2   44913    3411
  -8  -8  -2   40198    2202
  -8  -8   2   39804    1739
  -8  -8  -2   47227    2681
  -8  -8   2   43411    2794
  -9  -9  -2   26203    1865
  -9  -9  -2   25100    2149
  -9  -9   2   26820    2470
 -10 -10   2   13204    2328
 -10 -10  -2   12452    1591
 -10 -10  -2   10970    1933
 -11 -11  -2    8445    1510
 -11 -11   2    4309    1602
 -11 -11  -2    5690    1713
 -12 -12   2   11928    2270
 -12 -12  -2    7699    1813
 -12 -12  -2    7927    1427
 -13 -13   2    7680    1759
 -13 -13  -2   15125    2227
 -14 -14   2    3568    1546
 -14 -14  -2    3084    1393
 -15 -15   2    3215    1350
 -15 -15  -2    3055    1254
 -16 -16   2     698    1348
 -16 -16  -2    4457    1677
 -17 -17   2      38    1353
 -17 -17  -2    1040    1602
   1   1  -3   11054     773
  -1  -1  -3   11571     957
  -1  -1   3   10873    1117
   2   2   3   29603    1162
  -2  -2   3   29331    1640
  -2  -2  -3   29442    1453
   3   3   3  263927   12420
  -3  -3  -3  247432   13792
  -3  -3   3  272483   14423
  -3  -3  -3  265001   13586
  -4  -4  -3    4132    1042
  -4  -4  -3    3982     971
  -4  -4   3    3374    1283
  -5  -5   3   23978    1565
  -5  -5  -3   23848    1310
  -5  -5  -3   24205    1287
  -6  -6   3   14756    1697
  -6  -6  -3   14793    1202
  -6  -6  -3   13783    1213
  -7  -7  -3   24922    2036
  -7  -7  -3   26672    2200
  -7  -7   3   22231    2379
  -8  -8   3     649     714
  -8  -8  -3     693     517
  -8  -8  -3    1065     506
  -9  -9   3    5703    1701
  -9  -9  -3    7749    1337
  -9  -9  -3    6956    1506
 -10 -10  -3    1091     767
 -10 -10   3    1286    1021
 -10 -10  -3    1165     847
 -11 -11  -3    1015     762
 -11 -11  -3     112     808
 -11 -11   3      60     940
 -12 -12  -3     680     694
 -12 -12  -3     860     931
 -12 -12   3    1233    1248
 -13 -13   3    6194    2004
 -13 -13  -3    2199    1312
 -14 -14  -3     934    1006
 -14 -14   3     734    1162
 -15 -15  -3     209     914
 -15 -15   3     643     777
 -16 -16  -3    1980    1380
 -16 -16   3     378    1198
 -17 -17  -3    1513    1629
 -17 -17   3     119    1437
   0   0  -4    3406     368
   1   1  -4   17817     960
  -1  -1  -4   18703    1165
   2   2   4   87746    4499
  -2  -2   4   84198    5290
  -2  -2  -4   89713    4886
  -3  -3  -4  179858   10170
  -3  -3   4  169068   10818
   3   3   4  198227    9264
   4   4   4  134539    4994
  -4  -4  -4  129427    5970
  -4  -4  -4  133809    6026
  -4  -4   4  118798    6509
  -5  -5   4   38521    3096
  -5  -5  -4   40525    2732
  -5  -5  -4   40305    2645
  -6  -6   4   93535    5258
  -6  -6  -4   90913    4595
  -6  -6  -4   86397    4592
  -7  -7  -4   21815    1526
  -7  -7   4   24450    2208
  -7  -7  -4   23350    1528
  -8  -8  -4   74515    4053
  -8  -8   4   67300    4433
  -8  -8  -4   77783    3996
  -9  -9  -4   42716    2706
  -9  -9  -4   36157    2438
  -9  -9   4   31774    2794
 -10 -10  -4   48245    3023
 -10 -10  -4   45692    2776
 -10 -10   4   44941    3344
 -11 -11  -4   20021    1860
 -11 -11  -4   20207    2424
 -11 -11   4   25365    2550
 -12 -12   4   18009    2615
 -12 -12  -4   17419    1857
 -12 -12  -4   16676    2049
 -13 -13  -4   17165    2173
 -13 -13  -4   11756    2160
 -13 -13   4   11471    2509
 -14 -14  -4    6270    1589
 -14 -14   4    3758    1530
 -15 -15   4    3317    1588
 -15 -15  -4    1824     974
 -16 -16   4     593    1354
 -16 -16  -4    2903    1294
 -17 -17  -4    1821    1489
 -17 -17   4     470    1544
   1   1  -5     373     465
  -1  -1  -5      86     452
  -2  -2  -5    3362     993
   2   2   5    4227     983
   2   2  -5    3785     690
  -2  -2   5    3846    1227
  -3  -3  -5   11671    1252
   3   3   5   11412     849
  -3  -3   5   10141     885
  -3  -3   5   12379    1507
  -3  -3   5   10544     787
  -4  -4   5   20614    3350
  -4  -4  -5   22257    2962
   4   4   5   23090    2260
  -5  -5   5    9910    1665
  -5  -5  -5    9208    1183
  -5  -5  -5    9291    1346
  -6  -6  -5   22750    2175
  -6  -6  -5   21639    2030
  -6  -6   5   23264    2569
  -7  -7  -5    3543     979
  -7  -7   5    1403     876
  -7  -7  -5    1848     764
  -8  -8   5    1220    1027
  -8  -8  -5    2571     973
  -8  -8  -5    1446     802
  -9  -9  -5    7122    1246
  -9  -9   5    4132    1109
  -9  -9  -5    6099    1171
 -10 -10  -5    2936    1369
 -10 -10  -5    5177    1519
 -10 -10   5    2461    1482
 -11 -11  -5    2924    1324
 -11 -11   5    2497    1392
 -11 -11  -5    3491    1141
 -12 -12   5    1256     896
 -12 -12  -5      37     766
 -12 -12  -5      37     777
 -13 -13   5     364    1052
 -13 -13  -5    1773     993
 -13 -13  -5     371     784
 -14 -14   5    3416    1198
 -14 -14  -5      76     765
 -15 -15  -5     672    1003
 -15 -15   5    2717    1654
 -16 -16  -5    1815    1096
 -16 -16   5     307    1105
 -17 -17  -5    1494    1515
   0   0  -6    1720     410
   1   1  -6    9557     873
  -1  -1  -6   11597    1169
   2   2  -6   20372    1074
   2   2   6   26107    1452
  -2  -2  -6   20404    1382
  -2  -2   6   25531    1738
   3   3   6   89486    4309
  -3  -3   6   89209    5381
  -3  -3  -6   85732    4814
  -4  -4  -6  154988    7344
  -4  -4   6  154770    8025
   4   4   6  160985    6372
   5   5   6  137425    5683
  -5  -5  -6  139025    7014
  -5  -5   6  130065    7653
  -6  -6  -6   36204    2170
  -6  -6   6   35962    2737
  -6  -6  -6   36029    2365
  -7  -7   6   23755    2414
  -7  -7  -6   25205    2104
  -7  -7  -6   25473    1972
  -8  -8  -6    6537    1405
  -8  -8   6    6563    1664
  -8  -8  -6    9640    1506
  -9  -9  -6   15775    1650
  -9  -9  -6   17668    1749
  -9  -9   6   13837    1867
 -10 -10  -6   17822    2028
 -10 -10   6   13549    2582
 -10 -10  -6   19178    2043
 -11 -11  -6   26011    2093
 -11 -11   6   20902    2834
 -11 -11  -6   24288    2138
 -12 -12  -6   11949    2012
 -12 -12  -6   15795    2133
 -12 -12   6   11578    2266
 -13 -13  -6    5905    1580
 -13 -13  -6    3202    1510
 -13 -13   6    2761    1576
 -14 -14  -6    3903    1381
 -14 -14  -6    5035    1297
 -14 -14   6     652    1123
 -15 -15  -6     455    1102
 -15 -15   6    3015    1487
 -16 -16  -6    1491    1251
 -16 -16   6      35    1132
 -17 -17  -6     698    1634
  -1  -1  -7   74283    3605
   1   1  -7   75992    3409
   2   2  -7    1915     671
  -2  -2  -7    2058     949
   2   2   7    2588     988
  -2  -2   7    2555    1191
  -3  -3  -7    2354     506
   3   3  -7    2876     239
   3   3   7    1989     333
  -3  -3   7     997     567
   4   4   7    5573     777
  -4  -4  -7    3511     746
  -4  -4   7    4459     669
  -4  -4  -7    4521    1105
  -4  -4   7    4106    1134
  -5  -5  -7    2287    1163
  -5  -5   7    2966    1488
   5   5   7    2477     674
  -6  -6  -7     137     648
  -6  -6   7    1551    1033
  -6  -6  -7     258     200
  -7  -7  -7    1178     607
  -7  -7  -7     455     689
  -7  -7   7     701     752
  -8  -8   7    1787    1021
  -8  -8  -7    1062     615
  -8  -8  -7    2478     956
  -9  -9   7    3221    1259
  -9  -9  -7    4122    1009
  -9  -9  -7    4279    1014
 -10 -10  -7     706     739
 -10 -10  -7     831     659
 -10 -10   7    1034    1007
 -11 -11  -7     561     802
 -11 -11  -7     247     699
 -11 -11   7      95     641
 -12 -12  -7    3968    1073
 -12 -12  -7    4896    1303
 -12 -12   7    3535    1200
 -13 -13   7       2     702
 -13 -13  -7       2     833
 -13 -13  -7    1111     809
 -14 -14  -7    1320     870
 -14 -14  -7      62     994
 -14 -14   7     829     951
 -15 -15   7    2064    1099
 -15 -15  -7    2024    1012
 -15 -15  -7     471    1041
 -16 -16  -7     691     954
 -16 -16   7     482    1037
 -17 -17  -7      76    1466
   0   0  -8   41013    1855
   1   1  -8   99292    4132
  -1  -1  -8   94686    4331
   2   2  -8   76354    3101
  -2  -2   8   76342    4075
   2   2   8   76037    3536
  -2  -2  -8   66779    3403
  -3  -3  -8   94465    4857
  -3  -3   8   90113    5399
   3   3   8   92895    4462
   3   3  -8   91841    4040
  -4  -4   8   45824    3638
  -4  -4   8   44370    2694
   4   4   8   50205    2704
  -4  -4  -8   44252    3142
  -4  -4   8   43062    2443
   5   5   8   28130    1766
  -5  -5   8   25814    2770
  -5  -5  -8   24069    2339
  -5  -5  -8   19508    1934
  -6  -6   8   47852    3829
  -6  -6  -8   44832    3228
  -7  -7  -8   33518    2595
  -7  -7   8   30062    2966
  -8  -8  -8   31099    2202
  -8  -8  -8   34685    2484
  -8  -8   8   28452    2710
  -9  -9   8   24164    2920
  -9  -9  -8   22464    1808
  -9  -9  -8   24483    2410
 -10 -10   8   10170    2259
 -10 -10  -8   12291    1839
 -10 -10  -8   15720    2260
 -11 -11  -8    8539    1769
 -11 -11  -8    6864    1556
 -11 -11   8    5814    1782
 -12 -12  -8    2845    1179
 -12 -12   8    3647    1484
 -12 -12  -8    1555     861
 -13 -13   8    4375    1482
 -13 -13  -8    5185    1306
 -13 -13  -8    6557    1372
 -14 -14  -8    4066    1497
 -14 -14  -8    2853    1381
 -14 -14   8    2930    1568
 -15 -15   8    1821    1105
 -15 -15  -8     838    1107
 -15 -15  -8    3772    1327
 -16 -16  -8    2340    1382
   1   1  -9    6396    1024
  -1  -1  -9    5012    1100
  -2  -2   9    3668     845
  -2  -2  -9    4054     873
   2   2   9    3909     792
   2   2  -9    4123     630
   3   3  -9    1317     531
   3   3   9    2736     829
  -3  -3   9    1718     943
  -3  -3  -9     428     696
  -4  -4   9    9415    1313
  -4  -4   9    7410    1800
  -4  -4   9    7274    1074
   4   4   9    8245    1194
  -4  -4  -9    8410    1555
  -5  -5   9    3139    1098
  -5  -5  -9    4310    1029
  -6  -6  -9     624     379
  -6  -6   9     513     571
  -6  -6  -9     860     650
  -7  -7  -9    5410    1228
  -7  -7   9    7580    1635
  -8  -8   9     347    1238
  -8  -8  -9     194     426
  -8  -8  -9    1194    1297
  -9  -9  -9    1100    1020
  -9  -9   9     428     913
  -9  -9  -9     998     667
 -10 -10  -9    5013    1251
 -10 -10  -9    7524    1717
 -10 -10   9    6135    1796
 -11 -11   9     354     983
 -11 -11  -9    2496    1204
 -11 -11  -9      78     682
 -12 -12   9     147     763
 -12 -12  -9     157     826
 -12 -12  -9    1319     844
 -13 -13  -9      20     656
 -13 -13   9     781    1101
 -13 -13  -9     159     972
 -14 -14   9      45    1115
 -14 -14  -9     822    1117
 -14 -14  -9     601     883
 -15 -15   9     252    1011
 -15 -15  -9     858    1309
 -16 -16  -9       1    2526
   0   0 -10   82250    2077
  -1  -1 -10  123179    5983
   1   1 -10  124491    5768
   2   2 -10   86164    3657
  -2  -2 -10   83418    4121
   2   2  10   80528    4084
  -3  -3 -10   36511    2567
  -3  -3  10   33850    2834
   3   3 -10   33266    1871
   3   3  10   33976    2285
  -4  -4  10   27249    2794
   4   4  10   24580    1971
  -4  -4 -10   27909    2467
  -5  -5 -10   33024    2388
  -5  -5  10   29103    2964
  -6  -6  10   25059    3044
  -6  -6 -10   18228    2327
  -7  -7 -10   21619    2273
  -7  -7 -10   26260    2724
  -7  -7  10   25098    3088
  -8  -8  10   17813    3066
  -8  -8 -10   17920    2566
  -9  -9 -10   35778    3016
  -9  -9  10   25505    3526
 -10 -10 -10    4157    1258
 -10 -10 -10    3349     762
 -10 -10  10    5415    1405
 -11 -11 -10    5931    1695
 -11 -11 -10    5927    1732
 -11 -11  10    5790    2192
 -12 -12 -10    4529    1161
 -12 -12  10    2537    1143
 -12 -12 -10    1701     914
 -13 -13  10    2268    1255
 -13 -13 -10    2840    1287
 -14 -14 -10    4767    1401
 -14 -14  10    1773    1319
 -15 -15  10     656    1152
 -15 -15 -10    2224    1412
   1   1 -11    4363    1222
  -1  -1 -11    3684    1255
  -1  -1  11    2883    1311
   2   2 -11    3382     743
  -2  -2 -11    1610     724
  -2  -2  11    3261    1057
   2   2  11    2427     772
   3   3 -11   13632    1443
   3   3  11   12861    1766
  -3  -3  11   16063    2699
  -3  -3 -11   14076    1958
  -4  -4 -11   11965    2044
  -4  -4  11   11318    2347
  -5  -5  11    3556    1347
  -5  -5 -11    3537    1266
  -6  -6 -11    1290    1069
  -6  -6  11    1378    1098
  -7  -7 -11   25527    2477
  -7  -7  11   25597    3288
  -8  -8 -11   15866    2560
  -8  -8 -11    9853    1794
  -8  -8  11    8446    2443
  -9  -9 -11   15847    2408
  -9  -9  11   13636    2684
  -9  -9 -11   11726    1922
 -10 -10 -11     413    1090
 -10 -10 -11     516     552
 -10 -10  11      21     918
 -11 -11  11     961    1270
 -11 -11 -11     610    1028
 -12 -12 -11     852    1028
 -12 -12  11     406    1107
 -13 -13 -11     232     936
 -13 -13  11     226     923
 -14 -14 -11     977    1220
 -14 -14  11      39    1003
   0   0 -12   13296     391
   1   1  12   29236    3011
  -1  -1  12   28077    3098
  -1  -1 -12   32486    2774
   1   1 -12   29315    2511
   2   2 -12   39147    2359
  -2  -2  12   32455    2931
  -2  -2 -12   36137    2643
   2   2  12   35407    2697
  -3  -3  12   31124    2806
   3   3  12   28206    2280
  -3  -3 -12   34958    2564
  -4  -4  12   28817    2888
  -4  -4 -12   23539    2272
  -5  -5 -12   27591    2540
  -5  -5  12   26613    3335
  -6  -6  12   12053    2364
  -6  -6 -12   14945    2217
  -7  -7  12   39270    3531
  -7  -7 -12   36839    2999
  -8  -8  12    8957    2654
  -8  -8 -12   10146    2317
  -9  -9 -12    2772    1245
  -9  -9  12     843    1092
 -10 -10 -12    9831    2108
 -10 -10  12    4583    1866
 -11 -11  12     969    1145
 -11 -11 -12    2162    1188
 -12 -12 -12    3501    1331
 -13 -13  12    3671    1523
 -13 -13 -12    2818    1360
 -14 -14  12    1651    1674
 -14 -14 -12    3871    1448
   1   1 -13     243     607
   1   1  13     344     702
  -1  -1  13     361     788
  -1  -1 -13     510     815
   2   2  13     222     704
  -2  -2 -13     210     747
  -2  -2  13     234     722
  -3  -3 -13    5682    1439
  -3  -3  13    6174    1744
  -4  -4 -13    5916    1409
  -4  -4  13    6980    1676
  -5  -5  13     889    1258
  -5  -5 -13     470    1000
  -6  -6  13     948     902
  -6  -6 -13    2878    1236
  -7  -7  13    5421    1647
  -7  -7 -13    6656    1577
  -8  -8  13     941     910
  -8  -8 -13    1712    1030
  -9  -9  13    3907    1484
  -9  -9 -13     135     824
 -10 -10 -13     270     823
 -10 -10  13     267     958
 -11 -11 -13     181    1015
 -11 -11  13    1232    1243
 -12 -12  13     271    1102
 -12 -12 -13    2095    1295
 -13 -13  13      49    1193
 -13 -13 -13     547    1248
   1   1 -14   25610    2082
  -1  -1  14   26420    3145
   1   1  14   23734    2764
  -1  -1 -14   33752    2525
  -2  -2 -14   20777    2329
   2   2  14   22809    2880
  -2  -2  14   23664    3318
  -3  -3  14   14219    2416
  -3  -3 -14   17917    2207
  -4  -4  14   30246    3408
  -4  -4 -14   34033    2661
  -5  -5  14   21887    3202
  -5  -5 -14   19655    2615
  -6  -6  14   13213    2586
  -6  -6 -14   11022    2083
  -7  -7  14    4402    1283
  -7  -7 -14    5381    1340
  -8  -8 -14    8334    2090
  -8  -8  14    4816    1717
  -9  -9 -14    7021    2326
  -9  -9  14    7317    2667
 -10 -10 -14    6984    2017
 -10 -10  14    7237    2204
 -11 -11 -14    7624    1909
 -11 -11  14    4198    1953
 -12 -12  14    5856    2359
 -12 -12 -14    3823    1663
  -1  -1 -15   10192    1767
   1   1  15    9605    1961
  -2  -2 -15    5150    1681
  -2  -2  15    3735    1652
  -3  -3 -15     901     818
  -3  -3  15    1034     848
  -4  -4 -15     610     811
  -4  -4  15     370     985
  -5  -5 -15    1112     882
  -5  -5  15     758    1049
  -6  -6 -15    2732    1418
  -6  -6  15    1991    1356
  -7  -7 -15    1861     999
  -7  -7  15     522     945
  -8  -8 -15    1762    1246
  -8  -8  15     121     943
  -9  -9 -15     913    1247
  -9  -9  15      23    1099
 -10 -10 -15    1382    1445
 -10 -10  15     170    1256
 -11 -11  15      87    1287
 -12 -12  15    1342    2036
   0   0  16   12171    2346
  -1  -1  16    7496    1974
  -1  -1 -16   13549    2062
  -2  -2 -16   15729    2355
  -3  -3 -16   18877    2415
  -4  -4 -16   11583    2249
  -5  -5 -16    6978    1799
  -5  -5  16    6958    1946
  -6  -6 -16    7367    1665
  -6  -6  16    7115    2023
  -7  -7 -16    8632    2397
  -7  -7  16    6743    2277
  -8  -8 -16     692    1149
  -8  -8  16    7755    2019
  -9  -9  16    4033    1785
  -9  -9 -16      42    1185
 -10 -10  16    3545    2127
 -11 -11  16    2934    2410
  -1  -1  17     169    1047
  -2  -2 -17    1750    1092
  -2  -2  17      57    1071
  -3  -3 -17     273     809
  -4  -4 -17    1112    1112
  -5  -5 -17    1748    1043
  -6  -6 -17       4    1038
  -7  -7 -17     323    1228
  -8  -8 -17      25    1367
  -1  -1  18    8933    2140
  -2  -2  18    8342    2095
  -3  -3  18   23274    4531
  -4  -4  18   10411    2770
  -4  -4 -18   15246    2507
  -5  -5 -18    9193    2057
  -6  -6 -18    5081    2045
  -7  -7 -18     718    1576
  -2  -2  19       2    1468
  -3  -3  19     150    1450
  -4  -4 -19     382    1183
  -4  -4  19     810    1614
  -5  -5 -19    2135    1799
  -5  -5  19     174    1508
  -3  -3  20     620    3005
 -16 -18   0     762    1186
 -15 -17   0    2306    1352
 -14 -16   0    1586    1213
 -13 -15   0    9995    2518
 -12 -14   0      50     898
 -11 -13   0    6773    1961
 -10 -12   0   11347    1973
  -9 -11   0   21353    2318
  -9 -11   0   21025    1479
  -8 -10   0   39739    2090
  -8 -10   0   45356    2880
  -7  -9   0  123584    5122
  -7  -9   0  129550    6104
  -6  -8   0  101086    4075
  -6  -8   0  108295    4936
  -5  -7   0   83673    4332
  -5  -7   0   77566    3621
  -4  -6   0   77841    2217
  -4  -6   0   77915    2687
  -3  -5   0    3933    1543
  -3  -5   0    4092    1249
  -2  -4   0   41230     665
  -2  -4   0   42379     838
  -1  -3   0   73063    1499
  -1  -3   0   73914    1682
   1  -1   0 1828754   16111
  -1   1   0 1812696   16680
  -3  -1   0  154965     399
  -3  -1   0  146386     443
  -4  -2   0   41845    3928
  -4  -2   0   46907    3547
  -5  -3   0  104960    5576
  -5  -3   0   95828    4915
  -6  -4   0   37987     960
  -6  -4   0   43266    1376
  -7  -5   0   32584    1914
  -7  -5   0   30343    2394
  -8  -6   0   30850    1733
  -8  -6   0   33466    2346
  -9  -7   0    7142    1026
  -9  -7   0    8345     750
 -10  -8   0   14628    1925
 -10  -8   0   10123    1085
 -11  -9   0    6412    1189
 -11  -9   0    4336    1656
 -12 -10   0    1405     963
 -13 -11   0   12539    1900
 -14 -12   0    3014    1268
 -15 -13   0    8693    1933
 -16 -14   0     286    1048
 -17 -15   0    1187    1333
 -18 -16   0      54    1299
 -16 -18  -1     768    1164
 -16 -18   1      30    1134
 -15 -17   1      25    1147
 -15 -17  -1    2030    1205
 -14 -16  -1    1129    1078
 -14 -16   1    1287    1170
 -13 -15  -1     126     998
 -13 -15   1      91     928
 -12 -14  -1    2301     964
 -12 -14   1    1748    1052
 -11 -13   1     206     879
 -11 -13  -1     196     764
 -10 -12   1     821     995
 -10 -12  -1     270     707
 -10 -12  -1     724     664
  -9 -11   1    1863    1149
  -9 -11   1    2934     774
  -9 -11  -1    2137     754
  -9 -11  -1    3745    1275
  -8 -10   1    4115    1228
  -8 -10  -1    2381     880
  -8 -10  -1    2950     745
  -8 -10   1    4269     749
  -7  -9  -1    5981    1418
  -7  -9   1    7965     994
  -7  -9  -1    6019    1044
  -7  -9   1    9874    1743
  -6  -8   1   11340    1434
  -6  -8   1   10521     844
  -6  -8  -1    9505     960
  -6  -8  -1    9721    1213
  -5  -7   1    5086    1313
  -5  -7  -1    4477    1169
  -5  -7  -1    4466     907
  -5  -7   1    5249     829
  -4  -6  -1    9811    1234
  -4  -6  -1    8283     997
  -4  -6   1   10770    1412
  -4  -6   1    6769     793
  -3  -5   1    4577     960
  -3  -5  -1    4182     814
  -3  -5  -1    4493     753
  -3  -5   1    3599     563
  -2  -4  -1   68408    3042
  -2  -4   1   74962    3516
  -2  -4   1   71384    2866
  -1  -3  -1  531122    8974
  -1  -3   1  527334    8861
  -1  -3   1  557774    9592
   1  -1   1  207286     622
  -1   1   1  208156     555
  -3  -1   1  474548    9721
  -3  -1  -1  486097    8831
  -3  -1  -1  481037    9657
   3   1  -1  489488    9268
  -3  -1  -1  484109    9295
  -4  -2  -1    2731    1699
  -4  -2  -1    3016    1546
  -4  -2   1    2705    1795
  -5  -3   1   37048    1977
  -5  -3  -1   37761    2247
  -5  -3  -1   36981    2515
  -5  -3   1   38355    2669
  -6  -4   1   21333    1224
  -6  -4   1   20871     652
  -6  -4  -1   21508    1128
  -6  -4  -1   19162     829
  -7  -5   1    1310     607
  -7  -5  -1    1100     764
  -7  -5  -1    1094    1021
  -7  -5   1    1846    1208
  -8  -6  -1   20019    1124
  -8  -6   1   22099    1778
  -8  -6   1   21029     984
  -8  -6  -1   20449    1623
  -9  -7  -1     141     716
  -9  -7   1     314     452
  -9  -7  -1    1023     662
  -9  -7   1     191     804
 -10  -8  -1      33     630
 -10  -8   1      96     740
 -10  -8  -1    1164     571
 -10  -8   1     373     402
 -11  -9  -1      76     493
 -11  -9  -1     461     779
 -11  -9   1      25     751
 -12 -10   1    4866    1523
 -12 -10  -1    5467    1588
 -12 -10  -1    5578    1102
 -13 -11   1    1949    1187
 -13 -11  -1    2969    1276
 -14 -12  -1     230     949
 -14 -12   1     704     931
 -15 -13   1     439     963
 -15 -13  -1     406     772
 -16 -14   1     518    1281
 -16 -14  -1     953    1166
 -17 -15  -1      67    1170
 -17 -15   1     463    1326
 -18 -16  -1     482    1433
 -18 -16   1      45    1386
 -16 -18  -2    1455    1238
 -16 -18   2     582    1220
 -15 -17   2    1629    1395
 -15 -17  -2    3190    1485
 -14 -16  -2    4491    1360
 -14 -16   2    4176    1368
 -13 -15  -2    6110    1965
 -13 -15   2    5653    1939
 -12 -14  -2   13228    2461
 -12 -14   2   10110    2412
 -11 -13  -2   16493    1701
 -11 -13  -2   12329    2226
 -11 -13   2   16546    2676
 -10 -12   2    9333    2319
 -10 -12  -2    8456    1574
 -10 -12  -2    8008    1962
  -9 -11   2   13489    2280
  -9 -11  -2   14540    2042
  -9 -11  -2   15115    1529
  -8 -10  -2   26567    1762
  -8 -10   2   25764    2177
  -8 -10  -2   27158    2011
  -8 -10   2   26022    1362
  -7  -9  -2   31714    2429
  -7  -9   2   30363    2624
  -7  -9   2   35250    1826
  -7  -9  -2   30237    2137
  -6  -8   2   85393    4295
  -6  -8   2   87828    3205
  -6  -8  -2   90029    3982
  -6  -8  -2   93587    3797
  -5  -7  -2  120877    5204
  -5  -7   2  120362    4662
  -5  -7  -2  113746    5347
  -5  -7   2  122553    5917
  -4  -6   2   38587    2107
  -4  -6  -2   38968    1718
  -4  -6  -2   39311    1738
  -4  -6   2   38915    1364
  -3  -5   2   67604    2235
  -3  -5  -2   69354    2661
  -3  -5   2   65927    3051
  -2  -4   2  206448    9334
  -2  -4   2  215430   10418
  -2  -4  -2  212659    9703
  -1  -3  -2  571500   11428
  -1  -3   2  571260   11143
   1   3   2  585103   10629
  -1  -3   2  584635   12064
  -1  -3  -2  569699   11299
   0  -2  -2  805221   10850
   0  -2   2  829952   10779
   0   2   2  851205   10266
   0  -2  -2  795320   10630
  -1   1   2  180244   13101
  -1   1   2  187964   12311
  -2   0  -2  791400    6903
  -2   0   2  769433    7117
  -2   0  -2  779197    7091
   2   0  -2  773698    6659
  -3  -1   2  282725    5832
  -3  -1  -2  297467    5732
  -3  -1  -2  294144    5570
  -4  -2   2  111470    6943
  -4  -2  -2  101577    6654
  -4  -2  -2   96493    6402
  -5  -3  -2   47669    1723
  -5  -3   2   53017    2016
  -5  -3  -2   45033    1606
  -6  -4  -2   68189    2790
  -6  -4   2   78880    3170
  -6  -4  -2   67822    2584
  -7  -5   2   42217    2824
  -7  -5  -2   37424    2529
  -7  -5   2   40504    1833
  -7  -5  -2   41784    2355
  -8  -6  -2   56317    3097
  -8  -6  -2   50773    2682
  -8  -6   2   50100    2155
  -8  -6   2   51729    3232
  -9  -7  -2   49284    2964
  -9  -7   2   48989    2088
  -9  -7  -2   49228    2563
  -9  -7   2   44316    3066
 -10  -8   2   15197    1996
 -10  -8  -2   15014    1406
 -10  -8  -2   15719    1820
 -11  -9   2   10310    2021
 -11  -9  -2   10547    1896
 -11  -9  -2   12778    1542
 -12 -10  -2    8989    1354
 -12 -10   2    7517    1809
 -12 -10  -2    7939    1710
 -13 -11   2    4965    1343
 -13 -11  -2    4894    1187
 -14 -12   2    4570    1770
 -14 -12  -2    5418    1662
 -15 -13   2    3370    1626
 -15 -13  -2    4316    1539
 -16 -14   2    2367    1313
 -16 -14  -2    1717    1222
 -17 -15  -2    2631    1528
 -17 -15   2     648    1168
 -18 -16  -2     104    1286
 -18 -16   2    1211    1563
 -16 -18   3      20    1314
 -16 -18  -3    2366    1176
 -15 -17   3     475    1226
 -15 -17  -3    1304     976
 -14 -16  -3     802     921
 -14 -16   3     641    1167
 -13 -15  -3     367     702
 -13 -15   3      94     969
 -12 -14   3     677    1183
 -12 -14  -3    1909    1224
 -12 -14  -3     900     968
 -11 -13   3    1666    1286
 -11 -13  -3    1300     767
 -11 -13  -3    1472     882
 -10 -12   3     534     825
 -10 -12  -3     621     749
 -10 -12  -3     496     648
  -9 -11  -3     505     827
  -9 -11   3     132     876
  -9 -11  -3      76     657
  -8 -10  -3    5596    1072
  -8 -10  -3    3868     980
  -8 -10   3    5949    1346
  -7  -9  -3   14388    1536
  -7  -9   3   16506    2227
  -7  -9   3   15500    1023
  -7  -9  -3   14478    1479
  -6  -8   3    4627     620
  -6  -8  -3    3376     998
  -6  -8   3    3805    1390
  -6  -8  -3    3764    1040
  -5  -7   3    6110    1234
  -5  -7  -3    6493    1042
  -5  -7   3    6073     536
  -5  -7  -3    5946     930
  -4  -6   3   31959    1920
  -4  -6  -3   27269    1494
  -3  -5   3   37800    1427
  -3  -5   3   36088    2205
  -3  -5  -3   38011    1879
  -2  -4  -3   10224    1061
   2   4   3   10373     928
  -2  -4   3   10205     966
  -2  -4  -3   10768    1182
  -2  -4   3   10280    1482
   1   3   3   16821    2860
  -1  -3   3   17336    3587
  -1  -3  -3   14969    3059
  -1  -3   3   16037    2956
  -1  -3  -3   15298    2835
  -1   1   3   12896    1065
  -1   1  -3   11734     858
  -3  -1   3   12054    2446
  -3  -1  -3   11670    2244
  -3  -1  -3    9902    2183
  -4  -2  -3   14195    4225
  -4  -2  -3   13429    4156
  -4  -2   3   14467    4500
  -5  -3  -3    3521    1356
  -5  -3  -3    4736    1440
  -5  -3   3    3965    1593
  -6  -4   3   22058    2077
  -6  -4  -3   20064    1796
  -6  -4  -3   22558    1773
  -7  -5   3   21495    1758
  -7  -5  -3   24671    1615
  -7  -5  -3   21104    1431
  -8  -6   3    2330     945
  -8  -6  -3    1376     650
  -8  -6  -3    1387     663
  -9  -7   3    1168     861
  -9  -7  -3    2578     850
  -9  -7  -3    2190     717
 -10  -8   3      80     728
 -10  -8  -3    1924     677
 -10  -8  -3    4056    1045
 -11  -9  -3    2544     868
 -11  -9   3    1357     980
 -11  -9  -3     545     753
 -12 -10  -3     734     810
 -12 -10   3     245     774
 -12 -10  -3     591     617
 -13 -11  -3     827     951
 -13 -11  -3     887     695
 -13 -11   3      23     630
 -14 -12   3    3203    1599
 -14 -12  -3     949    1068
 -15 -13   3    1530    1170
 -15 -13  -3     588     903
 -16 -14   3    1036    1262
 -16 -14  -3     302     887
 -17 -15  -3     513    1103
 -17 -15   3     207    1286
 -18 -16   3     208    1653
 -18 -16  -3    1275    1619
 -16 -18   4     431    1478
 -16 -18  -4    2314    1394
 -15 -17   4    1050    1343
 -15 -17  -4    1761    1122
 -14 -16  -4     694     801
 -14 -16   4    1358    1110
 -13 -15  -4    6031    1608
 -13 -15   4    6160    1960
 -12 -14  -4    5080    1715
 -12 -14  -4    5503    1680
 -12 -14   4    7328    2374
 -11 -13  -4    9876    1482
 -11 -13   4    5358    1676
 -11 -13  -4    9925    1744
 -10 -12  -4   16304    1912
 -10 -12  -4   15662    2351
 -10 -12   4   16176    2835
  -9 -11  -4    9574    2320
  -9 -11   4   16206    2848
  -9 -11  -4   12234    2044
  -8 -10  -4    6149    1205
  -8 -10  -4    5593    1113
  -8 -10   4    6414    1488
  -7  -9  -4   33284    2006
  -7  -9  -4   30353    1976
  -7  -9   4   26696    2183
  -6  -8  -4     788     501
  -6  -8  -4    1488     484
  -6  -8   4    2539     884
  -5  -7  -4   54799    2725
  -5  -7   4   58967    3340
  -4  -6  -4  160214    6106
  -4  -6   4  166640    6874
  -3  -5   4  289178    7834
   3   5   4  289832    7587
  -3  -5  -4  281123    8531
  -3  -5  -4  284696    8430
  -3  -5   4  291552    9381
  -2  -4  -4  143783    4073
  -2  -4  -4  137866    4329
  -2  -4   4  141919    3953
   2   4   4  141786    3846
  -2  -4   4  136588    4855
   1   3   4    5534    1115
  -1  -3   4    5448    1060
  -1  -3   4    6335    1562
  -1  -3  -4    7857    1049
  -1  -3   4    5911    1226
  -1  -3  -4    7890    1349
   0   2  -4   94363    6938
   0  -2  -4  100947    7180
   0   2   4   97056    7115
   2   0  -4  275402   13496
  -2   0  -4  260337   13750
  -2   0   4  286487   14391
  -3  -1  -4   92970    2671
  -3  -1  -4   93559    2626
  -3  -1   4   89500    2838
   3   1  -4   93346    2179
  -4  -2  -4  231854    7700
   4   2   4  223648    6620
  -4  -2  -4  230300    7624
  -4  -2   4  213948    8016
  -5  -3  -4  219241    6743
  -5  -3  -4  220421    6661
  -5  -3   4  210491    7093
  -6  -4  -4   74598    2985
  -6  -4  -4   70954    2972
  -6  -4   4   66656    3226
  -7  -5  -4  118798    4795
  -7  -5   4  121653    5264
  -7  -5  -4  120411    4699
  -8  -6  -4   12360    1573
  -8  -6  -4   10190    1452
  -8  -6   4   13238    1803
  -9  -7  -4    3511     884
  -9  -7   4    4329    1044
  -9  -7  -4    1093     750
 -10  -8  -4    6829    1174
 -10  -8   4    5584    1218
 -10  -8  -4    6778    1129
 -11  -9  -4   32973    2271
 -11  -9  -4   35449    2586
 -11  -9   4   27716    2604
 -12 -10  -4   13596    1897
 -12 -10   4   14146    2375
 -12 -10  -4   16091    1827
 -13 -11   4   20722    2973
 -13 -11  -4   20303    2643
 -13 -11  -4   20292    1950
 -14 -12   4    7738    1920
 -14 -12  -4   13682    2299
 -14 -12  -4   15211    1978
 -15 -13  -4    3186    1218
 -15 -13   4    3300    1209
 -16 -14  -4    3231    1357
 -16 -14   4    1269    1080
 -17 -15  -4    1492    1222
 -17 -15   4      10    1046
 -18 -16  -4       5    1412
 -16 -18  -5      29    1063
 -15 -17  -5    1198    1125
 -15 -17   5     463    1116
 -14 -16  -5     184     743
 -14 -16   5     177    1193
 -13 -15  -5    1674     995
 -13 -15   5    1924    1396
 -13 -15  -5    1559    1180
 -12 -14  -5     281     847
 -12 -14   5     477    1210
 -12 -14  -5     327     970
 -11 -13  -5    4540    1478
 -11 -13  -5    3250    1374
 -11 -13   5    1642    1261
 -10 -12   5    1246    1204
 -10 -12  -5    1396     974
 -10 -12  -5    2602    1246
  -9 -11   5     887     937
  -9 -11  -5    1730     929
  -9 -11  -5    1039     744
  -8 -10  -5    2515     867
  -8 -10   5    2454    1115
  -8 -10  -5    3624    1107
  -7  -9  -5    4652     727
  -7  -9  -5    8531    1134
  -7  -9   5    6600    1101
  -6  -8  -5    9775    1622
  -6  -8   5    8518    1966
  -5  -7  -5   12261    1514
  -5  -7   5   15020    2213
  -4  -6   5    1992     920
  -4  -6  -5    3067     934
   4   6   5    1976     450
  -4  -6  -5    2997     758
  -3  -5  -5   41171    1872
  -3  -5  -5   38119    1567
  -3  -5   5   41667    2257
   3   5   5   43538    1469
  -3  -5   5   40312    1409
  -2  -4  -5   28925    1092
   2   4   5   28226    1129
  -2  -4   5   28003    1635
  -2  -4   5   28887    1176
  -2  -4  -5   27260    1356
  -1  -3   5    2591     543
   1   3   5    2876     395
  -1  -3  -5    1974     550
  -1  -3   5    4381     446
  -1  -3   5    3435     360
  -1   1  -5     219     494
  -3  -1   5   18429    1112
  -3  -1  -5   22939    1165
   3   1  -5   19647     719
  -4  -2  -5   41324    2317
  -4  -2  -5   40019    2173
  -4  -2   5   40450    2491
  -5  -3  -5   16834    1198
  -5  -3  -5   15247    1249
   5   3   5   14752     573
  -5  -3   5   16428    1464
  -6  -4   5    1886     806
  -6  -4  -5    1393     738
  -6  -4  -5    1936     693
  -7  -5  -5   16439    1449
  -7  -5   5   18695    2135
  -7  -5  -5   15298    1490
  -8  -6   5    7120    1720
  -8  -6  -5    6450    1364
  -8  -6  -5    7766    1463
  -9  -7  -5    2549     865
  -9  -7  -5    2182     914
  -9  -7   5    1745     845
 -10  -8  -5    1444     953
 -10  -8   5    1481    1072
 -10  -8  -5    2656    1096
 -11  -9  -5     901     743
 -11  -9  -5    1461     792
 -11  -9   5     423     746
 -12 -10  -5    4872    1495
 -12 -10   5    2761    1519
 -12 -10  -5    4082    1509
 -13 -11   5    2003    1069
 -13 -11  -5    1742     925
 -13 -11  -5    1745     920
 -14 -12  -5    3014     931
 -14 -12   5    2219    1124
 -14 -12  -5     142     693
 -15 -13  -5     840     912
 -15 -13   5    1495    1021
 -16 -14  -5    1882    1141
 -16 -14   5    1191     961
 -17 -15   5     507    1094
 -17 -15  -5      75    1126
 -18 -16  -5      33    1568
 -16 -18  -6    1665    1516
 -15 -17   6       5    1173
 -15 -17  -6    1940    1233
 -14 -16   6    3856    1834
 -14 -16  -6    2393    1170
 -13 -15  -6    3848    1313
 -13 -15   6    3198    1458
 -13 -15  -6    4518    1456
 -12 -14  -6    8642    1775
 -12 -14  -6    7212    1651
 -12 -14   6    6123    2043
 -11 -13  -6   11802    1630
 -11 -13   6   11414    1913
 -11 -13  -6   14872    1856
 -10 -12  -6   21983    2372
 -10 -12   6   19088    3244
 -10 -12  -6   15811    2087
  -9 -11   6   23345    3055
  -9 -11  -6   27898    2643
  -9 -11  -6   29160    2784
  -8 -10   6   19072    2732
  -8 -10  -6   16272    2116
  -8 -10  -6   18265    1747
  -7  -9   6   17483    2784
  -7  -9  -6   12841    1761
  -6  -8  -6   35485    2479
  -6  -8   6   37201    2923
  -5  -7  -6   40985    2318
  -5  -7  -6   34878    1874
  -5  -7   6   38295    2657
  -4  -6   6  117187    4962
   4   6   6  122343    3511
  -4  -6  -6  118519    4348
  -4  -6  -6  128514    4055
   3   5   6   98260    3662
  -3  -5  -6   98037    3914
  -3  -5  -6   98837    4290
  -3  -5   6   93744    4871
  -3  -5   6   98073    3704
   2   4   6  117382    3595
  -2  -4   6  112503    3677
  -2  -4  -6  117639    3926
  -2  -4   6  118225    4534
  -2  -4  -6  117504    3558
  -2  -4   6  117824    3420
  -1  -3   6   47069    2800
  -1  -3  -6   46108    2296
   1   3   6   46599    2260
   0   2   6   24070    1786
   0  -2  -6   26434    1673
   0   2  -6   26123    1516
  -1   1  -6    9231     996
  -2   0  -6  100023    4196
   2   0  -6  103087    3923
  -2   0   6   97672    4467
  -3  -1  -6   90416    3724
  -3  -1   6   85217    3972
   3   1  -6   92936    3226
  -4  -2  -6  242617    7984
   4   2  -6  239833    7064
  -4  -2  -6  233086    7908
  -4  -2   6  235485    8431
  -5  -3  -6  207925    7512
   5   3   6  219767    6396
  -5  -3   6  216851    8141
  -5  -3  -6  208760    7488
  -6  -4  -6   68646    3034
  -6  -4   6   67845    3505
  -6  -4  -6   63492    3090
  -7  -5  -6   13830    1450
  -7  -5  -6   13921    1592
  -7  -5   6   13340    1867
  -8  -6  -6   20145    1694
  -8  -6  -6   23463    1890
  -8  -6   6   22531    2465
  -9  -7   6   23294    2236
  -9  -7  -6   25012    1970
  -9  -7  -6   25930    2059
 -10  -8  -6   47909    3238
 -10  -8  -6   49897    3196
 -10  -8   6   42667    3549
 -11  -9  -6   21855    2298
 -11  -9  -6   23672    2266
 -11  -9   6   22039    2737
 -12 -10  -6   23411    2374
 -12 -10   6   24967    3241
 -12 -10  -6   27821    2367
 -13 -11   6    8093    1870
 -13 -11  -6   10303    1869
 -13 -11  -6   11431    1899
 -14 -12  -6    3823    1305
 -14 -12  -6    4145    1242
 -14 -12   6    4094    1411
 -15 -13   6    2144    1186
 -15 -13  -6    1026    1075
 -15 -13  -6    3820    1347
 -16 -14  -6    1631    1209
 -16 -14   6    2230    1116
 -17 -15   6    1087    1043
 -17 -15  -6    1778    1327
 -18 -16  -6     590    1769
 -15 -17   7     193     958
 -15 -17  -7    1088    1207
 -14 -16   7    1207    1170
 -14 -16  -7    1313    1131
 -14 -16  -7     863     914
 -13 -15   7     555    1055
 -13 -15  -7    1747     934
 -13 -15  -7     337    1075
 -12 -14  -7    1872    1096
 -12 -14  -7    1034    1189
 -12 -14   7    1146    1167
 -11 -13   7    3338    1074
 -11 -13  -7    8584    1564
 -11 -13  -7    7340    1465
 -10 -12   7    1851     973
 -10 -12  -7    3250     990
 -10 -12  -7    3737     987
  -9 -11   7     379     886
  -9 -11  -7     743     677
  -9 -11  -7     795     830
  -8 -10   7    2547    1777
  -8 -10  -7    7828    2043
  -7  -9  -7    7135    1460
  -7  -9   7    6025    1622
  -6  -8   7    1778     904
  -6  -8  -7    2123     650
  -6  -8  -7    2413     895
   5   7   7     617     378
  -5  -7   7     511     846
  -5  -7  -7    1118     602
  -5  -7  -7     970     812
   4   6   7    6536    1235
  -4  -6  -7    7014    1772
  -4  -6  -7    6665    1417
  -4  -6   7    8447    2535
  -3  -5  -7   10763    1287
  -3  -5   7   11270    1309
   3   5   7   10734    1243
  -3  -5  -7   10198    1625
  -3  -5   7   12409    1987
  -2  -4  -7   11668    1534
  -2  -4   7   13104    2164
  -2  -4   7   12642    1323
   2   4   7   10385    1284
  -2  -4   7   12355    1434
   1   3   7   11069    1431
  -1  -3  -7   10606    1395
  -1  -3   7    9455    1736
  -3  -1  -7   16110    1604
   3   1  -7   17716    1310
  -3  -1   7   15624    1748
  -4  -2   7    1093     469
  -4  -2  -7    1086     548
   4   2  -7     925     325
  -5  -3  -7    5486    1115
  -5  -3   7    3767    1179
   5   3   7    5649     781
  -5  -3  -7    6880    1366
   6   4   7    3650     555
  -6  -4   7    4019    1465
  -6  -4  -7    5051    1234
  -6  -4  -7    3966    1289
  -7  -5  -7     103     564
  -7  -5  -7      91     497
  -7  -5   7     115     758
  -8  -6  -7     197     687
  -8  -6  -7    1020     440
  -8  -6   7     394     672
  -9  -7  -7    2683     981
  -9  -7  -7    3043    1105
  -9  -7   7    1955    1081
 -10  -8  -7    2041     942
 -10  -8  -7    1545     877
 -10  -8   7    1618    1127
 -11  -9   7     266     661
 -11  -9  -7     779     880
 -11  -9  -7      41     614
 -12 -10   7    1047    1032
 -12 -10  -7      48     748
 -12 -10  -7      35     738
 -13 -11  -7     914     876
 -13 -11   7    1184     947
 -13 -11  -7     993     720
 -14 -12  -7       5     874
 -14 -12   7       4     884
 -14 -12  -7       5     709
 -15 -13  -7     549    1022
 -15 -13   7     235     783
 -15 -13  -7     759     884
 -16 -14   7     431     789
 -16 -14  -7    1143     990
 -17 -15   7    1316    1104
 -17 -15  -7    2156    1351
 -14 -16  -8    1519    1265
 -14 -16   8    4267    1671
 -13 -15  -8    2188     994
 -13 -15   8    3549    1436
 -13 -15  -8    3944    1241
 -12 -14  -8    5758    1490
 -12 -14   8    5194    1848
 -12 -14  -8    6275    1566
 -11 -13  -8    5372    1220
 -11 -13   8    3978    1235
 -11 -13  -8    5278    1261
 -10 -12  -8    9040    1779
 -10 -12   8    7789    2066
 -10 -12  -8    8254    1663
  -9 -11   8   11035    2631
  -9 -11  -8   13957    2355
  -8 -10  -8   23159    2653
  -8 -10   8   18521    2960
  -7  -9   8   23999    3154
  -7  -9  -8   22438    1943
  -7  -9  -8   23968    2300
  -6  -8  -8   38213    2665
  -6  -8   8   37142    3542
  -6  -8  -8   41218    3095
  -5  -7  -8   48550    2404
  -5  -7  -8   51546    2837
  -5  -7   8   50736    3347
  -4  -6  -8   16471    1642
  -4  -6   8   18632    1055
   4   6   8   17629    1049
  -4  -6  -8   16913    1315
  -4  -6   8   18506    2121
  -3  -5   8   56118    3484
  -3  -5  -8   52384    2863
   3   5   8   50964    2431
  -3  -5   8   54624    2529
   2   4   8  135007    5102
  -2  -4  -8  138882    5429
  -2  -4   8  137023    4949
  -2  -4   8  131886    6165
  -2  -4   8  137471    5378
   1   3   8  133320    5320
  -1  -3   8  123525    5989
  -1  -3  -8  119521    5137
   1   3  -8  124756    4726
   0   2  -8  245049    9366
   0  -2  -8  240880    9594
   0   2   8  243289    9815
  -2   0  -8   91755    3959
   2   0  -8   92579    3697
  -2   0   8   87494    4300
   3   1  -8   76499    2804
  -3  -1   8   72433    3511
  -3  -1  -8   71276    3182
  -4  -2  -8   52074    3152
  -4  -2   8   56447    3576
   4   2  -8   56071    2538
   5   3   8   47945    2173
  -5  -3  -8   45845    2716
  -5  -3   8   43977    2955
   5   3  -8   43974    1796
  -6  -4   8   39189    2670
  -6  -4  -8   43111    2496
  -6  -4  -8   41501    2269
  -7  -5  -8   47013    3069
  -7  -5   8   46590    3646
  -7  -5  -8   47501    3216
  -8  -6  -8   31068    2218
  -8  -6  -8   28444    2012
  -8  -6   8   29319    2481
  -9  -7  -8   27707    2250
  -9  -7  -8   26607    2145
  -9  -7   8   29052    3152
 -10  -8   8   15518    2441
 -10  -8  -8   14483    2063
 -10  -8  -8   10750    1697
 -11  -9   8    4653    1500
 -11  -9  -8    5533    1327
 -11  -9  -8    4815    1305
 -12 -10  -8    5369    1393
 -12 -10  -8    2315    1038
 -12 -10   8    3763    1616
 -13 -11   8    1722    1085
 -13 -11  -8    1243     938
 -13 -11  -8    1350     933
 -14 -12  -8    8647    1726
 -14 -12  -8    3836    1384
 -14 -12   8    3902    1562
 -15 -13  -8    2488    1229
 -15 -13   8      95    1002
 -16 -14   8    1620    1059
 -16 -14  -8    2963    1122
 -16 -14  -8    3150    1210
 -17 -15  -8    3729    1878
 -15 -17  -9      15    1915
 -14 -16   9     783    1153
 -14 -16  -9      26    1201
 -13 -15  -9     271    1060
 -13 -15   9    2303    1194
 -12 -14   9     557    1035
 -12 -14  -9    1183    1060
 -11 -13   9    1619    1154
 -11 -13  -9     314    1047
 -11 -13  -9    1104     807
 -10 -12   9    1640     935
 -10 -12  -9    2081     991
 -10 -12  -9     267     469
  -9 -11  -9    4291    1407
  -9 -11   9    3228    1446
  -9 -11  -9    2328     882
  -8 -10  -9    3408    1035
  -8 -10  -9    2968    1044
  -8 -10   9    1200    1145
  -7  -9   9    5119    1882
  -7  -9  -9    7061    1777
  -7  -9  -9    4077    1232
  -6  -8  -9    8993    1373
  -6  -8   9    8484    2028
  -6  -8  -9    8252    1653
  -5  -7  -9    3553    1026
  -5  -7  -9    6569    1628
  -5  -7   9    4796    1661
  -4  -6   9    3448    1397
  -4  -6  -9    3486    1197
   4   6   9    2932     810
   3   5   9    8110    1459
  -3  -5  -9    8829    1799
  -3  -5   9    9796    2529
  -3  -5   9    8369    1528
  -2  -4   9    2645     954
   2   4   9    4530    1143
  -2  -4   9    1148     948
  -2  -4   9    3320    1136
  -2  -4  -9    3048    1116
   1   3  -9    1978     600
   1   3   9    2860     799
  -1  -3  -9    3759     978
  -1  -3   9    1798     871
  -1   1  -9    4562     946
  -3  -1   9    3499    1115
  -3  -1  -9    3266     983
   3   1  -9    4135     816
  -4  -2   9    9603    2022
   4   2  -9    8211    1100
  -4  -2  -9   10097    1837
  -5  -3   9   13562    2191
   5   3   9   16257    1666
  -5  -3  -9   15627    2114
  -6  -4  -9    6338    1210
  -6  -4   9    4140    1036
  -7  -5   9    2590    1517
  -7  -5  -9    2994    1472
  -7  -5  -9    1908    1105
  -8  -6  -9    2211    1397
  -8  -6  -9    2812    1632
  -8  -6   9    1659    1536
  -9  -7   9     543    1018
  -9  -7  -9    1116     887
  -9  -7  -9    1291     876
 -10  -8  -9    2392     964
 -10  -8   9    4460    1388
 -10  -8  -9    1923     768
 -11  -9  -9    4577    1103
 -11  -9  -9    4289    1179
 -11  -9   9    3406    1235
 -12 -10   9    2056    1332
 -12 -10  -9     380     855
 -12 -10  -9     303     735
 -13 -11  -9     976     674
 -13 -11  -9     716     869
 -13 -11   9     656     820
 -14 -12  -9     118     651
 -14 -12  -9      76     959
 -14 -12   9     126     844
 -15 -13   9    1879    1194
 -15 -13  -9     681     942
 -16 -14  -9     315     859
 -16 -14  -9     315    1154
 -16 -14   9       8     976
 -17 -15  -9      12    1462
 -14 -16 -10    2493    1440
 -14 -16  10      51    1328
 -13 -15 -10    1404    1304
 -13 -15  10    2900    1471
 -12 -14  10    1453    1220
 -12 -14 -10    3720    1357
 -11 -13  10    3259    1511
 -11 -13 -10    4737    1388
 -10 -12  10    8408    2193
 -10 -12 -10    6067    1574
  -9 -11 -10    5048    1625
  -9 -11  10    4276    1661
  -8 -10  10   35454    3424
  -8 -10 -10   38945    2677
  -8 -10 -10   41426    3069
  -7  -9  10   36329    3598
  -7  -9 -10   33552    2519
  -7  -9 -10   33410    2881
  -6  -8  10   77316    5756
  -6  -8 -10   80537    4988
  -6  -8 -10   81636    4499
  -5  -7 -10   40222    2809
  -5  -7  10   39906    3278
  -4  -6 -10   71976    3785
  -4  -6  10   71119    4409
  -3  -5  10   34206    2985
   3   5  10   32046    2193
  -3  -5 -10   36828    2581
  -2  -4  10   16916    1660
  -2  -4  10   20025    2466
   2   4  10   16090    1710
  -2  -4 -10   16273    1799
  -2  -4  10   16409    1834
  -1  -3  10   55464    3692
   1   3 -10   54370    2649
   1   3  10   48569    3040
  -1  -3 -10   53263    3042
   0   2 -10   78240    4256
   0   2  10   95053    5121
   0  -2 -10   85163    4494
  -2   0 -10  150218    6519
  -2   0  10  141871    7049
   2   0 -10  153366    6227
  -3  -1  10   53280    3459
   3   1 -10   53556    2664
  -3  -1 -10   49674    3037
   4   2  10   31415    2132
  -4  -2  10   29020    2493
  -4  -2 -10   29694    2295
   4   2 -10   27276    1696
  -5  -3  10   15025    2178
  -5  -3 -10   11895    1793
  -6  -4  10   10115    1950
  -6  -4 -10   12101    1823
  -7  -5  10   25449    2742
  -7  -5 -10   26515    2486
  -8  -6 -10   41609    2809
  -8  -6  10   38230    3281
  -8  -6 -10   37552    2853
  -9  -7 -10   18269    2155
  -9  -7  10   14142    2543
  -9  -7 -10   16494    2320
 -10  -8 -10   28796    2812
 -10  -8 -10   27442    2235
 -10  -8  10   27792    3338
 -11  -9 -10    7984    1887
 -11  -9  10    4779    1590
 -11  -9 -10    8033    1751
 -12 -10 -10   11899    2016
 -12 -10 -10   10087    1909
 -12 -10  10    8615    2178
 -13 -11 -10    3705    1194
 -13 -11 -10    1196     856
 -13 -11  10    1241    1169
 -14 -12  10    3464    1758
 -14 -12 -10    1603    1214
 -14 -12 -10    2656    1147
 -15 -13 -10    3618    1344
 -15 -13 -10    3881    1458
 -15 -13  10    1898    1335
 -16 -14 -10    2660    1717
 -14 -16 -11       9    1340
 -13 -15 -11     340    1172
 -13 -15  11      54    1177
 -12 -14  11     152    1079
 -12 -14 -11    1122    1095
 -11 -13  11    2066    1261
 -11 -13 -11    2851    1217
 -10 -12  11    3142    1668
 -10 -12 -11    3778    1505
  -9 -11 -11    3004    1285
  -9 -11  11    4444    1507
  -8 -10  11    1810    1498
  -8 -10 -11    2093    1236
  -7  -9 -11   40738    2955
  -7  -9  11   35480    3933
  -6  -8 -11      69     699
  -6  -8  11     159     772
  -5  -7 -11    6705    1389
  -5  -7  11    7615    1761
  -4  -6  11     789     792
  -4  -6 -11     367     750
  -3  -5  11     638     884
   3   5  11     803     637
  -3  -5 -11    1210     935
  -2  -4 -11    1652     873
  -2  -4  11    4287    1308
  -2  -4  11    1558    1007
  -2  -4  11    2149     809
   2   4  11    2487     839
  -1  -3 -11    1815     844
   1   3 -11     185     493
  -1  -3  11     406     777
   1   3  11     386     700
  -1   1  11    2781    1254
  -1   1 -11    4697    1312
  -3  -1 -11    3494     917
  -3  -1  11    1967     815
   3   1 -11    3154     687
  -4  -2 -11    1873     972
   4   2  11     506     676
  -4  -2  11     716     648
  -5  -3  11    1080    1095
  -5  -3 -11    1099    1119
  -6  -4 -11   11125    2046
  -6  -4  11    5833    1796
  -7  -5  11   11286    2508
  -7  -5 -11   11476    2222
  -8  -6  11    2816    1642
  -8  -6 -11    4115    1782
  -9  -7 -11   11631    1882
  -9  -7  11    6826    1957
  -9  -7 -11    7791    1848
 -10  -8  11    6019    1605
 -10  -8 -11    4447    1171
 -10  -8 -11    5132    1340
 -11  -9 -11    3754    1632
 -11  -9  11    2419    1613
 -11  -9 -11    3713    1557
 -12 -10 -11    2022    1112
 -12 -10 -11     737     992
 -12 -10  11     660    1317
 -13 -11 -11      88     773
 -13 -11 -11     353    1008
 -13 -11  11     890    1121
 -15 -13 -11     237    1168
 -15 -13  11     132    1063
 -13 -15 -12    3558    1640
 -12 -14  12    4908    1854
 -12 -14 -12    2950    1367
 -11 -13 -12    7936    1711
 -11 -13  12    7746    2387
 -10 -12  12    8572    2240
 -10 -12 -12    7769    1592
  -9 -11  12   16026    3003
  -9 -11 -12   15954    2426
  -8 -10  12    9073    2516
  -8 -10 -12    8744    2054
  -7  -9  12   12084    2215
  -7  -9 -12   18189    2435
  -6  -8 -12   27933    2894
  -6  -8  12   21690    3290
  -5  -7 -12    9215    2147
  -5  -7  12    7140    2317
  -4  -6  12   28226    3356
  -4  -6 -12   22805    2525
  -3  -5 -12   19663    2309
  -3  -5  12   26406    3136
  -2  -4 -12   36488    2957
  -2  -4  12   39945    3595
   2   4  12   44376    3109
   1   3  12   52344    3486
  -1  -3  12   48510    3853
  -1  -3 -12   47839    3195
   0   2  12   57805    4052
   0  -2 -12   61942    3739
   0   2 -12   57771    3499
  -1   1 -12   29889    2601
  -1   1  12   31609    3089
  -1   1  12   29402    3119
   2   0 -12   10343    1500
  -2   0 -12   11632    1817
  -2   0  12   10835    2073
  -3  -1  12   18417    2581
   3   1 -12   18448    1680
  -3  -1 -12   18303    2231
  -4  -2  12   25686    2708
  -4  -2 -12   26016    2480
  -5  -3  12   22951    2913
  -5  -3 -12   27008    2444
  -6  -4 -12   45687    3316
  -6  -4  12   44279    3664
  -7  -5 -12   14478    2291
  -7  -5  12   13762    2590
  -8  -6  12   26836    3542
  -8  -6 -12   24510    2877
  -9  -7  12    9584    2580
  -9  -7 -12   12474    2509
 -10  -8 -12    7831    1765
 -10  -8  12    5134    1686
 -11  -9 -12    8586    1872
 -11  -9  12    9974    2321
 -11  -9 -12   12362    2108
 -12 -10 -12    3198    1415
 -12 -10  12    4043    1554
 -13 -11 -12    5497    1548
 -13 -11  12    4439    1910
 -14 -12 -12    2238    1526
 -14 -12  12    1616    1365
 -12 -14 -13    1810    1246
 -12 -14  13     764    1239
 -11 -13 -13    1545    1195
 -11 -13  13     876    1265
 -10 -12  13     271    1303
 -10 -12 -13     194    1090
  -9 -11  13     206     863
  -9 -11 -13     614    1099
  -8 -10 -13    1217    1242
  -8 -10  13     347     874
  -7  -9 -13    1518    1307
  -7  -9  13    2118    1507
  -6  -8  13    7757    1918
  -6  -8 -13    8723    1790
  -5  -7 -13    3015    1338
  -5  -7  13    1640    1273
  -4  -6 -13     625     970
  -4  -6  13     919    1158
  -3  -5 -13    7707    1809
  -3  -5  13    8065    2148
   2   4  13     756     645
  -2  -4  13     214     837
  -2  -4 -13    1598     876
   1   3  13       2     651
  -1  -3 -13     590     742
  -1  -3  13     163     768
  -1   1  13     713     508
   1  -1 -13     277     609
  -1   1  13     249     801
  -1   1 -13     547     773
  -3  -1 -13     706     880
   3   1  13      12     623
  -3  -1  13     733     820
  -4  -2  13    6037    1601
  -4  -2 -13    5694    1476
  -5  -3  13    2685    1077
  -5  -3 -13    2515     990
  -6  -4  13     328     907
  -6  -4 -13      68     805
  -7  -5  13    1937     956
  -7  -5 -13    3591    1206
  -8  -6 -13     463     830
  -8  -6  13     243     900
  -9  -7  13    1189    1080
  -9  -7 -13    1573    1094
 -10  -8  13     580    1112
 -10  -8 -13    2106    1044
 -11  -9  13    1065    1120
 -11  -9 -13     798    1071
 -12 -10 -13     893    1123
 -12 -10  13     255    1164
 -13 -11  13     134    1125
 -13 -11 -13    1249    1086
 -14 -12  13     452    1364
 -11 -13 -14    3938    1342
 -11 -13  14    1601    1349
 -10 -12 -14    2050    1560
 -10 -12  14    1686    1501
  -9 -11  14    5661    1853
  -9 -11 -14    6388    1776
  -8 -10  14    5914    2006
  -8 -10 -14    8100    2085
  -7  -9 -14    6957    1724
  -7  -9  14    4507    1571
  -6  -8  14    5745    1558
  -6  -8 -14    9961    1969
  -5  -7 -14   20647    2852
  -5  -7  14   13795    3003
  -4  -6  14   26603    3265
  -4  -6 -14   21307    2611
  -3  -5  14   26259    3550
  -3  -5 -14   22855    2431
  -2  -4  14   14067    2667
  -2  -4 -14   17517    2274
  -1  -3 -14    8217    1680
  -1  -3  14    9737    2289
   1   3  14   10629    2012
   0  -2 -14   15239    2090
   0   2 -14   13141    1806
   0  -2  14    8161    1986
   0   2  14    6759    1711
  -1   1  14   28662    3165
  -1   1 -14   24683    2048
   1  -1 -14   27699    2111
  -2   0 -14   56564    3852
  -2   0  14   53558    4495
  -3  -1  14   27923    2818
  -3  -1  14   31870    3919
  -3  -1 -14   32525    2645
  -4  -2 -14   17867    2357
  -4  -2  14   16955    2535
  -5  -3 -14   23284    2698
  -5  -3  14   17299    2777
  -6  -4  14   11168    2250
  -6  -4 -14   14557    2322
  -7  -5 -14    5191    1566
  -7  -5  14    7398    2042
  -8  -6  14    5887    1841
  -8  -6 -14    6426    1753
  -9  -7  14   14382    2832
  -9  -7 -14   13068    2475
 -10  -8  14    7485    2049
 -10  -8 -14    7936    2145
 -11  -9  14    2970    1468
 -11  -9 -14    5658    1742
 -12 -10 -14    2982    1554
 -12 -10  14    2394    1734
 -13 -11  14    3759    1870
 -10 -12 -15      62    1337
 -10 -12  15    1411    1626
  -9 -11 -15     399    1416
  -9 -11  15      81    1115
  -8 -10 -15     142    1220
  -8 -10  15    1239    1166
  -7  -9  15      49    1158
  -7  -9 -15      50     864
  -6  -8 -15    1543    1157
  -6  -8  15    1988    1382
  -5  -7  15      96     890
  -5  -7 -15     741     905
  -4  -6 -15     187     924
  -4  -6  15     911    1349
  -3  -5  15     675     833
  -3  -5 -15     668     749
  -2  -4  15     845    1000
  -2  -4 -15     277     793
  -1  -3 -15    5641    1559
  -1  -3  15    4278    1620
  -1   1  15    7314    1775
   1  -1 -15   11150    1751
  -3  -1  15     802     958
  -3  -1 -15    1327     962
  -4  -2  15    4618    1732
  -4  -2 -15    2791    1139
  -5  -3 -15    3243     929
  -6  -4 -15      39     713
  -7  -5 -15    2284    1051
  -7  -5  15     759     963
  -8  -6  15    2480    1353
  -8  -6 -15    1689    1163
  -9  -7  15    1050    1503
  -9  -7 -15     300    1243
 -10  -8  15    2943    1414
 -10  -8 -15      40    1270
 -11  -9 -15      16    1358
 -11  -9  15    1362    1386
 -12 -10  15      48    1414
 -13 -11  15     237    2147
 -10 -12  16    2738    1960
  -9 -11  16    2326    2022
  -8 -10 -16      37    1215
  -8 -10  16    2395    1578
  -7  -9 -16     262    1307
  -7  -9  16   10893    2401
  -6  -8  16    7784    2123
  -6  -8 -16    5970    1668
  -5  -7  16    8807    2126
  -5  -7 -16    7282    1574
  -4  -6  16    4583    1704
  -4  -6 -16    5975    1545
  -3  -5 -16   12738    2172
  -3  -5  16   14162    2660
  -2  -4 -16   16729    2235
  -2  -4  16   10979    2305
  -1  -3  16   22342    3438
  -1  -3 -16   19491    2534
   0   2  16   28301    3434
   0  -2  16   37612    4315
   0  -2 -16   29755    2627
  -1   1  16   11580    2381
  -2   0 -16    2886    1198
  -2   0  16    3689    1374
  -3  -1 -16   16829    2456
  -3  -1  16   15422    2969
  -4  -2  16   17838    3165
  -4  -2 -16   21332    2617
  -5  -3 -16   10859    2015
  -5  -3  16    7847    2259
  -6  -4 -16   12495    2447
  -7  -5 -16    4559    1711
  -8  -6 -16    4047    1630
  -9  -7 -16      99    1050
 -10  -8 -16     225    1259
  -9 -11  17     880    3021
  -8 -10  17     246    1787
  -7  -9 -17     454    1284
  -7  -9  17     507    1506
  -6  -8  17    2017    1477
  -6  -8 -17    1225    1360
  -5  -7  17    1783    1276
  -5  -7 -17      65     886
  -4  -6 -17     809    1022
  -4  -6  17     437    1093
  -3  -5 -17    7605    1847
  -2  -4 -17     469     982
  -1  -3 -17       1     727
  -1   1  17    1112    1006
  -3  -1 -17    1284     876
  -3  -1  17    1692    1056
  -4  -2 -17      28     843
  -4  -2  17     850    1176
  -5  -3 -17     414     889
  -5  -3  17    1151    1307
  -6  -4  17     224    1244
  -6  -4 -17     309     951
  -7  -5  17     702    1612
  -7  -5 -17     991    1220
  -8  -6 -17     460     995
  -9  -7 -17     557    1520
  -6  -8 -18    4194    2209
  -5  -7 -18    4211    1640
  -4  -6 -18    6445    1863
  -3  -5 -18   10993    2177
  -2  -4 -18   18004    2433
  -2   0  18    8772    2644
  -3  -1  18    9106    2769
  -3  -1 -18    8509    1945
  -4  -2 -18    3034    1441
  -4  -2  18    3260    1816
  -5  -3 -18    4964    1902
  -5  -3  18    7013    2586
  -6  -4  18    7696    2450
  -7  -5 -18    4350    2085
  -7  -5  18    8085    2508
  -4  -6 -19     221    1433
  -3  -5 -19     690    1144
  -2  -4  19     327    1946
  -1  -3  19    1227    1841
  -3  -1  19      68    1266
  -4  -2 -19    1621    1198
  -4  -2  19      68    1446
  -5  -3  19    1048    1635
  -5  -3 -19    1410    1529
  -6  -4 -19     557    1742
  -2  -4  20    7586    5762
  -3  -1  20    2704    3841
 -15 -19   0     948    1332
 -14 -18   0    7373    2107
 -13 -17   0    3368    1316
 -12 -16   0   29986    2853
 -11 -15   0   11493    1991
 -10 -14   0   12336    2029
  -9 -13   0    4785    1581
  -9 -13   0    6823    1284
  -8 -12   0   18766    2590
  -8 -12   0   18009    1698
  -7 -11   0   68248    3964
  -7 -11   0   63641    3170
  -6 -10   0  187316    6739
  -6 -10   0  188948    7647
  -5  -9   0  114370    3852
  -5  -9   0  117889    4530
  -4  -8   0   68448    3337
  -4  -8   0   70751    3910
  -3  -7   0  129438    4693
  -3  -7   0  129519    5227
  -2  -6   0  216607    4205
  -2  -6   0  218064    4635
  -1  -5   0  425423   28878
   1  -3   0   74562    1676
   2  -2   0  324305   14424
  -2   2   0  313202   13604
  -2   2   0  345340   14723
  -3   1   0  151864     415
   3  -1   0  151014     504
  -4   0   0  997758   31152
  -4   0   0 1016303   28712
  -5  -1   0   32260    3844
   5   1   0   36945    4280
  -5  -1   0   30423    4183
   5   1   0   36439    3911
  -6  -2   0  100155    2774
  -6  -2   0  102872    2536
  -7  -3   0    9646     869
  -7  -3   0   11237     738
  -7  -3   0    8952     963
  -8  -4   0   72610    3879
  -8  -4   0   76146    3289
  -9  -5   0   74712    2639
  -9  -5   0   75546    3318
 -10  -6   0   10711    1025
 -10  -6   0   10291    1662
 -11  -7   0    9897    1314
 -11  -7   0   10086     903
 -12  -8   0    3065    1304
 -13  -9   0       5     709
 -14 -10   0    8531    1630
 -15 -11   0    7755    2328
 -16 -12   0    3443    1706
 -17 -13   0    2657    1520
 -18 -14   0       2    1083
 -19 -15   0     273    1517
 -16 -20  -1     277    1607
 -15 -19  -1    1171    1252
 -15 -19   1     787    1239
 -14 -18   1     101    1059
 -14 -18  -1     674    1123
 -13 -17   1    4083    1553
 -13 -17  -1    1993    1161
 -12 -16   1     544     997
 -12 -16  -1    1245    1198
 -11 -15   1    8035    2103
 -11 -15  -1    5831    1767
 -10 -14  -1    3395    1197
 -10 -14   1    1739    1140
  -9 -13  -1     652     797
  -9 -13   1    1160    1014
  -9 -13  -1     918     721
  -8 -12   1    3117     840
  -8 -12  -1    5483    1113
  -8 -12  -1    3564    1233
  -8 -12   1    1924    1133
  -7 -11   1     992     660
  -7 -11  -1    1435     842
  -7 -11   1     254     857
  -7 -11  -1    1109     919
  -6 -10  -1     490     481
  -6 -10   1     201     559
  -6 -10  -1      21     633
  -6 -10   1     990     503
  -5  -9   1   12552    1813
  -5  -9  -1   11760    1663
  -5  -9  -1   11610    1255
  -5  -9   1   10073    1073
  -4  -8  -1   13006    1515
  -4  -8   1   13128    1672
  -4  -8  -1   11748    1313
  -4  -8   1   12918    1238
  -3  -7  -1   17281    1561
  -3  -7   1   17134    1322
  -3  -7   1   17083    1739
  -3  -7  -1   17264    1441
  -2  -6  -1   35405    1348
  -2  -6   1   34456    1564
  -2  -6   1   33756    1227
  -1  -5   1   74856    3408
  -1  -5  -1   77866    3109
  -1  -5   1   74341    2959
  -1  -5  -1   74694    3065
   1  -3   1  526068    8984
   1  -3  -1  529060    8889
  -1   3   1  537484    8524
  -2   2   1   36193     596
  -2   2   1   37963     800
   2  -2   1   34850    1009
   2  -2  -1   34436     865
   3  -1   1  475451    9577
  -3   1   1  498789    9069
  -3   1  -1  465545    9502
  -3   1  -1  468774    8642
  -3   1   1  483550    9419
  -5  -1  -1   89078    4079
  -5  -1   1   85391    4754
  -5  -1  -1   84118    4432
   5   1  -1   87028    4499
  -5  -1  -1   82638    4715
   6   2  -1    7920    1844
   6   2  -1    7980    2050
  -6  -2   1    8568    2246
  -6  -2  -1    8089    2182
  -6  -2  -1    6616    1897
  -6  -2  -1    8315    1750
   7   3  -1    6112     676
  -7  -3  -1    5359     731
  -7  -3  -1    5892     607
   7   3  -1    6427     835
  -7  -3   1    5860     894
  -7  -3  -1    5518     610
  -8  -4  -1    2268     510
  -8  -4  -1     771     544
  -8  -4   1    1321     553
  -8  -4  -1     736     422
  -9  -5  -1    9170     874
  -9  -5   1   10212    1389
  -9  -5  -1   10835     994
  -9  -5  -1   12033    1395
 -10  -6   1    1737     501
 -10  -6   1    1373     855
 -10  -6  -1    2265     649
 -10  -6  -1    2505     923
 -11  -7   1      56     654
 -11  -7  -1      20     615
 -11  -7   1     667     518
 -11  -7  -1     206     483
 -12  -8  -1     496     705
 -12  -8   1     715     801
 -12  -8  -1     513     496
 -13  -9  -1     414     750
 -13  -9   1    2310    1163
 -14 -10  -1    2438    1238
 -14 -10   1     650    1072
 -15 -11   1     130     926
 -15 -11  -1     776     763
 -16 -12  -1     216     711
 -16 -12   1     214     863
 -17 -13   1     211    1241
 -17 -13  -1     209     918
 -18 -14   1     329    1199
 -18 -14  -1      34    1007
 -19 -15  -1      16    1298
 -19 -15   1     265    1451
 -16 -20  -2     841    1925
 -15 -19   2     242    1232
 -15 -19  -2    3953    1320
 -14 -18   2    1990    1325
 -14 -18  -2    4252    1606
 -13 -17  -2    2712    1326
 -13 -17   2     855    1230
 -12 -16   2    4269    1357
 -12 -16  -2    4236    1281
 -11 -15   2    6536    1866
 -11 -15  -2   11440    2153
 -10 -14  -2   13589    1653
 -10 -14   2   13993    2335
 -10 -14  -2   12625    1929
  -9 -13  -2   19374    1888
  -9 -13   2   17848    2491
  -9 -13  -2   15469    2012
  -8 -12  -2   27044    2292
  -8 -12  -2   25881    2051
  -8 -12   2   23035    2485
  -7 -11  -2   36269    2362
  -7 -11  -2   38993    2586
  -7 -11   2   36405    1900
  -7 -11   2   31677    2645
  -6 -10  -2   42756    2646
  -6 -10   2   46350    3035
  -6 -10  -2   37612    2363
  -6 -10   2   43572    2101
  -5  -9   2  106491    4105
  -5  -9   2  107211    5242
  -5  -9  -2  110631    4845
  -5  -9  -2  104855    4538
  -4  -8   2  156496    5271
  -4  -8  -2  134535    5715
  -4  -8   2  138271    6250
  -4  -8  -2  149334    5648
  -3  -7   2   58129    3180
  -3  -7   2   60206    2411
  -3  -7  -2   56032    2671
  -2  -6   2  109577    3284
  -2  -6  -2   97256    2634
  -2  -6   2  107994    2537
  -2  -6  -2   92597    2676
  -1  -5   2   93475    6282
  -1  -5   2  103748    7183
  -1  -5  -2   89469    6343
   1   5   2  101894    6075
  -1  -5  -2   86156    6416
   0  -4  -2  278244   12867
   0  -4   2  289389   12879
   0  -4   2  285965   13769
   0  -4  -2  276228   12920
   0   4   2  279486   12216
   1  -3  -2  560128   11089
  -1   3   2  584295   10767
   1  -3   2  561185   11316
  -2   2   2  502140   16587
   2  -2   2  485188   17495
  -2   2   2  518333   17664
   2  -2  -2  443979   16983
  -3   1  -2  295979    5755
  -3   1   2  288889    5557
  -3   1   2  284043    5607
   3  -1   2  296656    5550
   3  -1  -2  288171    5351
   3  -1   2  288806    6039
   4   0  -2  116999    8618
  -4   0   2  106150    9151
  -4   0   2  104227    8851
  -4   0  -2  122017    8916
  -4   0  -2  119085    9233
  -5  -1   2   60224    4938
  -5  -1  -2   65976    4699
  -5  -1  -2   66630    3968
  -5  -1  -2   68976    4973
   5   1  -2   65863    4363
  -5  -1   2   61747    4948
   6   2  -2  105413    2317
  -6  -2  -2  102395    1945
  -6  -2   2   87452    2727
  -6  -2  -2   99545    2539
  -6  -2  -2  102020    2764
  -7  -3  -2   69061    1647
  -7  -3   2   68361    2491
  -7  -3  -2   66163    2334
  -7  -3  -2   69307    2174
   7   3  -2   69510    1967
  -8  -4   2   30222    2221
   8   4  -2   31862    1550
   8   4  -2   32100    1726
  -8  -4  -2   31349    2077
  -8  -4  -2   32460    1442
  -8  -4  -2   31770    1857
  -9  -5  -2   41793    2163
  -9  -5   2   45317    3222
   9   5  -2   42411    2495
   9   5  -2   44076    2302
  -9  -5  -2   49111    3148
  -9  -5  -2   46463    2704
  10   6  -2   34596    1605
 -10  -6  -2   37816    2311
  10   6  -2   34441    1828
 -10  -6  -2   38063    1962
 -10  -6   2   35198    2355
 -11  -7   2   12791    1915
 -11  -7  -2   17335    1971
 -11  -7  -2   16714    1529
 -12  -8  -2   12552    2244
 -12  -8   2   14928    2468
 -12  -8  -2   10132    1413
 -13  -9  -2   11715    2102
 -13  -9   2   10916    2100
 -13  -9  -2   14130    1430
 -14 -10   2    8868    2160
 -14 -10  -2    8077    1998
 -15 -11  -2    2328    1333
 -15 -11   2    3765    1584
 -16 -12  -2    4550    1602
 -16 -12   2    6407    1928
 -17 -13   2    3051    1602
 -17 -13  -2    1978    1201
 -18 -14  -2      75     905
 -18 -14   2     984    1215
 -19 -15  -2      10    1436
 -16 -20  -3     266    1803
 -15 -19  -3      24    1162
 -15 -19   3     266    1429
 -14 -18   3     162    1311
 -14 -18  -3      58     917
 -13 -17  -3     484    1120
 -13 -17   3     234    1132
 -12 -16   3     849    1193
 -12 -16  -3     838    1059
 -11 -15  -3     929     761
 -11 -15  -3    1330     868
 -11 -15   3     349     768
 -10 -14  -3     924     771
 -10 -14  -3     413     700
 -10 -14   3     222     808
  -9 -13   3     929    1072
  -9 -13  -3     375     848
  -9 -13  -3      71     556
  -8 -12  -3      44     624
  -8 -12  -3      33     712
  -8 -12   3     520     791
  -7 -11  -3    9881    1396
  -7 -11  -3    7431    1253
  -7 -11   3    6507    1458
  -6 -10  -3    2439     837
  -6 -10   3    2413     531
  -6 -10  -3     980     691
  -6 -10   3    1437     864
  -5  -9  -3    9255    1199
  -5  -9   3   12742    1087
  -5  -9   3   12857    2047
  -5  -9  -3   13821    1502
  -4  -8  -3    7963    1510
  -4  -8   3    7442    1843
  -4  -8   3    7943    1047
  -3  -7   3   22059    1788
  -3  -7  -3   17762    1197
  -3  -7   3   18753    1062
  -3  -7  -3   16005    1309
  -2  -6   3    9357    2241
  -2  -6  -3   10551    1685
  -2  -6   3    9442    1607
  -2  -6  -3   11207    1969
  -1  -5   3    3057    1360
  -1  -5  -3    2509     658
  -1  -5   3    2405     851
  -1  -5  -3    2413    1009
   1   5   3    2348     823
   1  -3   3   15334    3298
   1  -3  -3   15465    3034
  -1   3   3   17215    3162
   2  -2   3   29603    1795
   2  -2   3   30182    1666
  -2   2   3   33208    1256
  -2   2   3   30432    1619
  -3   1   3   11881    2583
  -3   1   3   12550    2218
   3  -1  -3   11333    2036
  -5  -1   3    2739    1179
  -5  -1  -3    2177     980
  -5  -1  -3    2099     997
  -6  -2  -3   50483    2095
  -6  -2   3   57115    2413
  -6  -2  -3   52544    2223
  -7  -3  -3    3389     882
  -7  -3   3    4893    1185
  -7  -3  -3    3504     995
  -8  -4  -3     644     566
  -8  -4  -3     619     499
  -8  -4   3     685     704
  -9  -5   3   15104    2157
  -9  -5  -3   11497    1519
  -9  -5  -3   10380    1323
 -10  -6   3   18247    2329
 -10  -6  -3   15805    1979
 -11  -7  -3    4585    1145
 -11  -7   3    3182    1050
 -11  -7  -3    3644     891
 -12  -8  -3    1419     936
 -12  -8  -3    2246     753
 -12  -8   3    1514     956
 -13  -9  -3    2778    1013
 -13  -9  -3    1803    1005
 -13  -9   3    1038     871
 -14 -10  -3     370     773
 -14 -10  -3    1405     848
 -14 -10   3     638     934
 -15 -11   3     156     716
 -15 -11  -3     812     769
 -16 -12   3      39     820
 -16 -12  -3    1501     903
 -17 -13  -3       3     841
 -17 -13   3     414     917
 -18 -14  -3     179     970
 -18 -14   3      15    1055
 -19 -15  -3      19    1520
 -15 -19   4       0    1310
 -15 -19  -4    3287    1414
 -14 -18   4     335    1345
 -14 -18  -4    1518     912
 -13 -17   4    2744    1592
 -13 -17  -4    3185    1252
 -12 -16  -4    6461    1657
 -12 -16   4    5889    2029
 -11 -15   4    4296    1733
 -11 -15  -4    6337    1568
 -11 -15  -4    4349    1449
 -10 -14  -4   15265    1902
 -10 -14  -4   20739    1993
 -10 -14   4   11666    1974
  -9 -13   4   26713    2879
  -9 -13  -4   31703    2590
  -9 -13  -4   28428    2440
  -8 -12   4   17075    2635
  -8 -12  -4   10396    1766
  -8 -12  -4   14782    1939
  -7 -11  -4    5005     974
  -7 -11  -4    4376     815
  -7 -11   4    7796    1460
  -6 -10   4   24877    1416
  -6 -10   4   30896    2648
  -6 -10  -4   27833    2121
  -5  -9  -4    1677     935
  -5  -9   4    2313    1090
  -5  -9   4    2734     596
  -4  -8   4   95070    5555
  -4  -8  -4  101784    4657
  -4  -8  -4   95709    4834
  -4  -8   4   95378    4075
  -3  -7  -4  196148    6640
  -3  -7  -4  190671    6370
  -3  -7   4  204210    6083
  -3  -7   4  209777    7651
  -2  -6  -4  321157   10192
  -2  -6  -4  325985    9991
   2   6   4  330556    9400
  -2  -6   4  343309   11316
  -2  -6   4  339496    9821
  -1  -5  -4  219268    8502
  -1  -5   4  247149    9615
  -1  -5   4  218832    8334
   1   5   4  238939    8032
  -1  -5  -4  232129    8232
   0   4   4  189833   10566
   0  -4  -4  174217   10699
   0  -4   4  192969   11149
   0  -4  -4  176596   10945
   1  -3  -4    7767    1342
   1  -3   4    5801    1291
  -1   3   4    5560    1260
   1  -3   4    6784    1461
  -2   2   4   83931    4649
   2  -2   4   83347    5334
   2  -2   4   89297    4934
  -2   2   4   88340    5026
   3  -1  -4   91512    2319
  -3   1   4   87352    2956
  -3   1   4   89448    2563
  -3   1  -4   91280    2549
  -4   0   4  289344   11259
  -4   0  -4  278755   11316
   4   0  -4  301421   10498
  -4   0  -4  294485   11023
  -4   0   4  296456   11374
  -5  -1   4  288959    9481
  -5  -1  -4  296652    9131
  -5  -1  -4  301417    9393
  -6  -2   4  247332    7717
  -6  -2  -4  245963    7283
  -6  -2  -4  262219    7563
  -7  -3  -4   90927    3174
  -7  -3  -4   82893    2999
  -7  -3   4   84904    3342
  -8  -4  -4  101296    4724
  -8  -4  -4  102290    4986
  -8  -4   4  104696    5280
  -9  -5  -4   22780    1566
  -9  -5  -4   26727    1800
  -9  -5   4   26652    1969
 -10  -6  -4   18489    1628
 -10  -6  -4   19282    1772
 -10  -6   4   19437    2390
 -11  -7   4   35737    3069
 -11  -7  -4   33255    2702
 -11  -7  -4   37920    2568
 -12  -8  -4   42530    3081
 -12  -8  -4   45364    2764
 -12  -8   4   33924    2975
 -13  -9  -4   13175    2073
 -13  -9   4   11421    2568
 -13  -9  -4   11254    2331
 -14 -10   4   14052    2412
 -14 -10  -4   16396    2082
 -14 -10  -4   11986    2212
 -15 -11  -4    2853    1090
 -15 -11   4    2458    1275
 -16 -12   4    1219    1065
 -16 -12  -4    1367    1105
 -17 -13  -4    1546    1056
 -17 -13   4     978     817
 -18 -14  -4    1141    1121
 -18 -14   4     142    1024
 -15 -19  -5     935    1273
 -14 -18  -5    1802    1143
 -14 -18   5      68    1264
 -13 -17   5      28    1301
 -13 -17  -5     429     904
 -12 -16   5     396    1137
 -12 -16  -5     450     792
 -12 -16  -5     228     946
 -11 -15  -5    1570    1180
 -11 -15  -5    1866    1141
 -11 -15   5    1166    1345
 -10 -14  -5    1875    1077
 -10 -14  -5     968     852
 -10 -14   5     818    1135
  -9 -13  -5    6256    1166
  -9 -13   5    3202    1227
  -9 -13  -5    8903    1416
  -8 -12  -5    1898     937
  -8 -12   5    1475    1021
  -7 -11   5      33    1017
  -7 -11  -5     483     896
  -6 -10   5    6600    1400
  -6 -10  -5    3653     697
  -6 -10  -5    5823    1122
  -5  -9  -5    4507    1415
  -5  -9  -5    4861    1144
  -5  -9   5    5440    1839
  -5  -9   5    5118     773
  -4  -8   5     896     770
  -4  -8  -5    1496     502
  -4  -8  -5     348     604
  -4  -8   5    1345     416
  -3  -7  -5    5462     725
  -3  -7   5    5755     646
  -3  -7  -5    3602     802
   3   7   5    4313     565
  -3  -7   5    4522    1128
  -2  -6   5    4472     507
   2   6   5    5006     412
  -2  -6  -5    4783     416
  -2  -6  -5    4179     784
  -2  -6   5    4958     751
  -1  -5   5    3559     707
  -1  -5   5    4762     954
   1   5   5    4160     634
  -1  -5  -5    3725     799
  -1  -5  -5    4328     438
   1  -3   5    4434     622
   1  -3  -5    2417     457
   1  -3   5    4434     455
  -1   3   5    4390     437
  -2   2   5    3697     782
  -2   2   5    3631    1220
  -3   1   5   21517     951
  -3   1   5   18908    1370
   3  -1  -5   19125     820
  -3   1  -5   20519    1075
   5   1  -5    1877     992
  -5  -1  -5    2160    1542
  -5  -1  -5    1470    1438
  -5  -1   5    1861    1569
  -6  -2  -5    3716    1023
  -6  -2   5    3201    1036
  -6  -2  -5    3137     929
  -7  -3  -5   30350    2002
  -7  -3  -5   31198    1989
  -7  -3   5   26787    2069
  -8  -4  -5   22416    2068
  -8  -4   5   21249    2258
  -8  -4  -5   22271    2026
  -9  -5  -5   12837    1696
  -9  -5   5    9875    1780
  -9  -5  -5   12418    1566
 -10  -6   5      72     630
 -10  -6  -5      75     530
 -10  -6  -5      75     511
 -11  -7  -5    6284    1040
 -11  -7  -5    5539    1184
 -11  -7   5    5041    1313
 -12  -8  -5    3431    1273
 -12  -8  -5    5210    1398
 -12  -8   5    2629    1405
 -13  -9  -5    4227    1214
 -13  -9  -5    3687     892
 -13  -9   5    3731    1206
 -14 -10   5     589     906
 -14 -10  -5    2515    1006
 -14 -10  -5       1     734
 -15 -11  -5     942     822
 -15 -11   5     480     786
 -15 -11  -5    1032     945
 -16 -12   5     145     858
 -16 -12  -5     240     814
 -17 -13   5    1564    1021
 -17 -13  -5     501     950
 -18 -14  -5       1    1107
 -18 -14   5     541     919
 -14 -18  -6    2540    1385
 -14 -18   6      75    1232
 -13 -17   6    1829    1292
 -13 -17  -6     908    1118
 -13 -17  -6    5488    1267
 -12 -16   6    1740    1417
 -12 -16  -6     642     965
 -12 -16  -6    2091    1134
 -11 -15  -6   11709    2193
 -11 -15  -6    7325    1921
 -11 -15   6    6329    2334
 -10 -14  -6   10187    1464
 -10 -14  -6   10448    1628
 -10 -14   6    8279    1911
  -9 -13  -6    5026    1397
  -9 -13  -6    6252    1341
  -9 -13   6    4412    1790
  -8 -12   6   22021    3323
  -8 -12  -6   19698    2271
  -7 -11  -6   18082    1653
  -7 -11   6   15843    1884
  -7 -11  -6   12604    1132
  -6 -10  -6    9368    1223
  -6 -10  -6   10019    1582
  -6 -10   6   10832    1990
  -5  -9  -6   16087    1732
  -5  -9  -6   16683    2079
  -5  -9   6   16982    2505
  -4  -8  -6   26873    1592
  -4  -8   6   32994    2542
  -4  -8  -6   24625    1913
   4   8   6   29655    1458
  -4  -8   6   29908    1392
   3   7   6   70147    2951
  -3  -7   6   70538    2966
  -3  -7  -6   68848    3572
  -3  -7  -6   69483    3065
  -3  -7   6   68396    4228
  -2  -6   6   62713    2453
  -2  -6  -6   62808    2786
  -2  -6   6   57479    3268
   2   6   6   67342    2517
  -2  -6  -6   63768    2295
   1   5   6  169643    6041
  -1  -5   6  175555    7468
  -1  -5   6  162379    6290
  -1  -5  -6  166682    6340
   0  -4   6  184311    6438
   0  -4  -6  166329    6590
   0   4   6  178552    6628
   0  -4   6  177919    6982
   1  -3   6   50816    2795
  -1   3   6   50308    2590
   1  -3   6   49389    2535
   1  -3  -6   45830    2259
  -2   2   6   21737    1613
  -2   2   6   22136    1298
  -2   2  -6   22752    1330
  -3   1   6   93756    4227
   3  -1  -6   87066    3290
  -3   1   6   88542    3702
  -3   1  -6   86243    3614
  -4   0  -6   99491    2687
  -4   0   6   84654    2602
   4   0  -6   97212    2175
  -5  -1  -6  158784    6068
  -5  -1   6  155137    6322
  -5  -1  -6  161435    6126
   5   1  -6  165740    5248
  -6  -2  -6   98866    3407
  -6  -2   6  100307    3652
  -6  -2  -6   93126    3367
  -7  -3   6   40339    1948
  -7  -3  -6   35691    1672
  -7  -3  -6   44040    1795
  -8  -4  -6   30893    2410
  -8  -4  -6   29855    2361
  -8  -4   6   26826    2556
  -9  -5  -6   25086    1953
  -9  -5   6   26182    2267
  -9  -5  -6   28256    2086
 -10  -6   6   21170    2584
 -10  -6  -6   28246    2130
 -10  -6  -6   23853    2078
 -11  -7  -6   25809    2520
 -11  -7  -6   22975    2308
 -11  -7   6   22085    2700
 -12  -8  -6    5242    1246
 -12  -8  -6    5806    1162
 -12  -8   6    5140    1400
 -13  -9   6    5278    1686
 -13  -9  -6   10692    2008
 -13  -9  -6   11248    1917
 -14 -10   6    4049    1310
 -14 -10  -6    6343    1474
 -14 -10  -6    3869    1318
 -15 -11  -6    6328    1539
 -15 -11   6    4465    1311
 -15 -11  -6    5540    1383
 -16 -12  -6    3179    1354
 -16 -12   6    3636    1133
 -17 -13   6    1768     952
 -17 -13  -6    3669    1406
 -18 -14  -6    1716    1508
 -18 -14   6     880     967
 -14 -18   7     182    1627
 -13 -17  -7    1410    1282
 -13 -17   7     499    1590
 -12 -16  -7    1545    1291
 -12 -16  -7     884     990
 -12 -16   7     127    1224
 -11 -15  -7     322     903
 -11 -15  -7     602     621
 -11 -15   7     309     630
 -10 -14   7     968     773
 -10 -14  -7     785     539
 -10 -14  -7    2175     933
  -9 -13  -7    1946    1103
  -9 -13   7    2240    1241
  -8 -12  -7    4321    1439
  -8 -12  -7    3199    1593
  -8 -12   7    3186    1829
  -7 -11  -7    4267     799
  -7 -11  -7    3814     964
  -7 -11   7    5055    1316
  -6 -10  -7    1268     813
  -6 -10   7     896     835
  -6 -10  -7     284     461
  -5  -9   7    5920    1909
  -5  -9  -7    5439    1130
  -5  -9  -7    4897    1421
   4   8   7    2235     758
  -4  -8  -7    2631     856
  -4  -8   7    1299    1219
  -4  -8   7    3008     714
  -4  -8  -7    2301    1161
  -3  -7  -7   13014    1073
  -3  -7   7   13303    1056
  -3  -7  -7   12559    1488
  -3  -7   7   10321    1702
   3   7   7   11189    1001
  -2  -6   7    4434     532
  -2  -6  -7    4027     438
  -2  -6  -7    5350     798
  -2  -6   7    3766     820
   2   6   7    3927     463
  -1  -5   7   23935    1662
  -1  -5  -7   23318    1224
   1   5   7   24090    1147
  -1  -5   7   22071    1096
   1  -3  -7   11103    1230
   1  -3   7   10312    1696
  -1   3   7   11106    1604
   1  -3   7   12707    1585
  -2   2   7    1826    1089
  -2   2  -7    2149     880
  -2   2   7    2359     910
  -3   1   7   15156    2171
   3  -1  -7   14750    1343
  -3   1   7   17648    1609
  -3   1  -7   15957    1588
   5   1  -7   18942     712
  -5  -1  -7   15575    1161
  -5  -1   7   17095    1265
  -6  -2  -7    8334    1617
  -6  -2   7   10063    1896
  -6  -2  -7    8516    1386
  -7  -3   7    5177    1642
  -7  -3  -7    5232    1440
  -7  -3  -7    4447    1330
  -8  -4  -7     491     743
  -8  -4   7     430     880
  -8  -4  -7     430     641
  -9  -5  -7    3034    1197
  -9  -5  -7    2820    1140
  -9  -5   7    2030    1264
 -10  -6  -7    2995     786
 -10  -6  -7    3424     815
 -10  -6   7    2064     840
 -11  -7   7     601     850
 -11  -7  -7    1296     781
 -11  -7  -7    1916     818
 -12  -8  -7     652     743
 -12  -8  -7     302     759
 -12  -8   7     701     849
 -13  -9   7    4053    1452
 -13  -9  -7    2815    1038
 -13  -9  -7    3997    1252
 -14 -10  -7    1616     980
 -14 -10   7      59     743
 -14 -10  -7      20     575
 -15 -11  -7     548     799
 -15 -11  -7      82     749
 -15 -11   7     285     764
 -16 -12   7      37     659
 -16 -12  -7      56     812
 -16 -12  -7     840     937
 -17 -13   7     132     854
 -17 -13  -7     527    1082
 -18 -14  -7     240    1375
 -14 -18  -8    3280    1719
 -13 -17   8    1792    1288
 -13 -17  -8    2575    1456
 -12 -16   8    1297    1096
 -12 -16  -8    4881    1431
 -11 -15   8    6751    2276
 -11 -15  -8    4584    1637
 -10 -14   8    8787    1977
 -10 -14  -8   12208    1911
  -9 -13  -8   18366    1868
  -9 -13  -8   19906    2598
  -9 -13   8   22051    3371
  -8 -12  -8   20032    1911
  -8 -12  -8   23810    2360
  -8 -12   8   23759    3461
  -7 -11   8   18824    2761
  -7 -11  -8   21248    2269
  -7 -11  -8   19872    1737
  -6 -10  -8   21485    2202
  -6 -10   8   24851    3316
  -6 -10  -8   21071    1764
  -5  -9   8   26169    3196
  -5  -9  -8   26607    2297
  -5  -9  -8   27517    1875
  -4  -8   8   37585    2966
  -4  -8  -8   39195    2505
  -4  -8  -8   35371    1892
   4   8   8   34153    1750
  -3  -7   8   22762    2592
   3   7   8   25646    1791
  -3  -7  -8   20345    2030
  -3  -7  -8   22835    1617
  -3  -7   8   22313    1683
  -2  -6  -8   49213    3197
   2   6   8   47327    2849
  -2  -6   8   47157    3825
  -2  -6   8   48839    2940
  -1  -5  -8   67157    3072
  -1  -5   8   59617    2978
  -1  -5   8   63954    3715
   1   5   8   65164    2957
   0  -4   8   40739    2634
   0  -4  -8   40567    2333
   0   4   8   37554    2349
   0  -4   8   41821    2445
  -1   3   8  129258    5612
   1  -3  -8  127296    5182
  -2   2   8   79658    3748
  -2   2  -8   77764    3533
  -2   2   8   81455    4171
  -3   1   8   77992    3835
  -3   1  -8   73181    3174
  -3   1   8   76591    3365
   3  -1  -8   75005    2934
   4   0  -8  126909    5836
  -4   0   8  134900    6829
  -4   0  -8  118520    6372
  -5  -1   8   66839    3774
  -5  -1  -8   60466    3476
   5   1  -8   56202    2681
  -6  -2  -8   39731    2071
  -6  -2   8   45961    2341
  -7  -3   8   40403    2625
  -7  -3  -8   40996    2462
  -7  -3  -8   38829    2317
  -8  -4  -8   24542    1972
  -8  -4   8   23138    2193
  -8  -4  -8   23705    1969
  -9  -5   8   23637    2309
  -9  -5  -8   25883    2147
  -9  -5  -8   25849    2157
 -10  -6  -8   26908    2272
 -10  -6   8   25526    2521
 -10  -6  -8   23921    2167
 -11  -7  -8   13211    2154
 -11  -7  -8   13746    2216
 -11  -7   8   11501    2375
 -12  -8   8    7781    2028
 -12  -8  -8   12245    2120
 -12  -8  -8    9242    1871
 -13  -9   8    4747    1524
 -13  -9  -8    5193    1383
 -13  -9  -8    9495    1687
 -14 -10   8    1397     991
 -14 -10  -8    1525     969
 -14 -10  -8    2028    1125
 -15 -11   8     397     954
 -15 -11  -8    2325    1021
 -15 -11  -8    3631    1206
 -16 -12  -8      53     695
 -16 -12  -8    1373     868
 -16 -12   8      52     699
 -17 -13  -8    1535    1191
 -17 -13   8     846    1094
 -17 -13  -8     369    1137
 -18 -14  -8    2490    2031
 -14 -18  -9      44    1612
 -13 -17  -9    2333    1420
 -13 -17   9      61     944
 -12 -16  -9    2433    1239
 -12 -16   9     909    1131
 -11 -15  -9    4197    1456
 -11 -15   9    1887    1395
 -10 -14   9    4042    1363
 -10 -14  -9    4511    1289
  -9 -13  -9    5286    1468
  -9 -13   9    1538    1111
  -8 -12  -9    2955    1484
  -8 -12   9    1536    1523
  -7 -11   9    1379    1239
  -7 -11  -9    2027    1013
  -7 -11  -9    1328    1134
  -6 -10   9    4878    1280
  -6 -10  -9    3003     949
  -6 -10  -9    3382     707
  -5  -9  -9    4210     756
  -5  -9   9    3020     727
  -5  -9  -9    4650     550
  -4  -8   9    1304    1406
  -4  -8  -9     822    1180
  -3  -7  -9    5573    1418
   3   7   9    5071     999
  -3  -7   9    5265    1490
   2   6   9    6512    1088
  -2  -6  -9    6300    1271
  -2  -6   9    5496    1422
  -2  -6   9    7749    1215
   1   5   9     938     796
  -1  -5   9    1460    1044
  -1  -5   9     983    1126
  -1  -5  -9     871     832
  -1  -5   9    1493     918
   1  -3  -9    2752     829
  -1   3   9    2584     877
  -2   2  -9    2899     616
  -2   2   9    3494     702
  -2   2   9    1323     632
   2  -2  -9    2454     477
   3  -1  -9    3143     825
  -3   1   9    3831    1032
  -3   1   9    4510    1361
  -3   1  -9    2965     985
   5   1  -9    7064     905
  -5  -1  -9    4808    1323
  -5  -1   9    4892    1377
  -6  -2  -9    3206    1431
  -6  -2   9    3947    1528
  -7  -3  -9    4845    1323
  -7  -3   9    6239    1566
  -8  -4   9      13     810
  -8  -4  -9     334     610
  -8  -4  -9    1193     493
  -9  -5  -9    6780    1515
  -9  -5   9    5376    1452
  -9  -5  -9    6328    1456
 -10  -6  -9    4466    1440
 -10  -6  -9    5936    1563
 -10  -6   9    2617    1239
 -11  -7  -9    7755    1762
 -11  -7  -9    6171    1474
 -11  -7   9    8073    1982
 -12  -8  -9    2516    1020
 -12  -8  -9     770     687
 -12  -8   9     331     749
 -13  -9  -9    1875     704
 -13  -9  -9     153     808
 -13  -9   9    2992    1100
 -14 -10   9      20     801
 -14 -10  -9      20     672
 -14 -10  -9    1417    1056
 -15 -11  -9       1     632
 -15 -11   9       1     761
 -15 -11  -9       1     748
 -16 -12  -9       4    1214
 -16 -12   9       4     953
 -16 -12  -9     621     887
 -17 -13   9     556     970
 -17 -13  -9     776    1168
 -17 -13  -9     148    1015
 -13 -17  10    4100    1738
 -13 -17 -10     360    1358
 -12 -16  10    1287    1195
 -12 -16 -10    2118    1320
 -11 -15  10    4453    1854
 -11 -15 -10    3325    1246
 -10 -14 -10    5356    1457
 -10 -14  10    5659    2036
  -9 -13 -10    5581    1546
  -9 -13  10    6800    1939
  -8 -12  10   10397    2444
  -8 -12 -10   16955    2549
  -7 -11 -10   38157    3015
  -7 -11  10   29501    3893
  -6 -10  10   15160    2885
  -6 -10 -10   21845    2680
  -5  -9  10   38480    3125
  -5  -9 -10   38033    2582
  -4  -8 -10    3010    1391
  -4  -8  10    2665    1514
  -3  -7  10   31771    2988
  -3  -7 -10   30970    2466
   3   7  10   30032    2038
  -2  -6 -10   27522    2477
  -2  -6  10   33761    3231
   2   6  10   27046    2235
  -2  -6  10   27737    2339
   1   5  10   39324    2735
  -1  -5 -10   43959    2868
  -1  -5  10   36703    2823
  -1  -5  10   46446    3621
  -1  -5  10   37720    2604
   0   4  10   81552    4091
   0  -4  10   80067    4306
   0  -4 -10   75252    3760
   0  -4  10   77265    3949
  -1   3  10   50980    3295
   1  -3 -10   53373    2901
  -2   2  10   86118    4274
  -2   2 -10   80110    3870
  -2   2  10   86110    4636
  -3   1  10   53969    3316
   3  -1 -10   56645    2883
  -3   1  10   59621    3840
  -3   1 -10   55734    3190
  -4   0  10    9963    1701
   4   0 -10   10098    1213
  -4   0  10   13566    2429
  -4   0 -10    8983    1554
  -5  -1  10   14901    2112
  -5  -1 -10   14325    1975
   5   1 -10   12686    1268
  -6  -2 -10   41804    2583
  -6  -2  10   47449    2906
  -7  -3 -10   38643    2671
  -7  -3  10   36440    2776
  -8  -4  10   47681    3666
  -8  -4 -10   51162    3516
  -9  -5  10   24782    2721
  -9  -5 -10   22642    1949
  -9  -5 -10   24362    2490
 -10  -6 -10    2005    1245
 -10  -6 -10    2288    1213
 -10  -6  10    3380    1627
 -11  -7  10     138     704
 -11  -7 -10    1691     752
 -11  -7 -10     817     774
 -12  -8 -10    1384    1075
 -12  -8  10    1835    1012
 -12  -8 -10     995     778
 -13  -9 -10    3362    1206
 -13  -9 -10    4080    1225
 -13  -9  10    5039    1715
 -14 -10 -10     107     860
 -14 -10 -10    3539    1085
 -14 -10  10    3979    1332
 -15 -11  10    2946    1344
 -15 -11 -10    4072    1422
 -15 -11 -10    2480    1085
 -16 -12 -10    4488    1532
 -16 -12 -10    2990    1215
 -16 -12  10    1527    1149
 -17 -13 -10    1446    1515
 -17 -13 -10     655    1224
 -12 -16  11       2    1223
 -12 -16 -11       4    1147
 -11 -15 -11      60    1097
 -11 -15  11     481    1330
 -10 -14 -11    1359    1069
 -10 -14  11     181    1040
  -9 -13 -11     103    1045
  -9 -13  11     480     791
  -8 -12 -11      74     836
  -8 -12  11    1092    1049
  -7 -11 -11      88     818
  -7 -11  11     847    1048
  -6 -10  11   20560    3490
  -6 -10 -11   24157    2604
  -5  -9 -11    8195    1341
  -5  -9  11    9225    1679
  -4  -8 -11    7113    1626
  -4  -8  11    6215    1729
  -3  -7  11    8550    2033
  -3  -7 -11    8336    1748
  -2  -6 -11    1164     990
  -2  -6  11    1122    1030
   2   6  11     704     700
  -1  -5  11    4135    1405
   1   5  11    3335    1031
  -1  -5  11    5426    1248
  -1  -5  11    4544    1497
  -1  -5 -11    4236    1191
  -1   3  11     280     649
   1  -3 -11     294     658
  -2   2  11    4416    1105
  -2   2  11    3049     775
  -2   2 -11    2689     793
   2  -2 -11    1085     535
  -3   1 -11    2546     896
   3  -1 -11    3189     781
  -3   1  11    2367     841
  -3   1  11    3236    1021
  -5  -1 -11     701     783
  -5  -1  11     873     521
  -6  -2  11    2845    1174
  -6  -2 -11    1914    1001
  -7  -3  11   13873    2206
  -7  -3 -11   15941    2186
  -8  -4  11      84     693
  -8  -4 -11     144     775
  -9  -5  11    7754    1688
  -9  -5 -11   11607    1928
 -10  -6  11    7538    2112
 -10  -6 -11    8160    2037
 -10  -6 -11    9779    2003
 -11  -7 -11    3765    1357
 -11  -7  11    4159    1612
 -11  -7 -11    5549    1647
 -12  -8 -11    1656    1096
 -12  -8 -11    1109     960
 -12  -8  11     551     970
 -13  -9 -11    2143    1344
 -13  -9 -11    2075    1242
 -13  -9  11    3772    1732
 -14 -10  11     180    1077
 -14 -10 -11     487     802
 -14 -10 -11      45     710
 -15 -11  11     320    1046
 -15 -11 -11    1804    1287
 -15 -11 -11      52     739
 -16 -12  11     209     997
 -16 -12 -11     141    1140
 -16 -12 -11     344     944
 -12 -16 -12    1742    1414
 -11 -15  12    1216    1509
 -11 -15 -12    2267    1306
 -10 -14  12    4143    1936
 -10 -14 -12    2107    1376
  -9 -13 -12    4228    1454
  -9 -13  12    4106    1779
  -8 -12 -12    4377    1365
  -8 -12  12    4320    1699
  -7 -11  12    8030    2382
  -7 -11 -12   10405    2260
  -6 -10  12   18261    3356
  -6 -10 -12   20178    2845
  -5  -9 -12   36929    2936
  -5  -9  12   29998    3817
  -4  -8  12   54617    4654
  -4  -8 -12   49394    3735
  -3  -7 -12   33155    2774
  -3  -7  12   34353    3344
  -2  -6  12   15255    2520
  -2  -6 -12   20329    2267
   2   6  12   20798    2095
  -1  -5  12   18466    2141
   1   5  12   21123    2346
  -1  -5 -12   21898    2073
  -1  -5  12   23755    3143
  -1  -5  12   19979    2475
   0  -4  12   38394    2795
   0  -4 -12   29552    2332
   0   4  12   31318    2553
   0  -4  12   29044    2663
   1  -3 -12   49668    3172
  -1   3  12   57920    3834
  -2   2 -12   43418    2705
  -2   2  12   36498    2820
  -2   2  12   35553    3038
   2  -2 -12   41830    2591
  -3   1  12   13153    2502
  -3   1 -12   17992    2182
  -3   1  12   13927    2128
   3  -1 -12   14921    1587
  -4   0 -12   28792    2406
  -4   0  12   30418    3447
  -4   0  12   27503    2537
  -5  -1  12   30528    3658
  -5  -1  12   29157    2646
  -5  -1 -12   30944    2523
  -6  -2 -12    7770    1716
  -6  -2  12    7829    1804
  -7  -3 -12   13242    2130
  -7  -3  12   15368    2427
  -8  -4 -12    1434    1002
  -8  -4  12    2900    1143
  -9  -5 -12    5498    1540
  -9  -5  12    5931    1490
 -10  -6  12   13952    2572
 -10  -6 -12    9934    1924
 -11  -7  12    8803    1640
 -11  -7 -12   14002    1938
 -12  -8  12    7974    2013
 -12  -8 -12    9286    1883
 -12  -8 -12    9093    1955
 -13  -9 -12    1263    1068
 -13  -9  12    1902    1256
 -13  -9 -12    5721    1297
 -14 -10 -12    4212    1176
 -14 -10 -12    6797    1567
 -14 -10  12    4841    1612
 -15 -11 -12    2642    1055
 -15 -11  12    5550    1816
 -11 -15 -13     934    1267
 -11 -15  13      48    1186
 -10 -14 -13      24    1103
 -10 -14  13    3287    1678
  -9 -13  13      66    1023
  -9 -13 -13    2570    1267
  -8 -12 -13     149    1008
  -8 -12  13       5    1366
  -7 -11 -13    2722    1548
  -7 -11  13    2940    1510
  -6 -10  13    3719    1351
  -6 -10 -13    2792    1218
  -5  -9 -13    2633    1169
  -5  -9  13    2468    1376
  -4  -8 -13     147     878
  -4  -8  13     408    1005
  -3  -7 -13    1430     889
  -3  -7  13    1404     914
  -2  -6  13      25     629
  -2  -6 -13     921     900
  -1  -5 -13    6392    1683
  -1  -5  13   10139    2548
   1   5  13    8497    1806
   1  -3 -13       3     616
  -1   3  13       6     694
   1  -3  13    1031    1089
   2  -2 -13     220     682
  -2   2  13     404     915
  -2   2 -13     241     730
  -3   1  13      11     849
  -3   1 -13      75     658
   3  -1 -13       2     522
  -5  -1  13    7823    1957
  -5  -1 -13   10029    2009
  -5  -1  13   13104    2821
  -6  -2  13      59     948
  -6  -2 -13    3288    1019
  -6  -2  13    1236     958
  -7  -3  13     195     859
  -7  -3 -13    1745    1112
  -8  -4 -13    2368    1071
  -8  -4  13    4624    1410
  -9  -5  13      70     949
  -9  -5 -13     428     897
 -10  -6  13    2315    1009
 -10  -6 -13     478     893
 -11  -7 -13    1902    1141
 -11  -7  13    1730    1113
 -12  -8 -13     793     962
 -12  -8  13     262    1083
 -13  -9  13    4306    1588
 -13  -9 -13    2778    1025
 -14 -10  13      40    1116
 -14 -10 -13    2261    1162
 -15 -11  13     189    1483
 -10 -14 -14    4291    1661
 -10 -14  14    1283    1394
  -9 -13  14    4624    1901
  -9 -13 -14    2377    1447
  -8 -12  14    2669    1662
  -8 -12 -14    2099    1526
  -7 -11 -14    6141    1944
  -7 -11  14    3134    1570
  -6 -10  14    7788    2091
  -6 -10 -14    9649    2255
  -5  -9 -14   12999    2418
  -5  -9  14   20525    3468
  -4  -8 -14   23269    3093
  -4  -8  14   30712    4241
  -3  -7 -14   15397    2516
  -3  -7  14   12501    3026
  -2  -6 -14   22548    2405
  -2  -6  14   22040    3090
  -1  -5  14   27177    3798
  -1  -5 -14   21441    2691
   0   4  14   17051    2420
   0  -4  14   10886    2302
   0  -4 -14   15205    2074
   1  -3  14   10948    2092
  -1   3  14    9172    2018
   1  -3  14    8539    2325
   1  -3 -14    8309    1650
   2  -2 -14   19137    2040
  -2   2  14   20162    3086
  -3   1  14   28071    3546
  -3   1 -14   31597    2566
  -4   0 -14   23466    2375
  -4   0  14   22565    3335
  -5  -1  14   19985    3103
  -5  -1 -14   24215    2647
  -6  -2 -14   23099    2838
  -6  -2  14   17127    3242
  -7  -3 -14   14237    2462
  -7  -3  14    8823    2639
  -8  -4 -14    5520    1508
  -8  -4  14    9569    2150
  -9  -5  14    7282    1802
  -9  -5 -14    7435    1799
 -10  -6  14   12311    2568
 -10  -6 -14   13370    2418
 -11  -7  14    4805    1653
 -11  -7 -14    7485    1800
 -12  -8 -14    7359    1575
 -12  -8  14    6270    1806
 -13  -9  14    5704    2124
 -13  -9 -14    3577    1286
 -14 -10  14    2568    1966
  -9 -13  15    1362    1509
  -9 -13 -15     645    1334
  -8 -12 -15     805    1339
  -8 -12  15     223    1046
  -7 -11 -15     253    1250
  -7 -11  15      32    1099
  -6 -10  15     711    1136
  -6 -10 -15     338     870
  -5  -9  15    1717    1257
  -5  -9 -15     604     977
  -4  -8  15      16     878
  -4  -8 -15    1723    1012
  -3  -7  15    1066     922
  -3  -7 -15     364     856
  -2  -6 -15    1458     773
  -2  -6  15    2561     985
  -1  -5 -15   10598    1696
  -1  -5  15   10957    2075
  -1   3  15    1769    1079
   1  -3  15    5847    1968
   1  -3 -15    1871    1015
  -2   2  15    2212    1420
  -3   1  15     847     972
  -3   1 -15    2182    1096
  -5  -1  15   13374    2544
  -5  -1 -15   16621    2370
  -6  -2 -15    3684    1402
  -6  -2  15    2572    1523
  -7  -3  15      22    1050
  -7  -3 -15    1081     901
  -8  -4 -15     760     847
  -8  -4  15      74    1108
  -9  -5  15    3688    1458
  -9  -5 -15     817    1014
 -10  -6 -15     851    1221
 -10  -6  15     806    1730
 -11  -7  15     391    1774
 -11  -7 -15     189    1165
 -12  -8  15      47    1877
 -12  -8 -15    2578    1275
  -8 -12  16    3380    2001
  -7 -11 -16     160    1193
  -7 -11  16    7713    2271
  -6 -10  16   22182    4558
  -5  -9 -16    9883    2318
  -5  -9  16    9298    2365
  -4  -8  16   11729    2872
  -4  -8 -16    7886    1918
  -3  -7 -16    7668    1880
  -3  -7  16   10050    2582
  -2  -6  16   17526    3289
  -2  -6 -16   16664    2516
  -1  -5 -16    2369    1192
  -1  -5  16    3120    1413
   0  -4  16    6079    1993
   0  -4 -16    2441    1156
   1  -3  16   21237    3489
  -1   3  16   17302    2889
  -2   2  16   13212    2419
   2  -2  16   12801    2333
   2  -2  16   18388    3161
  -3   1  16   16346    2956
  -4   0 -16   33071    3084
  -4   0  16   33381    4459
  -5  -1 -16   19822    2610
  -5  -1  16   11678    2511
  -6  -2 -16    8420    1961
  -6  -2  16    3858    1705
  -7  -3  16    7386    2294
  -7  -3 -16   10614    2246
  -8  -4  16    4350    1706
  -8  -4 -16    6345    1506
  -9  -5  16    2886    1679
  -9  -5 -16    3737    1866
 -10  -6  16    1146    1640
 -10  -6 -16     229    1026
 -11  -7 -16      44    1503
 -11  -7  16      43    1838
  -7 -11  17      85    1528
  -6 -10 -17      26    1387
  -6 -10  17      24    1377
  -5  -9 -17     336    1076
  -5  -9  17      62    1225
  -4  -8 -17     118     961
  -4  -8  17     123    1077
  -3  -7 -17    3294    1239
  -3  -7  17      51     998
  -2  -6  17     195     915
  -2  -6 -17      91    1067
  -1  -5 -17    2990    1392
  -1  -5  17    2868    1836
   1  -3  17       1    1031
  -2   2  17    1540    1272
  -3   1  17     155    1042
  -5  -1  17    4935    1673
  -5  -1 -17    7115    1605
  -6  -2  17     667    1270
  -6  -2 -17    2624    1080
  -7  -3  17     510    1103
  -7  -3 -17     198     909
  -8  -4  17     425    1072
  -8  -4 -17     414    1139
  -9  -5 -17     235    1126
  -9  -5  17    1726    1390
 -10  -6 -17      37    1656
  -6 -10  18    6253    3269
  -5  -9  18    4752    2425
  -5  -9 -18    3899    2176
  -4  -8 -18    5558    2066
  -4  -8  18    5964    2630
  -3  -7 -18    5374    1739
  -2  -6 -18   11218    2262
  -1  -5 -18   15183    2503
  -2   2  18    8201    1810
  -3   1  18    4867    2094
  -5  -1  18    6336    2201
  -6  -2 -18    6449    1744
  -6  -2  18    7069    2406
  -7  -3  18    4053    1789
  -7  -3 -18    3714    1493
  -8  -4 -18    5257    2155
  -8  -4  18    5799    2093
  -3  -7 -19     832    1481
  -2  -6 -19     213    1199
  -3   1  19    3422    1849
  -5  -1  19     260    1386
  -6  -2  19       3    1321
  -7  -3 -19     576    1776
  -4   0  20    8252    4142
 -15 -21   0     894    1961
 -14 -20   0     842    1081
 -13 -19   0    7608    2021
 -12 -18   0    1722    1172
 -11 -17   0   14800    2374
 -10 -16   0    4666    1469
  -9 -15   0    9700    1713
  -8 -14   0   10415    1534
  -8 -14   0   10812    2150
  -7 -13   0   32049    2527
  -7 -13   0   31624    2024
  -6 -12   0   74679    3418
  -6 -12   0   77314    4087
  -5 -11   0  115914    5517
  -5 -11   0  124169    4902
  -4 -10   0   87385    4018
  -4 -10   0   90015    3521
  -3  -9   0   35859    1545
  -3  -9   0   36444    1360
  -2  -8   0    3381    1171
  -2  -8   0    4573    1097
  -1  -7   0     733     641
   0  -6   0   31015    5117
   1  -5   0  436351   30123
   1  -5   0  415861   29068
   2  -4   0   40719     818
  -3   3   0     132    3441
   3  -3   0     548    3619
  -3   3   0     170    3408
   4  -2   0   40896    3946
  -4   2   0   44566    3620
  -4   2   0   45691    3754
   5  -1   0   19898    3620
  -5   1   0   27441    3581
  -6   0   0  259539    8790
  -6   0   0  251960    9481
  -7  -1   0   17192    1126
  -7  -1   0   19683    1328
   7   1   0   17050    1386
   8   2   0   13252    1346
  -8  -2   0   12725    1302
   8   2   0   13432    1575
  -8  -2   0   12659    1149
   9   3   0  142005    5870
  -9  -3   0  137309    5311
   9   3   0  139497    5355
  -9  -3   0  133625    5895
  10   4   0   73387    4752
 -10  -4   0   74313    4694
 -10  -4   0   78592    5373
  10   4   0   78800    5236
 -11  -5   0   16778    1545
 -11  -5   0   17428    2090
  11   5   0   17993    1795
  11   5   0   19029    1620
 -12  -6   0   15701    1604
 -12  -6   0   16958    1952
 -13  -7   0   14919    2476
 -14  -8   0     755     871
 -15  -9   0    5780    1542
 -16 -10   0    3925    1381
 -17 -11   0      74     984
 -18 -12   0    1339    1156
 -19 -13   0     363    1088
 -15 -21  -1    1964    2402
 -14 -20   1    2927    1327
 -14 -20  -1     429    1118
 -13 -19   1     372    1294
 -13 -19  -1     251    1012
 -12 -18   1    3080    1273
 -12 -18  -1    1436    1000
 -11 -17   1    1867     946
 -11 -17  -1     339     842
 -10 -16  -1    6020    1788
 -10 -16   1    5608    1800
  -9 -15  -1      26     701
  -9 -15   1     252     859
  -9 -15  -1     315     727
  -8 -14  -1     376     839
  -8 -14   1     129     812
  -8 -14  -1     751     793
  -7 -13  -1    1658    1043
  -7 -13  -1     807     718
  -7 -13   1    1652    1068
  -7 -13   1    1682     751
  -6 -12   1    1317     788
  -6 -12  -1     566     620
  -6 -12  -1     566     623
  -6 -12   1    1204     579
  -5 -11   1    1356     851
  -5 -11   1     365     518
  -5 -11  -1     645     656
  -5 -11  -1     545     609
  -4 -10   1   23891    1689
  -4 -10   1   25323    2172
  -4 -10  -1   25904    1841
  -4 -10  -1   24350    1983
  -3  -9  -1    3488    1151
  -3  -9   1    6254    1620
  -3  -9   1    7116    1128
  -3  -9  -1    6230    1292
  -2  -8  -1   10143     341
  -2  -8   1   14144     582
  -2  -8  -1   14197     638
  -2  -8   1   15791     739
  -1  -7   1   29899    1845
  -1  -7  -1   31163    1938
  -1  -7  -1   30396    1920
  -1  -7   1   31885    2222
  -1   5   1   77475    3105
   1  -5   1   79838    3297
   1  -5  -1   75888    3229
   1  -5  -1   81501    3111
   2  -4  -1   74083    3308
   2  -4   1   72108    3391
  -2   4   1   74771    3213
  -3   3   1   80982    7097
   3  -3   1   75655    7553
  -3   3   1   77412    7142
   3  -3  -1   76486    7307
  -4   2  -1    2953    1651
   4  -2   1    3031    1973
  -4   2   1    2800    1725
  -4   2   1    2744    1501
   5  -1  -1   84622    4600
  -5   1   1   84080    4597
  -5   1   1   92052    4620
  -5   1  -1   85943    4196
   5  -1   1   85125    4986
  -5   1  -1   83461    4692
  -7  -1  -1   64422    2508
  -7  -1   1   62379    2983
   7   1  -1   63297    2866
  -7  -1   1   65744    2959
  -7  -1  -1   62650    2992
   8   2  -1    8507    1212
  -8  -2  -1    8437    1280
  -8  -2  -1    7262     777
  -8  -2   1    6940    1195
  -8  -2   1    7896    1289
   9   3   1    7203    1575
  -9  -3   1    6113    1394
  -9  -3  -1    7148    1422
   9   3   1    6555    1324
   9   3  -1    5765    1179
  -9  -3  -1    6110     852
  -9  -3   1    5921    1295
 -10  -4  -1    4096    1314
  10   4  -1    5305    1294
 -10  -4   1    4004    1363
 -10  -4  -1    4855     960
 -10  -4   1    5457    1343
  10   4  -1    4153    1013
  11   5  -1     741     609
 -11  -5  -1     840     849
 -11  -5   1     678     835
 -11  -5  -1     259     419
 -11  -5   1     598     587
  11   5  -1     321     689
 -12  -6  -1    3575     990
 -12  -6   1    3783    1054
 -13  -7  -1    2313    1206
 -13  -7   1    2784    1261
 -14  -8  -1     182     900
 -14  -8   1     504     961
 -15  -9  -1     221     863
 -15  -9   1     777     805
 -16 -10  -1     642     971
 -16 -10   1    1058    1039
 -17 -11   1     648    1089
 -17 -11  -1      44    1048
 -18 -12  -1      37     951
 -18 -12   1      95    1057
 -19 -13  -1      75    1024
 -19 -13   1     308    1196
 -15 -21  -2     863    1657
 -14 -20  -2    6879    1641
 -14 -20   2    5551    1762
 -13 -19   2    3315    1665
 -13 -19  -2    2361    1345
 -12 -18   2    2920    1189
 -12 -18  -2    7733    1669
 -11 -17   2    8639    2005
 -11 -17  -2    6609    1662
 -10 -16  -2    6630    1545
 -10 -16   2   10597    2142
  -9 -15   2    9724    1788
  -9 -15  -2    8974    1589
  -9 -15  -2   10958    1473
  -8 -14  -2   24321    2056
  -8 -14   2   19525    2700
  -8 -14  -2   19280    2368
  -7 -13  -2   27632    2446
  -7 -13  -2   31828    2370
  -7 -13   2   28566    2746
  -7 -13   2   31387    2039
  -6 -12   2   38676    2561
  -6 -12  -2   37033    2272
  -6 -12   2   40665    1885
  -5 -11  -2   55298    2831
  -5 -11   2   51523    3143
  -5 -11   2   54282    2413
  -5 -11  -2   56781    2747
  -4 -10   2   99266    5012
  -4 -10   2  103803    4100
  -4 -10  -2  108561    4469
  -3  -9   2   99415    3792
  -3  -9   2   98386    4689
  -3  -9  -2  102406    4214
  -3  -9  -2  104295    4127
  -2  -8  -2   79300    2797
  -2  -8  -2   79393    2720
  -2  -8   2   77018    3219
  -2  -8   2   72866    2514
  -1  -7   2   70863    3302
  -1  -7  -2   63744    2775
  -1  -7   2   67441    2667
  -1  -7  -2   68952    2650
   0   6   2   42266    2386
   0  -6  -2   41481    2269
   0  -6   2   41951    2970
   0  -6  -2   37900    2507
   0  -6   2   39949    2460
   1  -5  -2   81675    6296
   1  -5  -2   95118    6081
  -1   5   2   93364    6171
   1  -5   2   95987    6495
   2  -4  -2  209766    9553
   2  -4   2  202975    9819
  -2   4   2  203025    9242
  -3   3   2  349327   15603
   3  -3   2  333169   15914
  -3   3   2  350490   15059
   3  -3  -2  327623   15437
  -4   2   2  119327    6911
  -4   2  -2  107332    7177
   4  -2   2  109152    7465
  -4   2   2  125394    7077
  -5   1   2   57036    4482
   5  -1   2   60768    4681
  -5   1   2   58783    4668
  -5   1  -2   64249    4718
   5  -1  -2   63951    4381
   5  -1   2   55950    5068
  -6   0   2  144894    7248
   6   0  -2  143026    6857
   6   0   2  139706    7128
  -6   0   2  138632    7263
  -6   0  -2  140350    7378
   6   0   2  140466    7771
  -6   0  -2  142593    6311
  -7  -1   2  126112    5199
  -7  -1  -2  128123    4210
  -7  -1   2  124039    5176
   7   1   2  122381    5082
   7   1  -2  129174    4711
   7   1   2  123084    5585
  -7  -1  -2  127417    5241
   8   2  -2  114903    4704
  -8  -2  -2  121331    5323
  -8  -2   2  125019    5420
  -8  -2  -2  118710    4204
  -9  -3  -2   29423    2253
  -9  -3   2   33778    2731
   9   3  -2   30801    2163
  -9  -3  -2   29684    2563
  -9  -3   2   31631    2637
  -9  -3  -2   29978    1769
 -10  -4   2   22085    2010
 -10  -4  -2   21115    1315
 -10  -4   2   22951    2110
  10   4  -2   21346    1676
 -10  -4  -2   25417    1822
 -10  -4  -2   22584    2055
 -11  -5   2   19564    2045
 -11  -5  -2   21894    2153
 -11  -5   2   18907    2129
  11   5  -2   20936    1720
 -11  -5  -2   23563    1862
 -12  -6   2   17156    2148
 -12  -6  -2   20685    1746
 -12  -6   2   13924    2197
 -12  -6  -2   18846    2047
 -13  -7  -2   13842    1456
 -13  -7   2   15102    2334
 -13  -7   2   13339    2007
 -13  -7  -2    9615    1932
 -14  -8   2   11853    2334
 -14  -8  -2   15065    1594
 -14  -8  -2   13161    2323
 -15  -9  -2    8111    1601
 -15  -9   2    8893    1745
 -16 -10  -2    3161    1401
 -16 -10   2    3757    1391
 -17 -11   2    3178    1414
 -17 -11  -2    1517    1330
 -18 -12  -2    1465    1233
 -18 -12   2    1401     964
 -19 -13  -2       8    1233
 -19 -13   2      16    1019
 -15 -21  -3      80    1666
 -14 -20  -3     304    1083
 -14 -20   3     688    1438
 -13 -19  -3    1485    1081
 -13 -19   3      49     997
 -12 -18  -3     483     868
 -12 -18   3     309    1144
 -11 -17  -3     187     836
 -11 -17   3     742    1101
 -10 -16  -3    1455     869
 -10 -16  -3    2444     908
 -10 -16   3    2901    1178
  -9 -15  -3     270     750
  -9 -15   3     303    1111
  -9 -15  -3      29     770
  -8 -14  -3      38     626
  -8 -14  -3      22     809
  -8 -14   3     130     888
  -7 -13  -3     359     686
  -7 -13   3     414     700
  -7 -13  -3     299     706
  -6 -12  -3   10532    1757
  -6 -12   3    8938    2134
  -6 -12   3    8279    1237
  -6 -12  -3    7776    1536
  -5 -11  -3     511     632
  -5 -11  -3     272     289
  -5 -11   3     597     512
  -5 -11   3     998     785
  -4 -10  -3   12278    1726
  -4 -10   3   12917    2265
  -4 -10   3   14106    1584
  -4 -10  -3   14630    1969
  -3  -9  -3   10689    1471
  -3  -9  -3   10457    1132
  -3  -9   3   10576    1067
  -3  -9   3   12954    1958
  -2  -8  -3   12179    1032
  -2  -8   3   13991    1153
  -2  -8   3   14596    1877
  -2  -8  -3   12369    1270
   1   7   3   33957    1430
  -1  -7  -3   33559    1652
  -1  -7   3   32051    1965
  -1  -7   3   34206    1492
  -1  -7  -3   34685    1307
   1  -5   3    2042    1059
  -1   5   3    2087     936
   1  -5  -3    2236     975
   2  -4  -3   10481    1219
  -2   4   3   10309    1250
   2  -4   3   10603    1395
  -3   3   3  256137   13314
   3  -3   3  256295   14132
   3  -3  -3  256512   13449
  -3   3   3  281782   13551
  -4   2   3   15928    4542
   4  -2  -3   15743    4111
   4  -2   3   15901    4527
  -4   2   3   15730    4090
   4  -2   3   15044    4912
   5  -1   3    1994    1286
  -5   1   3    2339     893
  -5   1  -3    2563    1096
   5  -1   3    3079    1621
   5  -1  -3    2716     843
  -5   1   3    2971    1371
   7   1  -3   24699    2313
  -7  -1  -3   25405    2766
  -7  -1   3   26978    3224
  -7  -1  -3   30334    3046
  -7  -1   3   23489    2897
  -8  -2   3    4579     949
  -8  -2  -3    5231    1039
   8   2  -3    5590     641
  -8  -2  -3    5627     955
  -8  -2   3    5224    1184
  -9  -3  -3    5115    1017
  -9  -3   3    5203    1219
   9   3  -3    6082     701
  -9  -3  -3    4125    1048
  -9  -3   3    7107    1402
 -10  -4   3   13565    2051
 -10  -4  -3    9441    1685
  10   4  -3    9475     967
 -10  -4  -3   10145    1351
 -11  -5  -3     763     877
 -11  -5   3      72     767
 -12  -6  -3     879     787
 -12  -6  -3    1629     854
 -12  -6   3     783     944
 -13  -7  -3    2448     909
 -13  -7   3    2108    1034
 -13  -7  -3    1039     826
 -14  -8   3    4339    1283
 -14  -8  -3    3838     998
 -14  -8  -3    3723    1348
 -14  -8   3    2386    1116
 -15  -9   3     468     748
 -15  -9  -3    1457    1080
 -16 -10  -3     837     903
 -16 -10   3     305     790
 -17 -11   3       8     864
 -17 -11  -3     158     706
 -18 -12  -3    1539    1219
 -18 -12   3    1397     967
 -19 -13  -3     887    1290
 -19 -13   3       4     957
 -14 -20   4      33    1370
 -14 -20  -4    3888    1383
 -13 -19  -4     278     921
 -13 -19   4     486    1241
 -12 -18   4    2423    1361
 -12 -18  -4     667     939
 -11 -17   4    1341    1339
 -11 -17  -4    4352    1431
 -11 -17  -4    2337    1309
 -10 -16  -4    4396    1367
 -10 -16   4    2491    1366
 -10 -16  -4    3537    1195
  -9 -15   4   11112    1852
  -9 -15  -4    9379    1403
  -8 -14  -4   18760    2086
  -8 -14  -4   18648    2180
  -8 -14   4   12402    2323
  -7 -13  -4   13383    2074
  -7 -13   4    6827    2067
  -6 -12  -4    8963    1295
  -6 -12   4    7455    1306
  -5 -11  -4   32429    2227
  -5 -11  -4   31857    2360
  -5 -11   4   33605    2942
  -5 -11   4   36495    1962
  -4 -10   4   26996    2513
  -4 -10  -4   19286    1598
  -4 -10   4   25885    1570
  -4 -10  -4   19810    1875
  -3  -9   4   39141    2406
  -3  -9  -4   40400    2055
  -3  -9  -4   40551    1710
  -3  -9   4   38228    1615
  -2  -8  -4   53539    2157
  -2  -8   4   54495    3128
  -2  -8   4   58900    2318
  -2  -8  -4   57461    2632
   1   7   4  171555    5895
  -1  -7  -4  162119    5788
  -1  -7   4  167712    6132
  -1  -7   4  179029    7334
  -1  -7  -4  163422    6284
   0  -6   4  196924   10732
   0   6   4  191495    9131
   0  -6  -4  185645    9037
   0  -6   4  187155    9559
   0  -6  -4  187264    9539
   1  -5  -4  223361    8224
  -1   5   4  224751    8068
   1  -5   4  215047    8437
  -2   4   4  141257    4322
   2  -4   4  135155    4566
   2  -4  -4  132584    4086
   3  -3   4  194046   10258
   3  -3   4  181274   11084
  -3   3   4  194156   10520
  -3   3   4  196356   10242
   4  -2   4  218919    7570
   4  -2  -4  225742    7186
   4  -2   4  221933    8274
  -4   2   4  225029    7373
  -4   2   4  223118    7761
   5  -1   4  301135   10057
  -5   1   4  299658    9225
  -5   1   4  285458    9331
   5  -1   4  301498    9177
  -5   1  -4  296731    9490
   5  -1  -4  294644    8631
  -6   0  -4   97874    7164
  -6   0  -4   84953    7310
  -6   0   4  103588    7402
   6   0  -4   97424    6532
  -6   0   4   95903    7589
  -7  -1   4   68268    5197
   7   1  -4   68079    3902
  -7  -1  -4   65711    4619
  -7  -1  -4   71709    4868
  -7  -1   4   64807    4830
  -8  -2  -4    6471     999
  -8  -2  -4    5068     937
  -8  -2   4    7076    1132
  -8  -2   4    4731    1061
  -9  -3   4   12565    2215
  -9  -3  -4   13632    2083
  -9  -3  -4   13469    1970
 -10  -4  -4   28900    2247
 -10  -4   4   24711    2443
 -10  -4  -4   25588    2341
 -11  -5   4   25617    2107
 -11  -5  -4   23218    1761
 -11  -5  -4   24601    1988
 -12  -6  -4   19117    2046
 -12  -6   4   18291    2496
 -12  -6  -4   15694    1673
 -13  -7   4   11041    2117
 -13  -7  -4   11663    1799
 -13  -7  -4   10299    1945
 -14  -8  -4    1213     933
 -14  -8  -4    1395     929
 -14  -8   4    2833    1208
 -15  -9   4    4863    1153
 -15  -9  -4    5096    1176
 -15  -9  -4    4993    1401
 -16 -10   4    3634    1186
 -16 -10  -4    1531     982
 -17 -11   4    1608     898
 -17 -11  -4    2263    1244
 -18 -12  -4    1568    1450
 -18 -12   4      25     775
 -19 -13  -4       9    1047
 -19 -13   4    1507    1038
 -14 -20   5      32    1430
 -13 -19   5      11    1365
 -12 -18   5     344    1059
 -12 -18  -5    1432    1138
 -11 -17  -5    1097    1176
 -11 -17  -5     621     750
 -11 -17   5     417    1181
 -10 -16  -5      81     923
 -10 -16  -5     431     839
 -10 -16   5     109     933
  -9 -15  -5     325     608
  -9 -15   5     801    1149
  -9 -15  -5    2949    1153
  -8 -14  -5     269     403
  -8 -14   5    1251    1242
  -8 -14  -5     456     841
  -7 -13  -5     864    1266
  -7 -13  -5     537     915
  -7 -13   5    1193    1577
  -6 -12   5    8518    1754
  -6 -12  -5   11344    1394
  -6 -12  -5   12010    1761
  -5 -11   5     185     760
  -5 -11  -5    1933     600
  -5 -11  -5    3292     973
  -4 -10  -5    4569    1105
  -4 -10  -5    3848    1449
  -4 -10   5    4507    1865
  -4 -10   5    3541     914
  -3  -9  -5    1216     680
  -3  -9   5    1067     675
  -3  -9  -5    1693     425
  -3  -9   5    1483     475
  -2  -8  -5    3151     851
  -2  -8   5    1698     808
  -2  -8  -5    2445     465
  -2  -8   5    2305     563
   2   8   5    1413     407
   1   7   5    5299     832
  -1  -7   5    4675     793
  -1  -7  -5    5936    1079
  -1  -7   5    4306    1217
  -1  -7  -5    3717     505
  -1   5   5    4238     711
   1  -5   5    3116     916
   1  -5  -5    4814     704
  -2   4   5   26985    1429
   2  -4  -5   24927    1230
   2  -4   5   27903    1596
  -2   4   5   26899     869
  -3   3   5    9166    1295
   3  -3   5   13052    1702
   3  -3   5   11362    1457
  -3   3   5   11316     834
   4  -2  -5   43348    2050
  -4   2   5   43736    2105
  -4   2   5   39343    2578
   4  -2   5   43098    2928
   4  -2   5   41532    2679
   5  -1  -5    2523    1274
  -5   1   5    1873    2090
  -5   1   5    2261    1488
  -7  -1   5     718    1645
  -7  -1  -5     758    1276
  -7  -1  -5     709    1257
  -7  -1   5     724    1278
  -8  -2  -5    9211    1448
  -8  -2  -5    8972    1468
  -8  -2   5   10752    1660
  -8  -2   5    9218    2109
  -9  -3   5    1280     837
  -9  -3  -5    1414     738
  -9  -3  -5    1956     779
 -10  -4  -5    6608    1201
 -10  -4   5    5819    1388
 -10  -4  -5    3541     976
 -11  -5   5    9100    1630
 -11  -5  -5    7232    1187
 -11  -5  -5    8696    1357
 -12  -6   5    2684    1221
 -12  -6  -5    5622    1241
 -12  -6  -5    3029    1108
 -13  -7   5     486     776
 -13  -7  -5    1440     863
 -13  -7  -5     619     781
 -14  -8  -5     131     699
 -14  -8  -5    1410    1059
 -14  -8   5    1278    1042
 -15  -9  -5    1415    1048
 -15  -9   5     907    1005
 -15  -9   5    1052    1169
 -15  -9  -5    1958    1137
 -16 -10  -5     712     864
 -16 -10   5     107     739
 -16 -10  -5    1475     857
 -17 -11   5     276     848
 -17 -11  -5     434    1045
 -18 -12   5     109     688
 -18 -12  -5     106     989
 -19 -13   5     126     783
 -19 -13  -5     762    1385
 -13 -19   6     147    1281
 -12 -18   6    5826    2019
 -12 -18  -6    5502    1498
 -11 -17   6    2560    1693
 -11 -17  -6    2069    1244
 -10 -16  -6   16303    2340
 -10 -16  -6    4546    1238
 -10 -16   6   10235    2405
  -9 -15  -6    4261    1211
  -9 -15   6    4613    1512
  -9 -15  -6    1485     531
  -8 -14  -6    7384    1399
  -8 -14  -6   10444    1931
  -8 -14   6    8547    2041
  -7 -13  -6   15978    1668
  -7 -13   6   16253    2921
  -7 -13  -6   20772    2486
  -6 -12  -6   13758    1642
  -6 -12   6   22369    2623
  -6 -12  -6   13372    1195
  -5 -11  -6   10633    1286
  -5 -11   6   12395    2305
  -5 -11  -6   10751    1728
  -4 -10  -6   17530    1674
  -4 -10   6   19791    3053
  -4 -10  -6   16889    2034
  -4 -10   6   19182    1544
  -3  -9   6   43561    3227
  -3  -9   6   45106    2185
  -3  -9  -6   42929    2135
   3   9   6   47990    2240
  -3  -9  -6   50355    2822
  -2  -8   6  123651    5510
   2   8   6  126423    5405
  -2  -8  -6  125001    5317
  -2  -8   6  129869    7067
  -2  -8  -6  130691    6014
  -1  -7  -6  163320    6686
   1   7   6  161147    6878
  -1  -7  -6  165936    7416
  -1  -7   6  155775    8457
  -1  -7   6  152552    7115
   0  -6   6  220952   10195
   0   6   6  229918    9753
   0  -6  -6  237045   10177
   1  -5  -6  171151    6410
   1  -5   6  166611    6761
  -1   5   6  174288    6483
   2  -4   6  112545    4306
  -2   4   6  112777    3359
  -2   4   6  114187    4038
   2  -4   6  121766    4074
   2  -4  -6  114419    3713
   3  -3   6   94296    5748
  -3   3   6   96818    5404
   3  -3   6   92625    5265
  -3   3   6   97805    4728
   4  -2   6  250476    8346
   4  -2   6  242357    9076
  -4   2   6  249600    8074
  -4   2   6  245996    8560
   4  -2  -6  244452    7682
  -5   1   6  162846    6091
  -5   1  -6  156943    6036
   5  -1  -6  162387    5495
  -5   1   6  171503    6788
  -6   0  -6  175069   10045
   6   0  -6  178534    8921
  -6   0  -6  168680    9765
  -6   0   6  182412   10396
  -6   0   6  180660   10051
  -7  -1   6   77752    5565
  -7  -1   6   66082    4868
  -7  -1  -6   79305    4922
  -7  -1  -6   78160    5039
  -8  -2  -6   55155    3222
  -8  -2   6   53826    3321
  -8  -2  -6   54674    3138
  -9  -3  -6   35827    3013
  -9  -3  -6   37346    3139
  -9  -3   6   35749    3275
 -10  -4  -6   18508    1902
 -10  -4  -6   15686    1704
 -10  -4   6   18160    2354
 -11  -5   6   11331    2036
 -11  -5  -6   11439    1792
 -11  -5  -6   14386    1810
 -12  -6   6   10829    1999
 -12  -6  -6   12826    1888
 -12  -6  -6   13238    1762
 -13  -7  -6   11152    1639
 -13  -7  -6   11266    1845
 -13  -7   6   13424    2104
 -14  -8  -6   13259    1943
 -14  -8  -6    9293    1976
 -15  -9   6    3052    1048
 -15  -9  -6    3059    1113
 -15  -9  -6    3709    1268
 -16 -10  -6    5290    1531
 -16 -10  -6    3069    1110
 -16 -10   6    2616     998
 -17 -11   6     487     747
 -17 -11  -6    1167    1075
 -18 -12  -6    4132    1507
 -18 -12   6    1347     772
 -19 -13  -6    1787    1824
 -13 -19   7     144    1496
 -12 -18  -7     248    1095
 -12 -18   7     541    1446
 -11 -17  -7    2676    1263
 -11 -17   7      96    1118
 -10 -16  -7      33     918
 -10 -16   7      40    1076
  -9 -15   7     159    1095
  -9 -15  -7     219     901
  -8 -14  -7    2925    1338
  -8 -14  -7    2103     939
  -8 -14   7    3034    1539
  -7 -13  -7    4376    1451
  -7 -13   7    2461    1505
  -7 -13  -7    3651    1101
  -6 -12   7    5203    1789
  -6 -12  -7    4399    1406
  -6 -12  -7    4854    1151
  -5 -11  -7    3134    1292
  -5 -11   7    3754    1560
  -5 -11  -7    2608     887
  -4 -10  -7     778     719
  -4 -10   7     290     743
  -4 -10  -7     451     391
   3   9   7   10167    1157
  -3  -9   7   12733    1224
  -3  -9   7   11644    2114
  -3  -9  -7   13073    1699
  -3  -9  -7    9712     903
  -2  -8  -7    2041     786
   2   8   7    2111     552
  -2  -8  -7    2196     438
  -2  -8   7    2178     770
  -2  -8   7    1940     628
  -1  -7   7   11985    1321
   1   7   7   12268    1311
  -1  -7  -7   13530    1725
  -1  -7   7   12477    2205
  -1   5   7   25758    1351
   1  -5  -7   24161    1210
   1  -5   7   21807    1284
  -2   4   7   12539    1896
   2  -4   7   12969    2115
   2  -4   7   13756    1931
   2  -4  -7   10026    1360
  -2   4   7   11515    1198
  -3   3   7     618     654
   3  -3  -7    2874     310
   3  -3   7     600     790
   3  -3   7    1495     793
  -3   3   7    1259     387
  -4   2   7    1204     361
  -4   2   7    1720     475
   4  -2  -7     948     461
  -5   1   7   14519    1314
  -5   1  -7   19299    1260
   5  -1  -7   19232     908
  -5   1   7   17301    1080
   7   1  -7    9156     597
  -7  -1   7    9417    1250
  -7  -1  -7    8031    1093
  -7  -1   7    9043    1507
  -7  -1  -7    7500    1069
  -8  -2  -7    2662     671
  -8  -2  -7    2669     826
  -8  -2   7    2649     811
  -9  -3  -7   11387    1736
  -9  -3   7    9316    1764
  -9  -3  -7   10998    1641
 -10  -4  -7    2480     799
 -10  -4   7    2905    1079
 -10  -4  -7    1182     753
 -11  -5  -7    2003     988
 -11  -5  -7    5102    1248
 -11  -5   7    4393    1423
 -12  -6   7    3144    1730
 -12  -6  -7    4900    1582
 -12  -6  -7    2247    1266
 -13  -7  -7     299     679
 -13  -7   7     940    1051
 -13  -7  -7     409     648
 -14  -8  -7    1345     876
 -14  -8   7      78     802
 -14  -8  -7      81     715
 -15  -9  -7      81     740
 -15  -9  -7     337     660
 -15  -9   7    1280     770
 -16 -10   7    1307     868
 -16 -10  -7     154     867
 -16 -10   7     228    1148
 -16 -10  -7      92     779
 -17 -11  -7    1200     987
 -17 -11   7     637     892
 -17 -11  -7      69     836
 -18 -12  -7     366    1029
 -18 -12   7     368     766
 -19 -13  -7     209    1552
 -13 -19  -8     477    1569
 -12 -18  -8    1184    1296
 -12 -18   8     919    1351
 -11 -17   8    4026    1657
 -11 -17  -8     269    1101
 -10 -16   8    5069    2024
 -10 -16  -8    3945    1503
  -9 -15  -8   15031    1950
  -9 -15   8   10592    2068
  -8 -14  -8   28116    2610
  -8 -14   8   19954    3210
  -7 -13  -8   21448    2673
  -7 -13   8   16426    3051
  -6 -12  -8   20160    2271
  -6 -12   8   13820    2264
  -5 -11  -8   37894    2722
  -5 -11  -8   32312    2028
  -5 -11   8   33236    3157
  -4 -10   8   27587    3327
  -4 -10  -8   29634    2438
  -4 -10  -8   26559    1776
  -3  -9   8   30121    3259
  -3  -9  -8   36466    2208
  -3  -9  -8   34213    2881
   3   9   8   34138    2285
  -2  -8   8   66650    5025
  -2  -8  -8   63237    4096
   2   8   8   69221    3688
  -2  -8   8   69709    3768
  -1  -7   8   39437    3558
  -1  -7  -8   35854    2778
  -1  -7   8   38786    2707
   1   7   8   37653    2600
   0  -6  -8   61378    3261
   0   6   8   64888    3297
   0  -6   8   61342    3388
   1  -5  -8   70677    3070
   1  -5   8   69491    3282
   1  -5   8   69837    3506
  -1   5   8   62820    3193
   2  -4   8  132868    5533
   2  -4   8  137054    6039
  -2   4   8  140149    5710
   2  -4  -8  139497    5208
  -2   4   8  130037    5042
   3  -3   8   88707    5064
  -3   3   8   92739    5217
   3  -3   8   91977    5569
  -3   3   8   92831    4535
  -4   2   8   58164    3109
   4  -2  -8   54550    2822
  -4   2   8   58388    3790
   5  -1  -8   58179    2881
  -5   1   8   61063    3396
  -5   1  -8   55324    3278
  -5   1   8   69881    4241
  -6   0   8   30611    3383
  -6   0   8   35673    2995
  -6   0  -8   34532    3031
   6   0  -8   37883    2381
  -7  -1   8   35461    2519
  -7  -1  -8   33847    2469
  -7  -1   8   36795    3050
  -8  -2   8   25125    2384
  -8  -2  -8   34537    2498
  -8  -2  -8   31595    2455
  -9  -3  -8   11510    1860
  -9  -3  -8   11674    2058
  -9  -3   8   11461    2271
 -10  -4  -8   12061    1799
 -10  -4  -8   12467    1857
 -10  -4   8    8139    1617
 -11  -5   8   13709    2040
 -11  -5  -8   17602    2056
 -11  -5  -8   14957    1927
 -12  -6  -8   12887    1969
 -12  -6  -8   14409    2182
 -12  -6   8   15170    2526
 -13  -7  -8    6008    1468
 -13  -7   8    7408    1789
 -13  -7  -8    9947    1637
 -14  -8  -8    8195    1612
 -14  -8  -8    5652    1320
 -14  -8   8    5325    1452
 -15  -9   8     386     911
 -15  -9  -8    2568    1276
 -15  -9  -8    1590     930
 -16 -10  -8    2505    1207
 -16 -10   8    2726    1119
 -16 -10   8     284    1221
 -16 -10  -8    2469    1056
 -17 -11   8     779     767
 -17 -11  -8    2659     991
 -17 -11  -8    4377    1578
 -18 -12   8     185     639
 -18 -12  -8    2438    1288
 -13 -19  -9     163    1629
 -12 -18  -9     387    1271
 -12 -18   9      54    1236
 -11 -17  -9    1046    1131
 -11 -17   9    2111    1553
 -10 -16   9    1264    1167
 -10 -16  -9    2409    1273
  -9 -15   9    1560    1208
  -9 -15  -9    3076    1392
  -8 -14  -9    1257    1006
  -8 -14   9    2039    1294
  -7 -13  -9    3092    1291
  -7 -13   9    1128    1153
  -6 -12   9     332     634
  -6 -12  -9      84     842
  -5 -11  -9    3582    1230
  -5 -11   9    1516    1044
  -4 -10   9    8584    2458
  -4 -10  -9    8927    2060
  -3  -9  -9    3342    1021
  -3  -9   9    2351    1100
   3   9   9    3531     829
  -2  -8  -9     833     998
  -2  -8   9     569    1005
  -2  -8   9     720     799
   2   8   9    1383     787
   1   7   9   29103    2079
  -1  -7   9   27467    2081
  -1  -7  -9   24091    2128
  -1  -7   9   30377    2866
  -1   5   9     522     829
   1  -5   9     352     722
   1  -5   9    1594    1211
   1  -5  -9     733     914
  -2   4   9    3025     865
   2  -4  -9    2696     997
   2  -4   9    2492    1321
   2  -4   9    3570    1282
  -2   4   9    3499    1212
  -3   3   9    2162     990
   3  -3   9    1614     878
   3  -3  -9    1511     702
  -3   3   9    1938     628
   3  -3   9     986    1064
  -4   2   9    8528    1366
   4  -2  -9    8631    1280
  -4   2   9    8898    2206
  -5   1   9    4190    1158
   5  -1  -9    5248     969
  -5   1   9    5453    1636
  -5   1  -9    5805    1357
  -7  -1   9    2718    1415
  -7  -1   9    4782    1998
  -7  -1  -9    4339    1569
  -8  -2  -9    2688     815
  -8  -2   9    2150     889
  -8  -2   9    4194     947
  -9  -3  -9   10992    1761
  -9  -3  -9   10717    1773
  -9  -3   9    8317    1707
 -10  -4  -9    1330     777
 -10  -4   9    1229     793
 -10  -4  -9    1605     758
 -11  -5   9     216     652
 -11  -5  -9     560     850
 -11  -5  -9      82     646
 -12  -6  -9    3142     950
 -12  -6   9    1921     948
 -12  -6  -9    1048     822
 -13  -7   9    2447    1083
 -13  -7  -9    1925     779
 -13  -7  -9    2567     818
 -14  -8  -9     324     786
 -14  -8   9     143     918
 -14  -8  -9     150     736
 -15  -9   9    2974    1428
 -15  -9  -9    2502     922
 -15  -9   9    3659    1364
 -15  -9  -9    3873    1322
 -16 -10  -9      16     825
 -16 -10  -9     418     816
 -16 -10   9     252     933
 -16 -10   9    1016    1186
 -17 -11  -9     199     936
 -17 -11   9     108     782
 -17 -11   9     228    1468
 -17 -11  -9     205     802
 -18 -12   9      12     865
 -18 -12  -9     370    1434
 -18 -12  -9      16    1078
 -12 -18 -10    2826    1569
 -11 -17  10    4753    1612
 -11 -17 -10    6497    1638
 -10 -16  10    5606    1890
 -10 -16 -10    6887    1599
  -9 -15 -10    5431    1700
  -9 -15  10    6217    2238
  -8 -14  10    4826    1600
  -8 -14 -10    9699    1795
  -7 -13  10   12293    2921
  -7 -13 -10   23908    2944
  -6 -12  10   22151    3544
  -6 -12 -10   24763    2489
  -5 -11  10   14491    2539
  -5 -11 -10   16285    2272
  -4 -10  10   59127    4759
  -4 -10 -10   66265    4130
  -3  -9  10   16003    2802
  -3  -9 -10   25109    2328
  -2  -8 -10   64706    4056
   2   8  10   68997    3744
  -2  -8  10   73005    5127
  -1  -7 -10   38318    2810
   1   7  10   35309    2567
  -1  -7  10   39393    2768
  -1  -7  10   40055    3535
   0  -6 -10   63862    3206
   0   6  10   59626    3137
   0  -6  10   62147    3901
   0  -6  10   63359    3373
  -1   5  10   48992    3207
   1  -5 -10   40516    2756
   1  -5  10   41384    3265
   1  -5  10   45962    3104
  -2   4  10   15722    1336
   2  -4 -10   16478    1641
  -2   4  10   16673    2122
   2  -4  10   15193    2229
   2  -4  10   17348    2077
   3  -3  10   34189    3115
  -3   3  10   36352    2392
  -3   3  10   39671    3002
   3  -3 -10   38017    2351
   3  -3  10   35267    2795
   4  -2 -10   29380    1948
  -4   2  10   32159    2743
  -4   2  10   29071    2127
  -5   1  10   15251    2581
   5  -1 -10   14958    1408
  -5   1  10   13523    1647
  -5   1 -10   12451    1849
  -6   0 -10   18506    2083
  -6   0  10   16523    1895
  -6   0  10   19428    2898
  -7  -1  10   26517    3048
  -7  -1  10   27510    2124
  -7  -1 -10   25971    2352
  -8  -2  10   22263    3162
  -8  -2  10   22181    2511
  -8  -2 -10   25227    2287
  -9  -3  10   20869    2404
  -9  -3 -10   22321    2361
 -10  -4 -10   23627    2253
 -10  -4 -10   24199    2260
 -10  -4  10   20514    2629
 -11  -5  10   11387    2038
 -11  -5 -10    9795    1784
 -12  -6  10    6933    1938
 -12  -6 -10    7859    1656
 -12  -6 -10    6731    1770
 -13  -7 -10    5664    1448
 -13  -7  10    3702    1600
 -13  -7 -10    4624    1079
 -14  -8 -10    9946    2135
 -14  -8  10    7780    1895
 -15  -9  10    2454    1335
 -15  -9 -10    3689    1259
 -15  -9  10    2823    1252
 -15  -9 -10    1604     900
 -16 -10 -10    7311    1717
 -16 -10  10    2734    1074
 -16 -10 -10    4685    1248
 -16 -10  10    4122    1634
 -17 -11  10    2517    1166
 -17 -11 -10    2356    1304
 -17 -11  10    1097    1486
 -17 -11 -10    2190     950
 -18 -12 -10    1193    1578
 -18 -12 -10     534    1363
 -11 -17  11     279    1037
 -11 -17 -11     302    1132
 -10 -16  11     293    1155
 -10 -16 -11     486    1098
  -9 -15  11     457    1105
  -9 -15 -11    2682    1125
  -8 -14 -11    1428    1141
  -8 -14  11    1376    1072
  -7 -13  11     898     909
  -7 -13 -11     623     955
  -6 -12 -11    3206    1259
  -6 -12  11    1630    1244
  -5 -11 -11    5326    1375
  -5 -11  11    5671    1548
  -4 -10  11    1771    1461
  -4 -10 -11    1764    1310
  -3  -9  11   15990    2769
  -3  -9 -11   13896    2183
  -2  -8 -11      87     781
   2   8  11     462     672
  -2  -8  11    1394    1168
  -1  -7  11    8584    1459
   1   7  11    7568    1244
  -1  -7  11    8777    1827
  -1  -7 -11    9501    1583
  -1   5  11    3681    1183
   1  -5 -11    2964    1053
   1  -5  11    3144    1339
   1  -5  11    2626    1050
   2  -4  11    3778    1363
   2  -4 -11    1816     824
   2  -4  11    2010     932
  -2   4  11    1279     827
   3  -3  11   16267    2977
   3  -3  11   11451    2281
   3  -3 -11   11511    1616
  -3   3  11   14910    2648
  -4   2  11     976     845
  -4   2  11     116     544
   4  -2 -11     284     581
  -5   1 -11     489     638
  -5   1  11     435     865
   5  -1 -11     465     512
  -5   1  11     441     623
  -7  -1  11   15052    3051
  -7  -1  11   19253    2307
  -7  -1 -11   18490    2603
  -8  -2  11     289     712
  -8  -2 -11     545     826
  -8  -2  11    1071     919
  -9  -3  11     101     672
  -9  -3 -11     137     768
  -9  -3  11    1474    1168
 -10  -4  11    1102    1040
 -10  -4 -11    2368    1125
 -10  -4  11    2704    1456
 -11  -5 -11     705    1074
 -11  -5 -11     223     893
 -11  -5  11    1200    1093
 -12  -6  11     869    1134
 -12  -6 -11    1425     912
 -12  -6 -11     917     797
 -13  -7 -11    2287    1150
 -13  -7 -11    1334     997
 -13  -7  11    2354    1175
 -13  -7  11    2006    1506
 -14  -8  11      37    1044
 -14  -8  11      90    1030
 -14  -8 -11      41     650
 -14  -8 -11     656     907
 -15  -9  11      21    1084
 -15  -9  11    2534    1234
 -15  -9 -11      22     826
 -15  -9 -11    1004     910
 -16 -10 -11     122     767
 -16 -10  11     980    1173
 -16 -10  11     116    1501
 -16 -10 -11     510     966
 -17 -11  11      15    1758
 -17 -11  11     188     907
 -17 -11 -11     293    1366
 -17 -11 -11     906     896
 -11 -17 -12    3157    1763
 -10 -16 -12    6203    1755
 -10 -16  12    6639    2225
  -9 -15 -12    9091    1886
  -9 -15  12    5617    2279
  -8 -14 -12    6139    1766
  -8 -14  12    6388    2130
  -7 -13 -12    4230    1650
  -7 -13  12    4756    2044
  -6 -12 -12   21306    3206
  -6 -12  12   22060    3899
  -5 -11  12   11400    2343
  -5 -11 -12   16624    2491
  -4 -10 -12   17453    2670
  -4 -10  12   22721    3751
  -3  -9 -12   31181    2667
  -3  -9  12   27368    3626
  -2  -8 -12   16683    2136
  -2  -8  12   14366    2501
  -1  -7 -12    9822    1804
  -1  -7  12    9445    2203
   1   7  12   12002    1827
   0  -6  12    7418    1879
   0  -6 -12   10644    1724
   0  -6  12   12220    2012
   0   6  12   11788    1909
   1  -5  12   28506    2750
   1  -5  12   20168    2748
   1  -5 -12   21561    2261
  -1   5  12   19012    2451
   2  -4  12   41350    3649
   2  -4  12   35534    3124
  -2   4  12   32641    3076
   2  -4 -12   40255    2823
  -3   3  12   32017    2829
   3  -3 -12   36135    2403
   3  -3  12   34681    3667
   3  -3  12   34797    2876
   4  -2 -12   26306    2158
  -4   2  12   30072    3513
  -5   1 -12   26402    2329
  -5   1  12   28696    3436
  -6   0  12   33338    3548
  -6   0 -12   40676    2737
  -7  -1  12   11704    2267
  -7  -1 -12   19248    2369
  -7  -1  12   12762    1964
  -8  -2  12   46417    4237
  -8  -2  12   46861    3675
  -8  -2 -12   48120    3699
  -9  -3 -12   17024    2383
  -9  -3  12   15638    2846
  -9  -3  12   18990    2528
 -10  -4  12    9310    2476
 -10  -4 -12   10142    2151
 -10  -4  12   10693    2245
 -11  -5 -12   12197    2284
 -11  -5  12    7534    2099
 -11  -5  12    8937    2532
 -12  -6 -12    5101    1322
 -12  -6  12    3406    1721
 -12  -6  12    5519    1418
 -13  -7 -12    6938    1719
 -13  -7 -12    2090     993
 -13  -7  12    3453    1739
 -13  -7  12    3754    1405
 -14  -8  12    3096    1805
 -14  -8 -12     474     851
 -14  -8  12   10301    2845
 -14  -8 -12    2032    1212
 -15  -9 -12    5030    1369
 -15  -9  12    4417    1471
 -15  -9 -12    2466    1089
 -15  -9  12    2838    1915
 -16 -10 -12    1872    1025
 -16 -10  12     818    1989
 -16 -10  12     541    1064
 -16 -10 -12    2449    1299
 -10 -16 -13       6    1313
 -10 -16  13       6    1120
  -9 -15  13     105    1112
  -9 -15 -13     465    1182
  -8 -14  13      98    1196
  -8 -14 -13    1513    1303
  -7 -13 -13     299     985
  -7 -13  13     280    1107
  -6 -12 -13    1971    1349
  -6 -12  13    1150    1287
  -5 -11 -13     539    1131
  -5 -11  13    1586    1364
  -4 -10  13    2011    1287
  -4 -10 -13    1290     928
  -3  -9 -13    1107    1050
  -3  -9  13    1678    1047
  -2  -8 -13    1073     837
  -2  -8  13    1162     866
  -1  -7  13    1222     893
  -1  -7 -13    2991    1083
  -1   5  13    7173    1863
   1  -5  13    9547    2299
   1  -5 -13    6117    1656
   1  -5  13    7032    1800
   2  -4  13     974    1135
  -2   4  13     245     660
   2  -4 -13     213     566
   2  -4  13     355     642
   3  -3  13    6511    1700
   3  -3 -13    7086    1393
   3  -3  13    3154    1714
  -3   3  13    4083    1422
  -4   2  13    3895    1462
  -5   1 -13   10245    1990
  -5   1  13   10625    2494
  -7  -1  13    1746     912
  -7  -1 -13    2237    1031
  -8  -2 -13    3810    1253
  -8  -2  13    2568    1142
  -9  -3 -13    1626     879
  -9  -3  13    1999    1039
 -10  -4  13     517    1181
 -10  -4  13      24     781
 -10  -4 -13      23     843
 -11  -5 -13    1269    1163
 -11  -5  13     455     919
 -11  -5  13     748    1354
 -12  -6 -13    1341     980
 -12  -6  13      99     834
 -12  -6  13    1692    1321
 -13  -7  13     215    1271
 -13  -7  13    1757    1396
 -13  -7 -13      84     900
 -14  -8 -13       3     762
 -14  -8  13    1569    2206
 -14  -8  13     926    1412
 -15  -9 -13     121    1167
 -15  -9  13     473    1346
 -15  -9  13      59    1698
 -15  -9 -13       1     784
 -16 -10  13      29    1252
  -9 -15 -14    7441    2105
  -9 -15  14    6568    2583
  -8 -14  14    2845    1830
  -8 -14 -14    6107    1938
  -7 -13  14    4388    1862
  -7 -13 -14     947    1446
  -6 -12 -14    9374    2306
  -6 -12  14   10150    2678
  -5 -11  14   19502    3719
  -5 -11 -14   10488    2431
  -4 -10  14   15749    3130
  -4 -10 -14   18277    2748
  -3  -9 -14   15135    2209
  -3  -9  14   10247    2261
  -2  -8 -14    9675    1641
  -2  -8  14    8766    2037
  -1  -7 -14   15226    2204
  -1  -7  14   15310    2885
   0  -6  14   25605    3746
   0   6  14   31409    2840
   0  -6 -14   27368    2597
   1  -5  14   20961    2791
  -1   5  14   22185    2997
   1  -5 -14   19087    2204
   1  -5  14   27724    3537
   2  -4  14   15364    2350
   2  -4  14   16613    2801
   2  -4 -14   15217    1989
  -2   4  14   15429    2466
  -3   3  14   19386    2806
   3  -3  14   21402    2782
   3  -3  14   14812    2795
   3  -3 -14   19471    2035
  -4   2  14   17477    2849
   4  -2  14   21821    3409
   4  -2  14   14659    2493
  -5   1  14   26295    3428
  -6   0  14   36605    4117
  -6   0 -14   38780    2926
  -7  -1 -14   17997    2468
  -7  -1  14   12952    2621
  -8  -2 -14   14955    2300
  -8  -2  14   14278    2804
  -9  -3  14    8504    2068
  -9  -3 -14    8289    1799
 -10  -4  14    6243    1887
 -10  -4 -14   10747    2277
 -11  -5  14    5133    2256
 -11  -5 -14    6473    1999
 -12  -6 -14    5439    1673
 -12  -6  14    1131    1417
 -13  -7 -14    3995    1330
 -13  -7  14      32    1621
 -14  -8 -14    2679    1203
 -14  -8  14      26    1970
  -8 -14  15      16    1270
  -7 -13  15    1808    1518
  -7 -13 -15     523    1316
  -6 -12  15     341    1233
  -6 -12 -15     330    1151
  -5 -11  15    1818    1403
  -5 -11 -15     317    1082
  -4 -10  15    5238    2038
  -3  -9  15    4101    1930
  -3  -9 -15    1734    1231
  -2  -8  15     593    1022
  -2  -8 -15     781     817
  -1  -7 -15     210     777
  -1  -7  15     216     727
   1  -5 -15    8967    1628
   1  -5  15    5639    1456
  -1   5  15    7744    1469
  -2   4  15      34     770
   2  -4 -15      64     526
   2  -4  15     642    1138
   2  -4  15     827     826
   3  -3  15     176    1073
  -3   3  15    1173     951
   3  -3  15     769     815
   4  -2  15    3288    1643
   4  -2  15    3588    1401
  -4   2  15    3172    1273
  -5   1  15   11268    2398
  -7  -1  15     720    1060
  -7  -1 -15     772    1012
  -8  -2 -15    1577    1148
  -8  -2  15      42    1187
  -9  -3  15      55     916
  -9  -3 -15      53     830
 -10  -4  15      62     985
 -10  -4 -15    2602    1322
 -11  -5  15     517    1446
 -11  -5 -15       5    1123
 -12  -6 -15      52    1174
 -12  -6  15     310    1469
 -13  -7 -15    1835    1107
 -13  -7  15     333    1942
  -7 -13  16    3249    1974
  -6 -12  16    7683    2479
  -6 -12 -16      10    1104
  -5 -11 -16    1667    1330
  -5 -11  16    6266    2083
  -4 -10  16    5303    1829
  -4 -10 -16    7209    2056
  -3  -9  16   18494    3503
  -3  -9 -16   15541    2595
  -2  -8  16   21035    3693
  -2  -8 -16   21466    2842
  -1  -7 -16   26143    3011
  -1  -7  16   23568    3775
   0  -6 -16    4410    1726
   0  -6  16    4076    1942
   1  -5 -16    2702    1119
   1  -5  16    4213    1783
  -1   5  16    4184    1349
  -2   4  16   16406    2525
  -3   3  16   19716    2911
   3  -3  16   20916    2788
   3  -3  16   18174    3122
  -4   2  16   19309    3073
   4  -2  16   15754    2699
   4  -2  16   18306    3154
  -5   1  16   16053    2938
   5  -1  16   15003    2618
   5  -1  16    9783    2488
  -6   0  16    2830    1196
  -7  -1  16    6114    1977
  -7  -1 -16    7924    1842
  -8  -2  16    8439    2250
  -8  -2 -16   10509    2063
  -9  -3  16    7844    2698
  -9  -3 -16    4263    1708
 -10  -4 -16     352    1112
 -10  -4  16    8846    1934
 -11  -5  16    4154    1811
 -11  -5 -16     518    1154
  -6 -12  17     102    1100
  -5 -11  17    2102    1898
  -5 -11 -17    1275    1760
  -4 -10 -17      27    1340
  -4 -10  17     742    1360
  -3  -9 -17     123    1005
  -3  -9  17    3958    1315
  -2  -8  17      42    1116
  -2  -8 -17      36     807
  -1  -7  17    3476    2145
   1  -5  17    3710    1918
   2  -4  17    1222    1359
  -2   4  17     638    1151
  -3   3  17    2721    1019
   4  -2  17     561    1108
  -4   2  17     411     952
   4  -2  17      29    1449
  -5   1  17    4805    1632
   5  -1  17    3709    1556
   5  -1  17    1990    1125
  -7  -1  17    2767    1277
  -8  -2  17      48    1144
  -9  -3  17    1437    1417
  -9  -3 -17      12    1140
 -10  -4  17     114    1220
 -10  -4 -17     229    1388
  -5 -11  18    1076    1955
  -4 -10  18    1879    1867
  -4 -10 -18    2786    1759
  -3  -9  18    4641    2282
  -2  -8  18    8355    2908
  -2  -8 -18    6246    2166
  -1  -7  18    9669    2596
  -1  -7 -18    9012    1881
   0  -6  18   19699    3704
   1  -5  18   21057    4047
   2  -4  18   16202    3116
  -3   3  18    3257    1815
  -4   2  18    4412    1803
   5  -1  18    2596    1615
   5  -1  18    4497    2129
  -5   1  18    2731    1651
   6   0  18    6605    2192
   6   0  18    5670    2325
  -6   0  18    8466    2551
   7   1  18    5552    2254
   7   1  18   10678    2337
  -7  -1  18   11574    2630
  -8  -2  18    7072    2372
  -3  -9  19     299    4367
  -2  -8 -19    1928    1792
  -4   2  19     833    1514
  -5   1  19     871    1312
   7   1  19     426    1860
   7   1  19    1373    1607
 -14 -22   0     558    1728
 -13 -21   0    2109    1576
 -12 -20   0   10764    2443
 -11 -19   0    3715    1219
 -10 -18   0   17260    3007
  -9 -17   0    8105    2136
  -8 -16   0   33704    3113
  -7 -15   0   22717    2569
  -7 -15   0   22529    1821
  -6 -14   0   24838    2765
  -6 -14   0   25042    2360
  -5 -13   0   39990    2726
  -5 -13   0   42612    2350
  -4 -12   0   64589    2895
  -4 -12   0   63277    3263
  -3 -11   0  152294    8769
  -3 -11   0  151030    8079
  -2 -10   0  138614    7567
  -2 -10   0  133787    8082
   0  -8   0  137824    6115
   0  -8   0  115424    6265
   1  -7   0     793     680
   1  -7   0     138     516
   2  -6   0  213063    4422
   3  -5   0    4892    1622
  -3   5   0    3629    1387
   4  -4   0   17399    3901
  -4   4   0   19110    3626
  -4   4   0   17807    3564
  -5   3   0   93205    4902
  -5   3   0   92831    5053
   5  -3   0   98682    5384
  -6   2   0  107181    2750
   6  -2   0  103455    2965
  -7   1   0   16445    1114
  -7   1   0   16445    1151
  -8   0   0  229027    8167
   8   0   0  199632    8013
  -8   0   0  232041    7530
   9   1   0   54321    3211
  -9  -1   0   55823    3113
  -9  -1   0   54677    2804
 -10  -2   0  102150    4666
 -10  -2   0  100458    5162
  10   2   0  105612    5190
 -11  -3   0   33783    2058
 -11  -3   0   31054    1667
  11   3   0   32313    2010
 -12  -4   0   26152    2311
 -12  -4   0   28041    1986
  12   4   0   23549    1983
  12   4   0   28199    2410
 -13  -5   0    7720    1521
  13   5   0   12354    1818
  13   5   0    8029    1180
 -14  -6   0   26253    2379
 -15  -7   0   13719    2487
 -16  -8   0   12701    2224
 -17  -9   0    7704    1783
 -18 -10   0     910    1082
 -19 -11   0     146     983
 -20 -12   0       2    1190
 -14 -22   1     135    1734
 -14 -22  -1     137    1604
 -13 -21  -1     106     856
 -12 -20  -1     429     998
 -12 -20   1     132    1079
 -11 -19  -1    2053    1006
 -11 -19   1    4465    1539
 -10 -18   1    1274     927
 -10 -18  -1     944     917
  -9 -17  -1    7814    1900
  -9 -17   1    5407    1659
  -8 -16  -1    4236    1096
  -8 -16  -1    2566    1146
  -8 -16   1    2100    1162
  -7 -15  -1    4752    1151
  -7 -15   1    3403    1011
  -7 -15  -1    4221    1302
  -7 -15   1    2027    1062
  -6 -14   1     343     703
  -6 -14  -1     177     718
  -6 -14   1     672     857
  -6 -14  -1     325     657
  -5 -13  -1    5002    1095
  -5 -13   1    6533    1085
  -5 -13   1    5858    1295
  -5 -13  -1    5955    1140
  -4 -12  -1     981     689
  -4 -12   1    2342     910
  -4 -12   1    1480     881
  -4 -12  -1    1596     860
  -3 -11   1    3298     871
  -3 -11   1    3622    1130
  -3 -11  -1    2872     888
  -2 -10   1    9735    1233
  -2 -10   1    9366    1527
  -2 -10  -1    8341    1216
  -2 -10  -1    9171    1345
  -1  -9   1   14831    1238
  -1  -9  -1   17124    1155
  -1  -9   1   18540    1150
  -1  -9  -1   16315    1150
   1  -7   1   25366    2036
   1  -7   1   31735    2022
   1  -7  -1   30224    1976
   1  -7  -1   31083    1836
   2  -6   1   33322    1466
  -2   6   1   33768    1365
   2  -6  -1   33061    1419
   3  -5  -1    4564     933
  -3   5   1    4290     807
   3  -5   1    4486     942
  -4   4   1   13651     683
  -4   4   1   13119     983
   4  -4   1   13380    1176
   4  -4  -1   14341    1075
  -5   3   1   35178    2451
  -5   3   1   37727    2236
   5  -3  -1   38639    2570
   5  -3   1   39752    2808
  -5   3  -1   35978    2382
  -6   2   1    6963    2085
   6  -2   1    7432    2420
  -6   2  -1    7318    2064
  -6   2  -1    7325    1858
  -6   2   1    8040    1973
  -7   1  -1   61216    2950
  -7   1   1   66789    2926
  -7   1  -1   64686    2621
   7  -1   1   65834    3365
   7  -1  -1   64234    2977
   9   1  -1    8606    1342
  -9  -1  -1    7726    1025
  -9  -1   1    6548    1276
  -9  -1  -1   10014    1467
  -9  -1   1    8044    1322
 -10  -2  -1    5063     970
 -10  -2   1    5388    1404
 -10  -2   1    4300    1225
  10   2  -1    4834    1232
  10   2   1    5598    1362
  10   2   1    4774    1513
 -10  -2  -1    4816    1353
  11   3   1    4313     985
  11   3   1    6045    1321
 -11  -3   1    5722     971
 -11  -3  -1    6005     821
  11   3  -1    5935    1050
 -11  -3  -1    9145    1449
 -11  -3   1    6140    1177
 -12  -4   1     253     509
 -12  -4  -1    1217     809
  12   4  -1    1852     792
  12   4   1     765     919
  12   4   1     615     603
 -12  -4   1    1014     795
  13   5   1    1334     639
  13   5   1    1970    1149
 -13  -5   1     403     595
 -13  -5   1    1547     647
 -13  -5  -1     779     698
  14   6   1    3435     825
 -14  -6  -1    4235    1301
  14   6   1    4088    1379
 -14  -6   1    4459    1381
 -15  -7   1    3776    1179
 -15  -7  -1    5606    1370
 -16  -8   1    2566    1192
 -16  -8  -1    3186    1385
 -17  -9  -1    1229    1093
 -17  -9   1    1876     971
 -18 -10  -1     528    1193
 -18 -10   1    1541    1014
 -19 -11  -1    1313    1319
 -19 -11   1     164     905
 -20 -12   1     527     919
 -20 -12  -1      41    1267
 -14 -22  -2     568    1700
 -13 -21  -2    2406    1444
 -13 -21   2    2388    1570
 -12 -20  -2    1927    1129
 -12 -20   2    2889    1494
 -11 -19  -2    6477    1891
 -11 -19   2    5095    1982
 -10 -18   2    6269    1854
 -10 -18  -2   11108    2076
  -9 -17  -2    9935    2363
  -9 -17   2   10918    2678
  -9 -17  -2   14911    2395
  -8 -16  -2   10245    1888
  -8 -16   2    9641    2079
  -8 -16  -2   15224    1936
  -7 -15  -2   15535    2360
  -7 -15   2   14716    2696
  -7 -15  -2   14914    1820
  -6 -14  -2   18541    2114
  -6 -14  -2   17353    2141
  -6 -14   2   16356    2381
  -6 -14   2   18482    1848
  -5 -13  -2   26745    2134
  -5 -13   2   30358    1934
  -5 -13   2   28313    2462
  -4 -12  -2   49175    3153
  -4 -12   2   49224    3737
  -4 -12   2   50101    2949
  -3 -11  -2   50352    3493
  -3 -11   2   51071    3237
  -3 -11   2   45539    3908
  -3 -11  -2   46813    3389
  -2 -10   2   52338    2681
  -2 -10  -2   51649    2842
  -2 -10   2   54614    3381
  -2 -10  -2   48193    2749
  -1  -9   2   94397    4588
  -1  -9  -2   92050    4712
  -1  -9  -2   90765    4588
  -1  -9   2   90674    5303
   0  -8   2  111118    5678
   0  -8   2  105332    4949
   0  -8  -2  114570    4861
   0  -8  -2  108936    5031
   1  -7  -2   69582    2480
   1  -7  -2   62342    2750
  -1   7   2   63505    2663
   1  -7   2   66631    2837
  -2   6   2  112455    2947
   2  -6  -2   99721    2873
   2  -6  -2   96858    2435
   2  -6   2  110327    3113
   3  -5  -2   70817    2796
  -3   5   2   66972    2762
   3  -5   2   64810    2939
   4  -4   2   91538    4501
  -4   4   2   99152    4251
  -4   4   2  102910    3781
   4  -4  -2  101086    4198
  -5   3  -2   48886    1827
   5  -3   2   52371    2247
  -5   3   2   55766    2060
  -5   3   2   53277    1592
  -6   2  -2  106960    2788
   6  -2   2  102705    3236
  -6   2   2   98184    2512
  -6   2   2   91604    2760
   6  -2  -2  100907    2609
  -7   1   2  126087    5203
  -7   1   2  125723    5031
  -7   1  -2  130878    4450
   7  -1  -2  129872    4929
   7  -1   2  133316    5725
  -7   1  -2  115048    5108
  -8   0  -2   61493    2321
   8   0  -2   60142    2682
   8   0   2   59681    3105
  -8   0   2   56257    2961
  -8   0   2   58478    2903
   8   0   2   60832    3451
  -8   0  -2   64281    3032
   9   1  -2   56085    2282
  -9  -1   2   57208    2589
   9   1   2   61310    3030
  -9  -1  -2   56506    1908
  -9  -1  -2   57607    2661
   9   1   2   54088    2623
 -10  -2   2   22857    2059
 -10  -2  -2   26310    2151
 -10  -2   2   21679    2049
  10   2   2   21090    2305
 -10  -2  -2   25463    1440
  10   2  -2   22186    1742
  10   2   2   25508    2170
 -11  -3   2   21839    2047
 -11  -3   2   17523    1829
 -11  -3  -2   22668    1330
 -11  -3  -2   22274    2003
  11   3  -2   24210    1738
 -12  -4   2   14691    1816
 -12  -4  -2   18048    2012
 -12  -4   2   20597    1875
  12   4   2    9260    1765
 -13  -5   2   15622    2213
 -13  -5   2   15167    1984
 -13  -5  -2   13223    2014
  13   5   2   13896    2169
  13   5   2   11423    1611
  14   6   2   11616    2290
  14   6   2    4236    1130
 -14  -6   2    7456    1821
 -14  -6  -2    8118    1855
 -15  -7  -2    9332    1899
 -15  -7   2    8010    1681
 -16  -8  -2    4787    1385
 -16  -8   2    8734    1631
 -17  -9  -2    4600    1444
 -17  -9   2    1670     878
 -18 -10  -2    3974    1395
 -18 -10   2    2687    1143
 -19 -11  -2      11    1036
 -19 -11   2     930     884
 -20 -12  -2      26    1419
 -20 -12   2     455     854
 -13 -21   3     429    1549
 -13 -21  -3    1137    1320
 -12 -20   3     556    1241
 -12 -20  -3    1527    1132
 -11 -19   3    1184    1186
 -11 -19  -3    1035     952
 -10 -18   3     238     959
 -10 -18  -3    1844     955
  -9 -17  -3     270     842
  -9 -17   3     677    1063
  -9 -17  -3     323     951
  -8 -16  -3    2524    1082
  -8 -16  -3    2288    1064
  -8 -16   3    2505    1244
  -7 -15  -3     169     811
  -7 -15  -3    1551     624
  -7 -15   3     160     819
  -6 -14  -3     287     324
  -6 -14  -3      77     678
  -6 -14   3     284     740
  -5 -13   3    5065    1260
  -5 -13   3    4638    1913
  -5 -13  -3    3020    1310
  -5 -13  -3    5334    1625
  -4 -12   3     692     570
  -4 -12  -3     778     507
  -4 -12   3     786     824
  -4 -12  -3     896     776
  -3 -11  -3    1945     562
  -3 -11   3    2839     644
  -3 -11  -3     448     586
  -3 -11   3    2267     749
  -2 -10   3     119     579
  -2 -10  -3      47     681
  -2 -10  -3     152     622
  -2 -10   3     138     630
  -1  -9  -3   17230    1684
  -1  -9  -3   18118    1404
  -1  -9   3   18944    2075
  -1  -9   3   19938    1661
   1  -7  -3   34805    1141
   1  -7  -3   34813    1673
   1  -7   3   33009    1704
  -1   7   3   35790    1626
   2  -6   3    9832    2140
   2  -6  -3   11550    2041
  -2   6   3   12678    2079
  -3   5   3   36827    1994
   3  -5   3   38116    2226
   3  -5  -3   37740    1938
  -4   4   3    3400     611
  -4   4   3    5034    1323
   4  -4  -3    4179    1015
   4  -4   3    4265    1412
  -5   3   3    4368    1134
   5  -3   3    4177    1905
  -5   3   3    3679    1602
  -6   2  -3   49783    2189
   6  -2   3   57841    2823
  -6   2   3   54588    2479
  -6   2   3   50689    1927
   6  -2  -3   49712    1951
  -7   1   3   26937    2742
   7  -1  -3   25069    2504
   7  -1   3   22623    3052
  -7   1   3   21748    2973
   7  -1   3   27445    3494
  -7   1  -3   22861    2837
   9   1  -3    3056     480
  -9  -1   3    2117     489
  -9  -1  -3    3865     649
   9   1   3    3126     873
   9   1   3     755     560
  -9  -1   3    1908     644
 -10  -2  -3    4770     571
  10   2   3    5071    1521
 -10  -2   3    3003    1219
  10   2  -3    4971     889
  10   2   3    4949    1767
 -10  -2   3    2548    1174
 -10  -2  -3    6372    1518
 -11  -3   3    4349    1234
 -11  -3  -3    4856    1229
  11   3   3    5446    1548
  11   3  -3    3681     687
  11   3   3    4645    1193
  12   4   3    2373     897
 -12  -4   3    1430     881
 -12  -4   3     905     665
  12   4   3     948    1161
 -12  -4  -3    1359     761
 -13  -5   3     257     765
  13   5   3     104     842
 -13  -5   3     184     817
 -13  -5  -3    1432     997
  13   5   3      20     560
  14   6   3     182     991
 -14  -6   3     258     838
 -14  -6   3     835     971
 -14  -6  -3    1210     948
  14   6   3     191     497
 -15  -7  -3    1229     901
 -15  -7   3    1700    1056
  15   7   3    1261     881
  15   7   3     496    1214
 -16  -8   3    1122     768
 -16  -8  -3      18     614
 -17  -9   3     211     710
 -17  -9  -3    1247     933
 -18 -10  -3      45     937
 -18 -10   3      38     615
 -19 -11  -3      59    1132
 -19 -11   3     101     759
 -20 -12  -3      83    1485
 -20 -12   3      72     797
 -13 -21   4     130    1678
 -12 -20   4    2640    1991
 -11 -19  -4    4404    1360
 -11 -19   4    6490    2006
 -10 -18  -4   10356    2028
 -10 -18   4    9811    2365
 -10 -18  -4    7788    1768
  -9 -17   4    9917    2378
  -9 -17  -4    8570    1889
  -9 -17  -4    5548    1479
  -8 -16   4    8845    2187
  -8 -16  -4   11679    2100
  -7 -15  -4   10922    1902
  -7 -15  -4    3353    1106
  -7 -15   4    6929    2001
  -6 -14   4   20262    3043
  -6 -14  -4   21617    2429
  -6 -14  -4   23508    2624
  -5 -13   4   15688    1449
  -5 -13  -4   18731    2018
  -5 -13   4   16631    2473
  -5 -13  -4   15284    1612
  -4 -12   4   32319    3422
  -4 -12   4   38038    2532
  -4 -12  -4   35253    2647
  -4 -12  -4   34296    2932
  -3 -11   4   43726    3892
  -3 -11  -4   44625    2896
  -3 -11   4   43983    2833
  -3 -11  -4   48850    3344
  -2 -10   4  110233    5783
  -2 -10  -4  111504    4974
  -2 -10  -4  124100    4620
  -2 -10   4  109639    4597
  -1  -9  -4   77194    3707
  -1  -9  -4   76951    3138
   1   9   4   75403    3427
  -1  -9   4   70636    3465
  -1  -9   4   71873    4403
   0   8   4  196525    9601
   0  -8  -4  209431   10181
   0  -8  -4  205562    9535
   0  -8   4  207743   11409
   0  -8   4  199058   10088
  -1   7   4  158571    5867
   1  -7   4  153771    6102
   1  -7  -4  164742    6078
   2  -6  -4  325764   10065
   2  -6   4  329110   10445
  -2   6   4  326392    9877
   3  -5   4  284807    9047
   3  -5  -4  281956    8428
  -3   5   4  298078    8571
   4  -4  -4  130536    5802
  -4   4   4  118173    6021
   4  -4   4  126126    6584
  -4   4   4  133964    5355
   5  -3   4  224416    7551
  -5   3   4  215527    6363
  -5   3   4  223160    7066
   5  -3  -4  221973    6510
  -6   2  -4  250158    7774
  -6   2   4  278503    7988
   6  -2   4  255355    7724
   6  -2  -4  256949    7124
  -6   2   4  259781    7384
   6  -2   4  251409    8397
  -7   1  -4   72153    5012
   7  -1  -4   67903    4251
  -7   1   4   67051    5163
   7  -1   4   71664    5211
  -7   1   4   70416    4726
   7  -1   4   70965    5661
  -8   0  -4  145831    5020
   8   0  -4  148676    4195
  -8   0   4  154764    4953
  -8   0   4  154885    5346
   8   0   4  146293    5658
   8   0   4  143762    5211
  -9  -1   4   57487    3017
  -9  -1  -4   55370    2722
   9   1   4   59153    3010
   9   1  -4   54591    1978
   9   1   4   53184    3221
  -9  -1   4   54486    2654
  10   2   4   14997    2637
 -10  -2   4   12805    1785
 -10  -2   4   11845    2221
  10   2  -4   14008    1158
 -10  -2  -4   11019    1647
 -11  -3   4   17389    1944
 -11  -3  -4   20553    1733
 -11  -3   4   22280    2302
 -12  -4  -4   11916    1883
 -12  -4   4   11080    1904
 -12  -4   4    6530    1459
 -13  -5   4    7309    1495
 -13  -5  -4    6511    1417
 -14  -6   4    6177    1654
 -14  -6   4    6561    1588
 -14  -6  -4    6806    1710
 -15  -7   4    2926    1113
 -15  -7   4    1821     957
 -15  -7  -4    1861    1059
  16   8   4    2178    1348
 -16  -8   4    5554    1333
 -16  -8  -4    9191    1804
 -17  -9  -4    3088    1297
 -17  -9   4    1226     873
 -18 -10  -4    3923    1660
 -18 -10   4    1207     917
 -19 -11   4    2155     894
 -19 -11  -4     166    1133
 -20 -12  -4     229    1500
 -20 -12   4    1089    1014
 -13 -21   5     102    1929
 -12 -20   5      33    1221
 -11 -19   5     281    2423
 -11 -19  -5     232    1123
 -10 -18  -5    1017    1045
 -10 -18   5      30     857
  -9 -17  -5    1038     547
  -9 -17  -5     539    1026
  -9 -17   5    1198    1040
  -8 -16  -5    2746    1348
  -8 -16   5    6620    1997
  -8 -16  -5    2704    1079
  -7 -15  -5     363     888
  -7 -15   5     800    1022
  -7 -15  -5    1511     817
  -6 -14  -5    1319     854
  -6 -14  -5    1159     612
  -6 -14   5    1905    1117
  -5 -13   5   14761    2259
  -5 -13  -5   14108    1806
  -5 -13  -5   13810    1418
  -4 -12   5    1490     725
  -4 -12  -5    1100     635
  -4 -12   5    1195    1092
  -4 -12  -5    1469     954
  -3 -11   5   14009    2634
  -3 -11  -5    8210    1183
  -3 -11  -5   11877    1990
  -3 -11   5   11613    1363
  -2 -10   5    3102    1202
  -2 -10  -5    2148     867
  -2 -10  -5    2786     575
  -2 -10   5    3420     801
  -1  -9   5   17534    2123
  -1  -9  -5   14315    1436
  -1  -9  -5   14215     775
   1   9   5   15479    1272
  -1  -9   5   16801    1318
   1  -7  -5    4782     952
   1  -7   5    5695    1061
  -1   7   5    3910     839
   2  -6   5    4947     731
   2  -6  -5    4814     676
  -2   6   5    4261     631
   3  -5  -5   42124    1787
  -3   5   5   37354    1875
   3  -5   5   34484    2031
  -4   4   5   21360    3243
   4  -4   5   20473    3487
  -4   4   5   25517    2414
   5  -3   5   19755    1731
  -5   3   5   17408    1594
   5  -3  -5   16385    1042
  -5   3   5   14974     849
   5  -3   5   15181    1708
  -6   2   5    3914     883
   6  -2   5    3457    1392
   6  -2   5    3095    1163
   6  -2  -5    4179     821
  -6   2   5    4023    1362
  -7   1   5     780    1600
   7  -1  -5     637     876
   7  -1   5     697    1799
  -7   1  -5     851    1349
  -7   1   5     761    1170
   7  -1   5    1321    1826
  -9  -1   5    1093     594
  -9  -1  -5    1114     568
   9   1  -5     981     327
  -9  -1   5     823     785
 -10  -2   5    1204    1468
 -10  -2   5    1047    1652
 -10  -2  -5     598    1261
 -11  -3   5    5050    1218
 -11  -3   5    5050    1241
 -11  -3  -5    4092     970
 -11  -3  -5    6091    1192
 -12  -4  -5    9058    1346
 -12  -4   5    8555    1448
 -12  -4   5    8579    1398
 -12  -4  -5   10276    1327
 -13  -5  -5    3588    1318
 -13  -5  -5    6068    1479
 -13  -5   5    3723    1410
 -13  -5   5    6093    1696
 -14  -6   5     520     825
 -14  -6   5     713     838
 -14  -6  -5    2150    1041
 -14  -6  -5     632     764
 -15  -7   5    1974     870
 -15  -7  -5     609     757
 -15  -7   5    1073     725
 -16  -8  -5       1     700
 -16  -8   5     689     662
 -17  -9  -5    1253    1061
 -17  -9   5     418     772
 -18 -10   5     119     744
 -18 -10  -5     814    1579
 -19 -11   5      98     711
 -19 -11  -5     548     903
 -12 -20   6     105    1311
 -11 -19   6    1136    1494
 -11 -19  -6     259    1101
 -10 -18   6     993    1282
 -10 -18  -6     839    1135
  -9 -17  -6    8568    1945
  -9 -17   6    5827    2195
  -8 -16   6    8076    1952
  -8 -16  -6   12836    1993
  -7 -15   6   23884    3272
  -7 -15  -6   28635    2917
  -7 -15  -6   30092    2591
  -6 -14  -6   20656    2037
  -6 -14  -6   23523    2583
  -6 -14   6   21407    3567
  -5 -13  -6   10511    1316
  -5 -13   6   13798    2810
  -5 -13  -6   15146    2301
  -4 -12  -6    6862    1575
  -4 -12   6    9427    2257
  -3 -11  -6    9704    1701
  -3 -11   6   14029    1359
  -3 -11   6   14246    2498
  -3 -11  -6   13681    1154
  -2 -10   6   42262    2351
  -2 -10  -6   38268    1982
  -2 -10  -6   38723    2653
   2  10   6   39567    2262
  -2 -10   6   38437    3255
  -1  -9   6  103912    3453
  -1  -9  -6  108854    2899
  -1  -9   6  118616    4734
  -1  -9  -6  111172    3787
   1   9   6  111449    3435
   0  -8  -6  181661    7956
   0   8   6  173093    7550
   0  -8   6  182268    7954
   0  -8   6  189175    9403
   0  -8  -6  183597    7048
  -1   7   6  168060    7357
   1  -7  -6  165130    7450
   1  -7   6  158452    7617
   2  -6   6   62792    3012
   2  -6  -6   62734    2625
  -2   6   6   54609    2668
   3  -5   6   94588    4685
   3  -5  -6   99095    4052
  -3   5   6   91946    4352
  -4   4   6  166488    6923
   4  -4   6  161631    7743
  -4   4   6  165436    7887
   4  -4   6  161208    8345
   5  -3  -6  206136    7062
   5  -3   6  220102    7912
  -5   3   6  218914    7169
   5  -3   6  210583    8476
  -5   3   6  221243    8032
   6  -2   6   99982    3967
  -6   2   6  104984    3210
   6  -2  -6   98449    2926
  -6   2   6   94647    3871
   6  -2   6   90670    4100
  -7   1   6   81176    4931
  -7   1  -6   80140    5183
   7  -1   6   77676    5482
   7  -1  -6   76626    4261
  -7   1   6   78416    5619
   7  -1   6   77586    5978
  -8   0  -6    8578    1336
  -8   0   6    7181    1157
  -8   0   6    6529    1339
  -9  -1  -6    8026     731
  -9  -1   6   11759    1274
  -9  -1  -6   11419     961
  -9  -1   6    8784     866
 -10  -2  -6    8923    1689
 -10  -2   6   11184    1944
 -10  -2   6    7748    2332
 -10  -2  -6    8965    2005
 -11  -3   6   16731    2208
 -11  -3   6   13309    2200
 -11  -3  -6   15238    2018
 -11  -3  -6   16200    1893
 -12  -4   6   16452    2152
 -12  -4  -6   15866    1848
 -12  -4  -6   14379    1530
 -12  -4   6   13836    1838
 -13  -5  -6    9622    2096
 -13  -5   6    8867    2308
 -13  -5  -6    6892    1684
 -13  -5   6    8567    2142
 -14  -6  -6    8983    1868
 -14  -6  -6    9914    1627
 -14  -6   6    9206    1952
 -14  -6   6    8230    1662
 -15  -7   6    3647    1268
 -15  -7  -6    3609    1075
 -15  -7   6    3559    1040
 -15  -7  -6    6431    1267
 -16  -8   6     280     898
 -16  -8  -6     116     702
 -16  -8   6      58     547
 -17  -9   6     608     734
 -17  -9  -6    2534    1242
 -18 -10   6    1400     821
 -18 -10  -6      88     982
 -19 -11  -6    1292    1271
 -19 -11   6     377     734
 -12 -20  -7     140    1444
 -12 -20   7       8    1620
 -11 -19  -7      39    1172
 -11 -19   7     325    1348
 -10 -18  -7    2152    1217
 -10 -18   7    1294    1744
  -9 -17  -7     789    1182
  -9 -17   7     426    1277
  -8 -16   7     101     990
  -8 -16  -7     394     936
  -7 -15  -7    4054    1219
  -7 -15   7    2241    1411
  -6 -14  -7    2894    1372
  -6 -14   7    1146    1167
  -5 -13   7    2622    1078
  -5 -13  -7    2221     967
  -4 -12   7    2512    1028
  -4 -12  -7    2501     957
  -3 -11  -7     410     830
  -3 -11   7    1949    1273
  -3 -11  -7    1425     552
   3  11   7    1627     615
  -2 -10   7     676     641
   2  10   7    1593     634
  -2 -10  -7    1534     499
  -2 -10  -7     962     894
  -2 -10   7    1312     998
  -1  -9   7    2371     817
  -1  -9  -7    2014     478
  -1  -9   7    1573     980
  -1  -9  -7    1805     938
   1   9   7    1178     529
   1  -7  -7   14242    1761
   1  -7   7   16127    1701
  -1   7   7   16464    1626
   2  -6  -7     914     438
  -2   6   7    3366     276
   2  -6   7    2243     609
  -2   6   7    2465     522
   3  -5   7   14461    2335
   3  -5  -7   10579    1560
  -3   5   7   12867    1114
  -3   5   7   11620    1754
  -4   4   7    5001     676
   4  -4   7    4685    1353
   4  -4   7    4308    1125
  -4   4   7    5395    1250
  -5   3   7    6920     967
   5  -3  -7    4006     877
   5  -3   7    6059    1751
  -5   3   7    4059    1282
   5  -3   7    4299    1336
  -6   2   7    9259    2112
  -6   2   7    7434    1157
   6  -2   7    8855    2285
   6  -2  -7    7875    1107
   6  -2   7    8569    2126
   7  -1   7    9234    1690
  -7   1   7    9357    1088
   7  -1   7    7160    1236
   7  -1  -7   10453     828
  -7   1   7    8341    1383
  -9  -1   7     577     612
  -9  -1   7    1055     880
  -9  -1  -7     364     560
  -9  -1  -7     862     686
 -10  -2   7   13761    1953
 -10  -2   7   12910    2684
 -10  -2  -7   11840    1707
 -10  -2  -7   12131    1838
 -11  -3   7     505     826
 -11  -3  -7     462     809
 -11  -3   7      29     739
 -11  -3  -7     395     926
 -12  -4   7      65     847
 -12  -4   7      66     748
 -12  -4  -7     165     753
 -12  -4  -7     613     777
 -13  -5   7     784     795
 -13  -5  -7     933     728
 -13  -5  -7      64     645
 -13  -5   7      64     775
 -14  -6  -7    2925    1063
 -14  -6   7    1498    1175
 -14  -6  -7     328     749
 -14  -6   7    1369    1124
 -15  -7  -7     917     804
 -15  -7   7     690     787
 -15  -7  -7      66     631
 -15  -7   7      64     975
 -16  -8   7     551    1042
 -16  -8  -7    1197     910
 -16  -8   7     507     694
 -16  -8  -7     530     749
 -17  -9   7     678     764
 -17  -9  -7    1319     901
 -18 -10  -7      25     856
 -18 -10   7     105     666
 -19 -11   7      37     866
 -19 -11  -7     113    1241
 -12 -20  -8    3201    1943
 -11 -19   8     324    1197
 -11 -19  -8    7212    1631
 -10 -18  -8    5814    1387
 -10 -18   8    5620    2083
  -9 -17  -8    9593    2192
  -9 -17   8    9584    3073
  -8 -16   8    7560    2150
  -8 -16  -8    8639    1781
  -7 -15   8    7947    2502
  -7 -15  -8    8076    1904
  -6 -14   8    7938    2688
  -6 -14  -8    6675    2054
  -5 -13   8   16361    3192
  -5 -13  -8   20357    2750
  -4 -12  -8   46768    3481
  -4 -12   8   53108    4399
   3  11   8   20591    1558
  -3 -11  -8   24046    2077
  -3 -11   8   17016    2736
  -2 -10  -8   25880    2308
  -2 -10   8   26611    1959
   2  10   8   25109    1899
  -2 -10   8   29345    3003
   1   9   8   48712    2418
  -1  -9   8   44410    3215
  -1  -9   8   46123    2424
  -1  -9  -8   48350    2712
   0  -8   8    8027    1054
   0  -8  -8    9158    1258
   0  -8   8    7430    1326
   0   8   8    7599     961
   1  -7   8   41034    3040
  -1   7   8   37166    2825
   1  -7  -8   39471    2836
  -2   6   8   45497    3254
   2  -6  -8   50771    3100
  -2   6   8   46560    2434
   2  -6   8   47052    3515
   3  -5   8   63020    3627
  -3   5   8   60073    3357
   3  -5  -8   59460    2867
   3  -5   8   55976    3257
  -3   5   8   53715    2318
  -4   4   8   48219    2705
   4  -4   8   44929    3533
   4  -4   8   47066    3883
  -4   4   8   46113    3550
   5  -3   8   40892    3274
   5  -3   8   53531    3342
   5  -3  -8   42099    2274
  -5   3   8   46947    3176
  -5   3   8   46555    2314
   6  -2  -8   44284    1739
   6  -2   8   45796    2864
  -6   2   8   49266    2715
   6  -2   8   40391    2755
  -6   2   8   43557    1876
  -7   1   8   33859    2271
  -7   1   8   39480    3079
   7  -1  -8   36849    1935
  -8   0  -8   43550    2830
  -8   0   8   44759    3434
  -8   0   8   46946    2822
  -9  -1  -8   29716    1934
  -9  -1   8   25721    2763
  -9  -1   8   22635    2023
  -9  -1  -8   26234    2165
 -10  -2  -8   30080    2319
 -10  -2   8   23256    2250
 -10  -2  -8   26147    2357
 -10  -2   8   20668    3003
 -11  -3  -8   19277    2342
 -11  -3  -8   18176    2144
 -11  -3   8   14128    2145
 -11  -3   8   19529    2869
 -12  -4   8    7069    2039
 -12  -4  -8   12656    1924
 -12  -4  -8   10989    2020
 -12  -4   8   12733    2221
 -13  -5   8    8586    2018
 -13  -5  -8    7672    1831
 -13  -5  -8    6868    1489
 -13  -5   8    8447    2179
 -14  -6   8    1446    1095
 -14  -6   8    1548    1014
 -14  -6  -8    1850     820
 -14  -6  -8    1505     919
 -15  -7  -8    3868    1223
 -15  -7   8    1770     925
 -15  -7   8    4605    1517
 -15  -7  -8    3009     921
 -16  -8  -8    2230     941
 -16  -8   8    3861    1560
 -16  -8  -8    3961    1294
 -16  -8   8    2908    1046
 -17  -9  -8    3343    1208
 -17  -9   8    2123     986
 -17  -9   8    2948    1600
 -18 -10   8    2332    1073
 -18 -10  -8    4450    1618
 -19 -11   8    1976    1053
 -19 -11  -8      30    1310
 -12 -20  -9     644    1641
 -11 -19   9     939    1803
 -11 -19  -9    2550    1482
 -10 -18  -9     265    1033
 -10 -18   9     270    1279
  -9 -17  -9     323    1021
  -9 -17   9     109    1175
  -8 -16   9     220    1106
  -8 -16  -9     728    1140
  -7 -15  -9     687     882
  -7 -15   9    1061    1077
  -6 -14  -9    3286    1124
  -6 -14   9    1125     828
  -5 -13  -9    1156     879
  -5 -13   9     946     865
  -4 -12   9    4331    1635
  -4 -12  -9    4461    1426
  -3 -11   9     190     954
  -3 -11  -9     137     779
   2  10   9    4977    1287
  -2 -10  -9    4901    1559
  -2 -10   9    3426    1674
  -1  -9   9     692     749
  -1  -9  -9    1497     935
   1   9   9     985     642
  -1  -9   9     932     785
   1  -7  -9   30053    2278
   1  -7   9   25816    2298
   2  -6  -9    5594    1233
   2  -6   9    6689    1502
  -2   6   9    7686    1438
   3  -5   9    8370    2198
  -3   5   9   10229    2378
   3  -5  -9    9324    1691
   3  -5   9    8849    2499
  -4   4   9    8452    1159
   4  -4  -9    8479    1336
   4  -4   9    9064    2077
  -4   4   9    6451    1688
   4  -4   9    9735    1919
   5  -3   9   18363    2951
  -5   3   9   16588    1802
   5  -3  -9   16442    1806
  -5   3   9   20033    2629
   5  -3   9   18346    3206
   6  -2  -9    3483    1008
  -6   2   9    3391    1656
   6  -2   9    4155    1714
  -6   2   9    2919    1136
   6  -2   9    2294    1651
  -7   1   9    4018    1384
  -7   1   9    3944    1825
   7  -1  -9    5078    1091
  -9  -1  -9    2876     948
  -9  -1   9     924     831
  -9  -1   9    1686     784
 -10  -2   9     268     670
 -10  -2  -9     236     658
 -10  -2  -9     159     707
 -10  -2   9     157    1045
 -11  -3   9    1785     898
 -11  -3  -9    1005     739
 -11  -3  -9     818     695
 -11  -3   9     768     886
 -12  -4   9     525     882
 -12  -4   9     548     966
 -12  -4  -9      37     701
 -12  -4  -9     989     856
 -13  -5   9     190     926
 -13  -5   9    1063    1046
 -13  -5  -9    1720     969
 -13  -5  -9     388     727
 -14  -6  -9     140     675
 -14  -6   9     534     941
 -14  -6   9     275    1061
 -14  -6  -9      17     727
 -15  -7  -9     807     777
 -15  -7  -9     903     955
 -15  -7   9    1030    1071
 -15  -7   9    1646    1256
 -16  -8   9      98    1038
 -16  -8  -9     313     769
 -16  -8  -9     605     908
 -16  -8   9     242     894
 -17  -9  -9    1256     880
 -17  -9  -9     399    1167
 -17  -9   9    2411    1478
 -17  -9   9     640     927
 -18 -10   9      38     683
 -18 -10  -9      39    1014
 -11 -19 -10    2160    1508
 -10 -18  10    5480    2090
  -9 -17 -10    5241    1823
  -9 -17  10    4814    2359
  -8 -16 -10    8527    1675
  -8 -16  10    6813    2044
  -7 -15  10    6834    1696
  -7 -15 -10    8984    1649
  -6 -14 -10   15603    2650
  -6 -14  10   16674    3341
  -5 -13  10   15242    3310
  -5 -13 -10   17881    2738
  -4 -12  10   16166    3035
  -4 -12 -10   17239    2463
  -3 -11  10   40523    3870
  -3 -11 -10   37769    3114
  -2 -10  10    7087    2117
   2  10  10    6842    1392
  -2 -10 -10    5789    1666
   1   9  10   18746    2009
  -1  -9  10   19679    2078
  -1  -9 -10   15990    2146
  -1  -9  10   20337    3034
   0  -8 -10   11930    1962
   0   8  10    9343    1725
   0  -8  10   12690    2741
   0  -8  10   14238    2027
   1  -7 -10   37916    2763
  -1   7  10   38240    2794
   1  -7  10   35835    2945
   2  -6  10   26828    2749
   2  -6 -10   27245    2375
  -2   6  10   29430    2676
   3  -5  10   36757    3139
   3  -5 -10   35889    2405
  -3   5  10   35882    2841
   3  -5  10   35211    2808
   4  -4  10   25742    2888
   4  -4  10   24650    2627
  -4   4  10   29296    2869
   4  -4 -10   25718    2139
   5  -3  10   11271    2129
  -5   3  10   12846    2248
   5  -3  10   17123    2804
   5  -3 -10   15249    1610
   6  -2  10   48883    3618
   6  -2  10   47189    3195
  -6   2  10   49924    3330
   6  -2 -10   48073    2280
  -6   2  10   50187    2551
  -7   1  10   25277    1889
  -7   1  10   32893    3239
  -8   0  10   41702    2874
  -8   0  10   42288    3566
  -8   0 -10   36051    2830
  -9  -1 -10   22324    2369
  -9  -1  10   20599    2221
  -9  -1  10   21812    3389
 -10  -2  10    9959    2514
 -10  -2  10   11408    2050
 -10  -2 -10   11544    2055
 -11  -3 -10   15048    2210
 -11  -3  10   13979    2705
 -11  -3 -10   15885    2173
 -11  -3  10   17633    2402
 -12  -4 -10   16772    2482
 -12  -4 -10   13802    1997
 -12  -4  10   14815    2386
 -12  -4  10   12194    2561
 -13  -5 -10    6712    1292
 -13  -5 -10    5714    1378
 -13  -5  10    8850    2053
 -13  -5  10    8129    1723
 -14  -6 -10    3037     873
 -14  -6  10    5981    1661
 -14  -6  10     629     991
 -14  -6 -10    3701    1253
 -15  -7  10    4389    1705
 -15  -7 -10    2580     999
 -15  -7 -10    4674    1622
 -15  -7  10    2592    1144
 -16  -8 -10     591     755
 -16  -8  10      35    1013
 -16  -8 -10     597    1016
 -16  -8  10     340     797
 -17  -9  10     769    1049
 -17  -9 -10    1756    1272
 -17  -9  10    1683    1381
 -17  -9 -10    2610    1060
 -18 -10  10     650    1712
 -18 -10 -10     117    1161
 -18 -10  10      70     837
 -10 -18 -11    2754    1394
 -10 -18  11      23    1133
  -9 -17  11    2843    1735
  -9 -17 -11      20    1171
  -8 -16  11      79    1025
  -8 -16 -11      76    1041
  -7 -15 -11    2743    1333
  -7 -15  11    2011    1521
  -6 -14 -11    3217    1358
  -6 -14  11    1988    1272
  -5 -13 -11    3941    1215
  -5 -13  11    3716    1315
  -4 -12 -11    1737    1130
  -4 -12  11    1213    1045
  -3 -11 -11    2847    1247
  -3 -11  11    1263    1196
  -2 -10 -11    2679    1043
  -2 -10  11     293     857
  -1  -9  11   17652    3128
  -1  -9 -11   15070    2259
   1   9  11   16832    2110
   1  -7  11   11553    1780
   1  -7 -11   10317    1562
  -1   7  11    9628    1537
   2  -6 -11     567     713
   2  -6  11     607     882
  -2   6  11    1059     911
   3  -5  11     107     998
   3  -5  11     356     836
  -3   5  11     613     700
   3  -5 -11    1173     758
   4  -4  11   13854    2738
   4  -4  11    8478    1982
   4  -4 -11    9923    1593
  -4   4  11    7818    2033
  -5   3  11    2616    1411
   5  -3 -11    1241     869
   5  -3  11    1138    1123
   5  -3  11    3204    1756
   6  -2  11    2622    1431
  -6   2  11    1193     863
   6  -2  11    2895    1326
  -7   1  11   17447    3138
  -9  -1  11     867     812
  -9  -1 -11    1910     925
  -9  -1  11    1415    1141
 -10  -2  11     502    1302
 -10  -2 -11    1050    1168
 -10  -2  11     305     973
 -11  -3  11    1378     934
 -11  -3  11     227    1122
 -11  -3 -11    1391     908
 -12  -4  11      55     967
 -12  -4  11    1510     983
 -12  -4 -11    1529     928
 -12  -4 -11    1139     928
 -13  -5 -11     286     782
 -13  -5  11    2050    1305
 -13  -5 -11     635     892
 -13  -5  11      93    1039
 -14  -6 -11    1090     886
 -14  -6  11      23     974
 -14  -6 -11      23     649
 -14  -6  11    1171     974
 -15  -7  11      67    1091
 -15  -7 -11      17     681
 -15  -7  11     144    1161
 -15  -7 -11     585    1059
 -16  -8 -11     346    1067
 -16  -8  11     264    1165
 -16  -8  11     747    1145
 -17  -9  11     188     913
 -17  -9  11     624    1462
 -17  -9 -11     575    1196
 -18 -10  11     119    1065
 -18 -10 -11    1040    1891
 -18 -10  11     498    2202
  -9 -17 -12    2313    1485
  -9 -17  12    4305    2183
  -8 -16 -12    1223    1253
  -8 -16  12    1267    1498
  -7 -15  12    6801    2052
  -7 -15 -12    4732    1692
  -6 -14  12    4284    1631
  -6 -14 -12    3864    1229
  -5 -13 -12   29176    3482
  -5 -13  12   28490    4298
  -4 -12 -12    8052    1723
  -4 -12  12    7561    1914
  -3 -11 -12   12540    2178
  -3 -11  12   14414    2923
  -2 -10 -12   34380    2984
  -2 -10  12   35517    3708
   1   9  12   27448    2274
  -1  -9  12   25411    3479
  -1  -9 -12   27724    2489
   0   8  12   48282    3472
   0  -8  12   39223    4111
   0  -8 -12   46857    3488
  -1   7  12   11068    1843
   1  -7 -12   14695    2040
   1  -7  12   13997    2316
   2  -6  12   17316    2441
  -2   6  12   18594    2400
   2  -6 -12   18284    2029
   3  -5  12   22227    2610
   3  -5 -12   19805    2020
  -3   5  12   19502    2559
   3  -5  12   20139    2904
   4  -4 -12   25154    1777
  -4   4  12   25860    2738
   4  -4  12   24313    3005
   4  -4  12   27881    2729
  -5   3  12   31877    3567
   5  -3  12   27433    3672
   5  -3  12   30932    3462
   5  -3 -12   29298    2216
   6  -2  12    7125    1920
   6  -2  12    8441    2289
  -6   2  12    6367    1725
  -7   1  12   11051    2220
  -8   0  12    4062    1592
  -9  -1  12   22797    3477
  -9  -1 -12   27815    2665
 -10  -2 -12   14407    2329
 -10  -2  12   10456    2490
 -11  -3  12    4553    1677
 -11  -3 -12    6498    1632
 -11  -3  12    5468    1498
 -12  -4  12    5208    1670
 -12  -4  12    6350    1981
 -12  -4 -12    7199    1638
 -13  -5  12    2725    1393
 -13  -5  12    3564    1317
 -13  -5 -12    1918     863
 -14  -6  12    4140    1664
 -14  -6  12    3642    1736
 -14  -6 -12    6051    1828
 -14  -6 -12     864     918
 -15  -7 -12    7266    1732
 -15  -7  12    3997    1556
 -15  -7 -12    2288     931
 -15  -7  12    3545    1646
 -16  -8 -12    3267    1174
 -16  -8  12    4715    1514
 -16  -8 -12    7342    1987
 -16  -8  12    4465    1919
 -17  -9  12     611    1233
 -17  -9 -12    2332    1805
 -17  -9  12    3449    2463
  -8 -16 -13     288    1230
  -8 -16  13     153    1186
  -7 -15 -13     143    1141
  -7 -15  13    1871    1515
  -6 -14 -13     212    1044
  -6 -14  13     221     857
  -5 -13 -13    1014    1193
  -5 -13  13     462    1060
  -4 -12 -13    1915    1151
  -4 -12  13     198     918
  -3 -11  13     262     985
  -3 -11 -13     152     803
  -2 -10 -13    2037    1057
  -2 -10  13    1834    1055
  -1  -9 -13     375     729
  -1  -9  13     372     860
   1  -7  13    2223    1212
   1  -7 -13    2937    1083
  -1   7  13     945     692
   1  -7  13    1107    1057
   2  -6 -13     208     704
  -2   6  13     349     798
   2  -6  13      31     940
   3  -5 -13    6935    1540
   3  -5  13    6481    2040
   3  -5  13    7812    1890
  -3   5  13    6708    1830
   4  -4  13    4074    1652
  -4   4  13    5169    1525
   4  -4  13    6252    1588
   4  -4 -13    5656    1230
   5  -3  13    2552    1347
   5  -3  13    1278     854
  -5   3  13    2219     919
  -6   2  13      59     793
   6  -2  13    1287     889
   6  -2  13     719    1237
   7  -1  13    3273    1039
   7  -1  13     206    1105
  -7   1  13    2547    1124
  -9  -1  13    2257    1124
  -9  -1 -13    4374    1371
 -10  -2  13      64     857
 -10  -2 -13     204     854
 -11  -3 -13    1607    1243
 -11  -3  13     524    1264
 -12  -4  13     163    1048
 -12  -4 -13     929     850
 -13  -5 -13    1528     811
 -13  -5  13     414    1201
 -14  -6 -13      36     839
 -14  -6  13     389    1332
 -15  -7  13      71    1456
 -15  -7 -13    1680     992
 -16  -8 -13     105    1102
 -16  -8  13     497    2159
  -8 -16  14    3634    1854
  -7 -15 -14    3415    1821
  -7 -15  14    3073    1866
  -6 -14  14    5160    1738
  -6 -14 -14      40    1248
  -5 -13  14    5879    1849
  -5 -13 -14   11403    2413
  -4 -12 -14   14846    2417
  -4 -12  14   16941    3110
  -3 -11 -14   14974    2506
  -3 -11  14   17228    3283
  -2 -10 -14   17323    2507
  -2 -10  14   15062    2959
  -1  -9 -14   12486    2132
  -1  -9  14   10835    2483
   0  -8  14   16328    3048
   0  -8 -14   16762    2355
   1  -7  14   15310    2972
   1  -7 -14   21405    2468
  -1   7  14   18596    2598
   2  -6  14   21236    2852
  -2   6  14   19061    2431
   2  -6 -14   25156    2392
   3  -5  14   26737    3593
   3  -5  14   22535    2915
  -3   5  14   23597    3156
   4  -4  14   27765    3069
  -4   4  14   30883    3351
   4  -4  14   30623    3623
   5  -3  14   18173    3273
   5  -3  14   17819    2857
  -5   3  14   15854    2767
  -6   2  14   19037    3309
   6  -2  14   14351    3108
   6  -2  14   20264    3196
   7  -1  14   17888    3211
   7  -1  14   18468    2949
  -7   1  14   16894    2976
  -8   0  14    2760    1563
  -9  -1  14    4276    1596
 -10  -2  14   13710    2608
 -11  -3  14    5599    2161
 -11  -3 -14   10180    2177
 -12  -4 -14    6861    1939
 -12  -4  14    3083    1806
 -13  -5  14      17    1324
 -13  -5 -14    4409    1471
 -14  -6  14     130    1534
 -14  -6 -14    3712    1405
 -15  -7  14     197    2114
  -7 -15  15    3004    1899
  -6 -14 -15    1254    1408
  -6 -14  15    2550    1467
  -5 -13  15     185    1066
  -5 -13 -15     198    1137
  -4 -12  15    1057    1282
  -4 -12 -15      63    1044
  -3 -11  15     161     991
  -3 -11 -15      55     933
  -2 -10 -15     942     853
  -2 -10  15     268     957
  -1  -9 -15     488     978
  -1  -9  15    1132    1130
   1  -7 -15     433     963
   1  -7  15       3     852
  -1   7  15     215     620
   2  -6 -15    3426     909
  -2   6  15    1394     788
   3  -5 -15     419     548
   3  -5  15     580     991
  -3   5  15     678     771
   3  -5  15     483    1368
   4  -4  15      24     818
  -4   4  15     219     835
   4  -4  15     277    1206
   5  -3  15     259     831
  -5   3  15     263     834
   5  -3  15    1863    1384
  -6   2  15    4903    1671
   6  -2  15    3727    1487
   6  -2  15    3652    1872
   7  -1  15    1501    1435
   7  -1  15    2415    1369
  -7   1  15    1142    1124
  -9  -1  15    2429    1618
 -10  -2  15      54     751
 -11  -3  15    2049    1636
 -12  -4  15      85    1298
 -13  -5  15     927    1817
  -6 -14  16    4357    1955
  -5 -13 -16      61    1455
  -5 -13  16    2767    1905
  -4 -12  16    5870    2040
  -4 -12 -16     571    1154
  -3 -11 -16    7065    1788
  -3 -11  16    4468    1695
  -2 -10  16   11914    2733
  -2 -10 -16    8390    1999
  -1  -9 -16   11896    2158
  -1  -9  16   12926    2835
   0  -8  16   20583    3708
   0  -8 -16   18253    2699
   1  -7 -16   23178    2731
   1  -7  16   17188    3480
   2  -6  16   19816    3531
  -2   6  16   13800    2485
   2  -6 -16   13829    2159
  -3   5  16    8474    1814
   4  -4  16    7306    2130
  -4   4  16   11036    2364
   4  -4  16   10517    2305
   5  -3  16   10062    2159
  -5   3  16    9428    2055
   5  -3  16    7725    2179
  -6   2  16    5629    1962
   6  -2  16    7766    2239
   6  -2  16    9353    2567
   7  -1  16    4721    1717
   7  -1  16    5519    2028
  -7   1  16    8702    2109
   8   0  16    9429    2402
   8   0  16   13259    3101
  -8   0  16   12916    2786
   9   1  16    4598    2063
  -9  -1  16    5361    1838
   9   1  16    4900    1775
 -10  -2  16    7361    2154
 -11  -3  16    1926    1627
 -12  -4  16    1000    1967
  -5 -13  17     174    1247
  -4 -12 -17     136    1390
  -4 -12  17    2685    1918
  -3 -11 -17    4571    1723
  -3 -11  17    4327    1653
  -2 -10 -17    1107    1229
  -2 -10  17     773    1439
  -1  -9  17    1676    1162
  -1  -9 -17    1323    1084
   1  -7  17     141    1170
   1  -7 -17     147     853
   2  -6  17     541    1177
  -3   5  17    6123    1946
  -4   4  17    2035    1342
  -5   3  17     671    1021
   5  -3  17      60     965
   5  -3  17    1460    1320
   6  -2  17    2485    1584
   6  -2  17     913    1004
  -6   2  17    4471    1686
   7  -1  17    1050    1168
   7  -1  17     248    1351
  -7   1  17       2     919
   9   1  17     821    1498
  -9  -1  17    1848    1287
   9   1  17     716    1219
  10   2  17     333    1231
  10   2  17    1108    1658
 -10  -2  17      30    1091
  11   3  17     601    1457
  11   3  17     132    1707
  -3 -11  18    4192    2401
  -2 -10  18    7019    2704
  -2 -10 -18    5949    2096
  -1  -9 -18    7223    1966
  -1  -9  18    6817    2128
   0  -8  18    6717    1992
   0  -8 -18    7434    1867
   1  -7  18    7035    2253
   2  -6  18    8120    2527
   3  -5  18    5831    1929
  -4   4  18    8697    1973
  -5   3  18    5005    2164
   5  -3  18    5755    2547
   5  -3  18    7358    2444
  -6   2  18    6697    2042
   6  -2  18    4764    2054
   6  -2  18    5093    1812
  -7   1  18    8530    2246
   7  -1  18   11093    2397
   7  -1  18    6326    2136
   8   0  18    5115    2213
  -8   0  18    3658    1951
   8   0  18    2690    1599
   9   1  18    1559    1715
  -9  -1  18    1704    1607
   9   1  18       3    1500
  -1  -9 -19     122    1519
  -1  -9  19     118    2366
   1  -7  19    1816    2348
   2  -6  19     237    1891
  -4   4  19    3885    1850
  -5   3  19     683    1643
  -6   2  19      97    1226
   6  -2  19      71    2119
   6  -2  19     726    2030
   7  -1  19    1236    1991
   7  -1  19    2111    1752
  -7   1  19     921    1529
 -13 -23   0      72    1783
 -12 -22   0    1985    1360
 -11 -21   0    5582    1770
 -10 -20   0    4192    1729
  -9 -19   0   14570    2457
  -8 -18   0    1019    1236
  -7 -17   0    4486     856
  -7 -17   0    8308    1212
  -6 -16   0     126     835
  -6 -16   0     503     971
  -5 -15   0    4352    1570
  -5 -15   0    5046    1433
  -4 -14   0   12888    1403
  -4 -14   0   14491    1335
  -3 -13   0   24551    1961
  -3 -13   0   18322    1878
  -1 -11   0   25665     962
  -1 -11   0   14234     383
   0 -10   0    1046     579
   0 -10   0    1275     386
   1  -9   0   50926    2052
   1  -9   0   53069    2126
   2  -8   0    4549    1261
   2  -8   0    3654    1211
   3  -7   0  137281    5399
   4  -6   0   81037    2742
  -4   6   0   77250    2499
   5  -5   0   69946    3269
  -5   5   0   71823    2989
  -6   4   0   42173    1156
  -6   4   0   42754    1260
   6  -4   0   43006    1460
   7  -3   0    9617    1101
  -7   3   0   11136     922
  -7   3   0   10756     868
  -8   2   0   15700    1307
   8  -2   0   12434    1536
  -8   2   0   11234    1088
  -9   1   0   55261    2873
  -9   1   0   54778    3068
 -10   0   0   16924    1515
  10   0   0   17804    1641
 -10   0   0   15853    1284
  11   1   0   43615    2403
 -11  -1   0   40808    2016
 -11  -1   0   44182    2382
  12   2   0    8923    1387
 -12  -2   0    8600    1008
 -12  -2   0    9010    1313
  13   3   0   35153    2196
 -13  -3   0   38591    1893
 -13  -3   0   38170    2266
 -14  -4   0      43     551
  14   4   0    3706    1060
 -15  -5   0   11643    1932
 -16  -6   0    8904    1529
 -17  -7   0    3700    1413
 -18  -8   0     939     885
 -19  -9   0    1037     880
 -20 -10   0      82     909
 -13 -23   1      23    1779
 -13 -23  -1      23    1676
 -12 -22   1    1184    1411
 -12 -22  -1     905    1307
 -11 -21   1     677    1089
 -11 -21  -1    1392     979
 -10 -20  -1     878    1077
 -10 -20   1    1538     994
  -9 -19  -1      51     838
  -9 -19   1    1380    1251
  -8 -18   1      47    1006
  -8 -18  -1    1274    1473
  -7 -17  -1     702    1080
  -7 -17   1     375     951
  -7 -17  -1     176     881
  -6 -16  -1    3222    1182
  -6 -16   1     822     770
  -6 -16   1     300     799
  -6 -16  -1    1573     859
  -5 -15   1    6196    1071
  -5 -15  -1    5816    1057
  -5 -15  -1    7169    1227
  -5 -15   1    6073    1214
  -4 -14   1    4814    1454
  -4 -14  -1    6635    1603
  -4 -14   1    4769    1732
  -3 -13   1    3933    1323
  -3 -13   1    4251    1136
  -3 -13  -1    3958    1209
  -2 -12   1    3683     790
  -2 -12   1    3736     825
  -2 -12  -1    3962     937
  -2 -12  -1    3493     709
  -1 -11   1     602     629
  -1 -11  -1    1315     695
  -1 -11  -1     974     800
  -1 -11   1    1353     760
   1  -9  -1   17336    1095
   1  -9  -1   17991    1254
   1  -9   1   19549    1322
   2  -8  -1   14220     551
   2  -8  -1   16236     762
   2  -8   1   14795     712
  -3   7   1   17457    1574
   3  -7   1   18364    1767
   3  -7  -1   16440    1642
  -4   6   1   11212    1337
   4  -6  -1   12504    1433
   4  -6   1    9496    1410
  -5   5   1    5567    1310
  -5   5   1    5885    1080
   5  -5   1    6052    1708
   5  -5  -1    7102    1507
  -6   4  -1   24151    1085
  -6   4   1   25125    1224
   6  -4   1   20713    1303
  -6   4   1   20505     753
  -6   4  -1   22472     991
   6  -4  -1   20543    1148
  -7   3  -1    6015     805
   7  -3  -1    5855     842
  -7   3  -1    5527     652
   7  -3   1    5876    1099
  -7   3   1    5900     707
  -7   3   1    6093     865
  -8   2   1    7529    1091
  -8   2   1    9296    1260
   8  -2   1    7722    1513
  -8   2  -1    8061    1052
  -8   2  -1    7610    1164
   9  -1   1    7827    1605
  -9   1  -1    6953    1069
  -9   1   1    6708    1230
  -9   1  -1    7211    1320
   9  -1  -1    9212    1438
 -11  -1  -1   18958    1186
 -11  -1   1   21973    1512
 -11  -1  -1   19979    1566
 -11  -1   1   21810    1612
  11   1  -1   21778    1740
 -12  -2  -1     628     466
  12   2  -1     289     674
 -12  -2   1     171     678
  12   2   1     628     783
 -12  -2  -1     282     427
 -12  -2   1     609     494
 -13  -3  -1     473     538
 -13  -3   1    1615     532
  13   3  -1    4656     770
 -13  -3   1    3083     861
  13   3   1    1927     908
 -14  -4  -1    2016    1234
  14   4   1    1055    1117
 -14  -4   1    1736    1103
 -15  -5   1    5416    1545
 -15  -5  -1    6290    1736
 -16  -6   1     533     767
 -16  -6  -1    2664    1159
 -17  -7  -1     547     803
 -17  -7   1     942     737
 -18  -8   1      58     678
 -18  -8  -1      14     763
 -19  -9  -1      32     623
 -19  -9   1      40     715
 -20 -10   1      46     640
 -20 -10  -1    1166    1184
 -11 -21  -2    4092    1425
 -11 -21   2    3078    1589
 -10 -20   2    6256    1813
 -10 -20  -2    6375    1640
  -9 -19  -2    8531    1746
  -9 -19   2    9773    2021
  -8 -18   2   12275    2482
  -8 -18  -2   12525    2140
  -8 -18  -2   15527    2177
  -7 -17   2    7588    1631
  -7 -17  -2    8697    1583
  -7 -17  -2   11515    1604
  -6 -16  -2   19656    2153
  -6 -16   2   12661    2235
  -6 -16  -2   11305    1833
  -5 -15   2   19408    2951
  -5 -15   2   19123    2010
  -5 -15  -2   25677    2402
  -4 -14   2   27409    2438
  -4 -14  -2   28187    2056
  -4 -14   2   30484    1724
  -4 -14  -2   24787    1947
  -3 -13  -2   43589    2654
  -3 -13   2   44095    3094
  -3 -13   2   44621    2492
  -3 -13  -2   44444    2659
  -2 -12  -2   35949    2880
  -2 -12   2   29935    3109
  -2 -12   2   32748    2622
  -2 -12  -2   38753    2836
  -1 -11   2   47769    2631
  -1 -11  -2   43666    2202
  -1 -11  -2   45908    2076
  -1 -11   2   39474    2006
   0 -10   2  137356    4100
   0 -10   2  130546    4574
   0 -10  -2  149923    3978
   0 -10  -2  140925    4148
   1  -9   2   94850    4969
   1  -9  -2   98297    4645
   1  -9  -2   94034    4897
   1  -9   2   98406    5615
   2  -8   2   72535    2875
   2  -8  -2   76317    2843
   2  -8  -2   79758    2442
  -2   8   2   68555    2642
   3  -7   2   59453    3117
   3  -7  -2   58742    2938
  -3   7   2   65024    3009
   4  -6   2   41818    2167
  -4   6   2   43441    2019
   4  -6  -2   37255    1854
  -5   5   2   70260    2167
  -5   5   2   72852    2696
   5  -5   2   72746    3023
   5  -5  -2   67423    2627
  -6   4   2   68315    2878
  -6   4   2   73030    2496
   6  -4  -2   73003    2839
   6  -4   2   69541    3192
  -6   4  -2   74956    2861
  -7   3  -2   69106    2358
  -7   3   2   69786    2463
  -7   3   2   65341    2039
   7  -3   2   70146    2762
   8  -2  -2  121322    5220
   8  -2   2  122155    5892
  -8   2  -2  127618    4723
  -8   2   2  125628    5193
  -8   2  -2  118483    5371
  -8   2   2  127355    5362
   9  -1  -2   55571    2381
  -9   1   2   61092    2535
   9  -1   2   61950    3123
  -9   1   2   52638    2536
  -9   1  -2   52895    2506
  -9   1  -2   59708    2104
 -10   0  -2  111475    3857
 -10   0  -2  105766    4688
  10   0  -2  106486    4325
  10   0   2  114275    5209
 -10   0   2  110094    4660
 -11  -1  -2   55581    2376
  11   1  -2   53215    2769
  11   1   2   51860    3195
 -11  -1   2   52006    3109
 -11  -1   2   47576    3015
 -11  -1  -2   56274    3239
  11   1   2   50379    3435
 -12  -2   2   23237    1877
  12   2   2   13191    1384
 -12  -2  -2   27327    1836
 -12  -2   2   22160    1900
  12   2   2   18951    2049
  12   2  -2   22785    1415
 -13  -3   2   12095    1645
 -13  -3   2   12246    1553
 -13  -3  -2   11405    1669
  14   4   2   15262    2279
 -14  -4   2   18914    2135
 -14  -4  -2   19707    2218
 -14  -4   2   14835    1824
  15   5   2    2447     924
 -15  -5  -2    5265    1451
  15   5   2    6646    1838
 -15  -5   2    5551    1449
 -16  -6  -2    5668    1296
 -16  -6   2    3577    1087
 -17  -7   2    1664     846
 -17  -7  -2    2297    1183
 -18  -8  -2    4330    1659
 -18  -8   2    1350     863
 -19  -9  -2    1699    1251
 -19  -9   2     321     715
 -20 -10   2    1517     873
 -20 -10  -2     120    1061
 -12 -22   3     736    1827
 -11 -21   3       9    1169
 -10 -20  -3     309     801
 -10 -20   3     133    1042
  -9 -19   3    3011    1474
  -9 -19  -3    3158    1448
  -9 -19  -3    3925    1354
  -8 -18  -3    7317    1814
  -8 -18  -3    5380    1670
  -8 -18   3    2764    1570
  -7 -17  -3     446     554
  -7 -17  -3     701     905
  -7 -17   3     301     798
  -6 -16   3     436     907
  -6 -16  -3      69     762
  -6 -16  -3    1448     987
  -5 -15   3    3364    1580
  -5 -15   3    4303    1241
  -5 -15  -3    3529    1295
  -5 -15  -3    1698     980
  -4 -14   3    3228    1298
  -4 -14   3    6511    1136
  -4 -14  -3    4109    1132
  -4 -14  -3    5131    1106
  -3 -13   3    7552    1791
  -3 -13  -3    6733    1430
  -3 -13  -3    6498    1234
  -3 -13   3    5325    1139
  -2 -12   3     515     844
  -2 -12  -3     748     836
  -2 -12  -3     718    1016
  -2 -12   3     951    1176
  -1 -11  -3    4492    1082
  -1 -11   3    7257    1548
  -1 -11  -3    6017    1595
  -1 -11   3    4909    1882
  -1   9   3   17591    1629
   1  -9  -3   19365    1278
   1  -9  -3   16836    1715
   1  -9   3   20415    1812
   1  -9   3   18757    2183
   2  -8  -3   13825    1384
  -2   8   3   13298    1277
   2  -8   3   14604    1640
   2  -8  -3   12702     806
  -3   7   3   20334    1494
   3  -7  -3   17235    1434
   3  -7   3   19900    1603
   4  -6  -3   24250    1450
  -4   6   3   26023    1478
   4  -6   3   24604    1667
  -5   5   3   26798    1553
   5  -5  -3   27717    1474
  -5   5   3   25122     946
   5  -5   3   26896    1726
  -6   4   3   21342    1447
   6  -4   3   23514    2336
  -6   4   3   19481    1913
   7  -3  -3    3691     928
  -7   3   3    3727     762
  -7   3  -3    3213     929
  -7   3   3    2585     983
   7  -3   3    3316    1348
   8  -2   3    4809    1260
   8  -2  -3    4900     804
  -8   2  -3    5828    1109
  -8   2   3    5206     888
  -8   2   3    5724    1213
  -9   1  -3    3074     564
  -9   1   3    2557     655
   9  -1   3    2954     919
   9  -1  -3    1906     514
  -9   1   3    2577     557
 -11  -1  -3    8030    1951
 -11  -1   3    7927    1640
  11   1   3    8525    2434
 -11  -1   3    7575    2000
  11   1  -3    6256    1265
  11   1   3    6635    1910
 -12  -2  -3    3844    1453
  12   2   3    2110    1143
  12   2   3    4267    1846
 -12  -2   3    2998    1310
  13   3   3      54     655
  13   3   3      71    1001
 -13  -3   3     154     523
 -13  -3  -3     154     465
 -13  -3   3     244     701
 -14  -4   3     563     793
 -14  -4  -3     473     850
  14   4   3     264     870
 -14  -4   3     442     609
  14   4   3     259     768
  15   5   3     110     915
 -15  -5   3    1434     791
 -15  -5  -3    1129     871
 -15  -5   3    2216     904
  15   5   3     161     564
  16   6   3    1050    1582
 -16  -6  -3     845     983
  16   6   3     459     772
 -16  -6   3     605     858
 -17  -7  -3     963    1004
 -17  -7   3     580     775
 -18  -8   3     175     723
 -18  -8  -3    1143    1196
 -19  -9   3      62     629
 -19  -9  -3      60     943
 -20 -10  -3     561    1028
 -20 -10   3     269     677
 -12 -22   4    2618    2393
 -11 -21   4    3581    1591
 -10 -20   4    1484    1315
  -9 -19   4      63     910
  -9 -19  -4    5009    1510
  -8 -18   4   10220    2477
  -8 -18  -4   10858    2050
  -8 -18  -4    6766    1687
  -7 -17  -4   15558    2053
  -7 -17   4   14919    2654
  -7 -17  -4   19561    2361
  -6 -16   4   14225    2701
  -6 -16  -4   18670    1908
  -6 -16  -4   19686    2373
  -5 -15  -4   48539    2871
  -5 -15  -4   49991    3130
  -5 -15   4   53553    3881
  -4 -14   4   13405    2235
  -4 -14   4   18875    1690
  -4 -14  -4   15302    1968
  -4 -14  -4   12774    1476
  -3 -13  -4   18039    1239
  -3 -13   4   16472    1409
  -3 -13  -4   18764    1807
  -3 -13   4   16525    2191
  -2 -12  -4   51664    2902
  -2 -12   4   52601    2668
  -2 -12   4   50677    3486
  -2 -12  -4   52359    2449
  -1 -11   4   84185    5177
  -1 -11   4   82314    4152
  -1 -11  -4   85091    4359
  -1 -11  -4   89356    3772
   0 -10  -4   53298    2502
   0 -10   4   51285    2401
   0 -10  -4   55784    1838
   0  10   4   51999    2309
   0 -10   4   54856    3133
   1  -9   4   74037    3813
  -1   9   4   78030    3718
   1  -9  -4   75877    3768
   1  -9   4   68894    4474
   1  -9  -4   79318    2916
   2  -8  -4   54326    2606
  -2   8   4   59905    2703
   2  -8   4   58455    2802
   3  -7   4  198975    7033
  -3   7   4  195608    6587
   3  -7  -4  192573    6541
   4  -6  -4  161193    5937
  -4   6   4  157969    6101
   4  -6   4  159143    6519
   5  -5  -4   38993    2647
  -5   5   4   40730    2059
  -5   5   4   40138    2961
   5  -5   4   40487    3265
  -6   4   4   68782    3149
  -6   4   4   67845    2382
   6  -4   4   72606    3568
  -7   3   4   92452    2853
  -7   3   4   90407    3513
  -7   3  -4   89455    3282
   7  -3  -4   83132    2847
   7  -3   4   92293    3946
   8  -2   4    8515    1443
   8  -2  -4    6016     804
  -8   2  -4    5377     966
  -8   2   4    4993    1004
   8  -2   4    7926    1618
  -8   2   4    5196     787
   9  -1   4   55974    2986
   9  -1   4   57008    3370
  -9   1   4   53644    2868
  -9   1   4   54337    2496
   9  -1  -4   54159    2194
  -9   1  -4   51469    2606
  10   0   4   20575    1948
 -10   0  -4   20118    1490
  10   0  -4   21235     961
  10   0   4   23858    1915
 -10   0   4   22967    1842
 -10   0   4   24373    1596
  11   1   4    6477    2000
 -11  -1  -4    6930    1648
 -11  -1   4    7723    1632
  11   1  -4    5015     909
  11   1   4    3624    1471
 -11  -1   4    3940    1447
 -12  -2   4   10565    1719
 -12  -2  -4   12551    1803
  12   2   4   13006    1863
  12   2   4   10361    2087
 -12  -2   4   13846    2007
  13   3   4    7268    1155
 -13  -3   4    9031    1437
  13   3   4   10962    1877
 -13  -3  -4   15750    1774
  14   4   4    5061    2011
 -14  -4  -4    5607    1676
  14   4   4    3002    1366
 -14  -4   4    4752    1526
  15   5   4    2985    1464
  15   5   4    1550     910
 -15  -5   4    2111     981
 -15  -5  -4    4302    1203
 -15  -5   4    3309    1078
 -16  -6   4     775     719
  16   6   4    1395    1273
  16   6   4    1364     887
 -16  -6  -4    2656    1147
 -17  -7   4     551     756
 -17  -7  -4     834    1082
 -18  -8   4     556     677
 -18  -8  -4     740     993
 -19  -9   4     828     812
 -19  -9  -4    3372    1543
 -20 -10   4     357     748
 -20 -10  -4     269    1042
 -12 -22   5     589    1993
 -11 -21   5     663    1547
 -10 -20   5     115    1136
 -10 -20  -5    3416    1355
  -9 -19  -5      50     919
  -9 -19   5      21    1053
  -8 -18   5     672    1078
  -8 -18  -5      17    1107
  -7 -17  -5    4469    1427
  -7 -17   5    2187    1357
  -6 -16   5    2885    1316
  -6 -16  -5    6738    1432
  -5 -15  -5    3418    1190
  -5 -15  -5    2612    1362
  -5 -15   5    1831    1529
  -4 -14  -5    4352    1378
  -4 -14   5    1906    1318
  -4 -14  -5    4860    1066
  -3 -13   5     974     708
  -3 -13  -5    1636     805
  -3 -13  -5    1515     462
  -3 -13   5    1185     625
  -2 -12   5      88     607
  -2 -12  -5       1     367
  -2 -12  -5     229     801
  -2 -12   5     533     690
  -1 -11   5     904     752
  -1 -11  -5    1870    1027
  -1 -11  -5    1903     563
  -1 -11   5    1817    1162
  -1   9   5   16482    1468
   1  -9   5   13335    1332
   1  -9   5   15689    2055
   1  -9  -5   16032    1526
   2  -8   5    1261     654
  -2   8   5    1599     607
   2  -8  -5    1288     674
  -3   7   5    5343     998
   3  -7   5    3235     753
   3  -7  -5    5766     998
   4  -6   5    3276    1168
  -4   6   5    2006     853
   4  -6  -5    3255     924
   5  -5   5   11213    1846
   5  -5  -5   10348    1266
  -5   5   5    9584    1581
  -5   5   5    8731     643
  -6   4   5    2378     539
   6  -4   5    3287    1269
   6  -4  -5    2491     767
  -6   4   5    1928     842
  -7   3   5   33240    2430
   7  -3   5   30080    2619
  -7   3   5   31574    1674
   7  -3  -5   28609    1730
   8  -2   5    8429    2289
  -8   2   5   10347    2107
  -8   2  -5    8921    1519
   8  -2   5    9278    2081
   8  -2  -5    9561    1218
  -8   2   5   11049    1381
   9  -1  -5     867     467
   9  -1   5    2156     599
   9  -1   5    1337     944
  -9   1  -5    1259     488
  -9   1   5     867     763
  -9   1   5     829     549
  11   1   5    4652    1358
  11   1   5    5017    1248
 -11  -1  -5    4095    1040
 -11  -1   5    4319    1166
 -11  -1   5    3447     926
  12   2   5     859     934
 -12  -2   5    2460     929
 -12  -2   5    1473     896
  12   2   5     990    1199
 -12  -2  -5    2361     932
 -13  -3   5     769     832
  13   3   5     275    1178
  13   3   5     892     862
 -13  -3  -5    1151     761
 -13  -3   5     347     632
  14   4   5     390    1297
 -14  -4  -5      20     689
  14   4   5     443     991
 -14  -4   5     725     928
 -14  -4   5     195     895
 -15  -5   5     364     795
 -15  -5   5     752     789
 -15  -5  -5     425     839
  15   5   5     263    1467
  15   5   5      66     898
 -16  -6   5     546     727
  16   6   5    1268     978
 -16  -6  -5     371     882
  16   6   5      23    1261
 -16  -6   5      22     842
 -17  -7   5     870     717
 -17  -7  -5     262     834
  17   7   5    2015    1730
  17   7   5    1513    1069
 -18  -8   5      35     535
 -18  -8  -5      37     768
 -19  -9   5     378     659
 -19  -9  -5     212     848
 -20 -10  -5      91    1140
 -20 -10   5      84     847
 -11 -21   6      14    1236
 -10 -20   6    4290    1968
 -10 -20  -6    1434    1336
  -9 -19  -6    7825    1727
  -9 -19   6    1540    1209
  -8 -18   6    7130    2276
  -8 -18  -6   12030    2063
  -7 -17  -6   17223    2551
  -7 -17   6   14714    2950
  -6 -16  -6   30212    2394
  -6 -16   6   28570    3578
  -5 -15   6   16431    2915
  -5 -15  -6   20013    2407
  -4 -14  -6   32219    2366
  -4 -14   6   27943    3272
  -3 -13  -6   32190    2579
  -3 -13   6   35504    3303
  -2 -12   6   46766    3678
  -2 -12   6   47042    2625
  -2 -12  -6   49471    3002
  -1 -11   6   27223    1830
   1  11   6   24303    1691
  -1 -11   6   28951    3089
  -1 -11  -6   25918    2039
   0  10   6   40428    2927
   0 -10   6   43614    4074
   0 -10   6   42465    3124
   0 -10  -6   43876    2185
   0 -10  -6   43092    3179
   1  -9   6  105750    3683
   1  -9  -6  109162    3690
   1  -9   6  109654    4597
  -1   9   6  114108    3664
   2  -8   6  122640    6146
   2  -8  -6  128487    5862
  -2   8   6  120472    5780
   3  -7   6   62821    3722
   3  -7  -6   71310    3423
  -3   7   6   68165    3595
  -4   6   6  119759    4529
   4  -6  -6  123281    4192
   4  -6   6  122152    4908
  -5   5   6  131314    7273
   5  -5   6  133128    7799
  -5   5   6  142795    6105
   6  -4   6   67245    3904
  -6   4   6   71885    2652
   6  -4  -6   72726    2960
  -6   4   6   65848    3563
   7  -3  -6   40903    1549
   7  -3   6   44193    2812
  -7   3   6   47677    1614
  -7   3   6   43022    2205
   7  -3   6   49016    2391
  -8   2   6   63991    3161
   8  -2   6   60556    4246
  -8   2   6   52589    3685
   8  -2  -6   63019    2844
   8  -2   6   56042    3761
  -9   1  -6    8232     736
   9  -1   6    9478    1058
  -9   1   6    7647     858
  -9   1   6   10536     900
   9  -1   6    9381    1353
   9  -1  -6   10213     607
 -10   0   6   29237    1820
  10   0   6   24389    2358
 -10   0  -6   25801    1864
  10   0   6   24710    2180
 -10   0   6   25051    2134
  11   1   6    9744    2210
 -11  -1   6    8053    1995
 -11  -1  -6   13111    2088
  11   1   6   14932    2749
 -11  -1   6   10499    1830
 -12  -2  -6   26214    2267
  12   2   6   28002    2954
  12   2   6   25325    3253
 -12  -2   6   25414    2209
 -12  -2   6   26502    2959
 -13  -3   6   17895    2248
 -13  -3  -6   11060    1947
 -13  -3   6   13670    2277
  13   3   6   15437    2321
  13   3   6   19403    3008
  14   4   6    3297    1771
  14   4   6    1732    1126
 -14  -4   6    2469    1160
 -14  -4   6    2602    1042
 -14  -4  -6    4051    1282
  15   5   6    4209    1961
  15   5   6    3107    1178
 -15  -5   6    4907    1361
 -15  -5   6    2265     927
 -15  -5  -6    2183     996
  16   6   6    1498     967
 -16  -6   6    1102     812
 -16  -6   6    1930    1115
 -16  -6  -6     519     747
  16   6   6    2057    1540
 -17  -7  -6    2061     953
  17   7   6     728    1024
  17   7   6     161    1580
 -17  -7   6     344     704
 -18  -8  -6    4342    1592
  18   8   6     575    1101
 -18  -8   6    2106     942
  18   8   6    2830    1869
 -19  -9   6     360     822
 -19  -9  -6     609    1080
 -20 -10   6     305     698
 -20 -10  -6     826    1338
 -11 -21   7      62    1704
 -11 -21  -7      57    1552
 -10 -20   7    1597    1761
 -10 -20  -7      29    1277
  -9 -19  -7     103    1113
  -9 -19   7      26     949
  -8 -18   7     334    1227
  -8 -18  -7       3    1146
  -7 -17   7    5966    1770
  -7 -17  -7    4671    1247
  -6 -16  -7    5365    1653
  -6 -16   7    2104    1469
  -5 -15   7     373    1102
  -5 -15  -7    3550    1338
  -4 -14   7     852    1087
  -4 -14  -7     179     762
  -3 -13  -7    5103    1561
  -3 -13   7    4942    2101
  -2 -12  -7    7720    1724
  -2 -12   7    9220    1493
  -2 -12   7    6473    2114
   2  12   7    6483    1320
  -1 -11   7   12470    1632
  -1 -11  -7   12016    1902
   1  11   7    9068    1458
  -1 -11   7   10921    2428
   1  -9  -7    1616     877
  -1   9   7    1510     684
   1  -9   7    2298     965
   2  -8  -7    2554     665
   2  -8   7    2007     784
  -2   8   7    2242     610
   3  -7   7   13435    1700
  -3   7   7    8832    1273
   3  -7  -7   10406    1261
   4  -6   7    6964    2387
   4  -6  -7    6709    1622
  -4   6   7    7187    2152
   5  -5   7    2321    1512
  -5   5   7    3193    1447
  -5   5   7    3180     633
  -6   4   7    4532     798
  -6   4   7    3427    1449
   6  -4   7    6209    1836
   6  -4   7    5479    1880
   6  -4  -7    5726    1139
  -7   3   7    5465    1844
   7  -3  -7    6751    1206
   7  -3   7    6391    1967
  -7   3   7    5966    1193
   7  -3   7    4767    1969
  -8   2   7    2738     820
  -8   2   7    2656     944
   8  -2   7    2679    1101
   8  -2  -7    2790     704
   8  -2   7    3453    1426
  -9   1   7     808     668
  -9   1  -7     125     355
   9  -1   7     341     984
   9  -1  -7     700     493
   9  -1   7     125     643
  -9   1   7     236     658
 -11  -1   7    9559    1943
 -11  -1  -7   10405    2062
 -11  -1   7   11782    2915
  11   1   7   11627    2893
  11   1   7   11297    3138
  12   2   7    1312    1429
 -12  -2   7    2258     812
 -12  -2   7    2581    1085
  12   2   7     161     941
 -12  -2  -7    2312     980
 -13  -3  -7    1364     801
  13   3   7    1898    1190
 -13  -3   7     474     930
 -13  -3   7    1366     909
  13   3   7     996    1256
 -14  -4   7     792     904
 -14  -4  -7     510     860
  14   4   7    1798    1417
  14   4   7     407     979
 -14  -4   7    1475     964
  15   5   7     732     852
 -15  -5   7     577     843
 -15  -5  -7      22     612
 -15  -5   7      20     715
  15   5   7     286    1352
 -16  -6  -7     197     875
  16   6   7     718    1623
 -16  -6   7     155     855
 -16  -6   7     173     866
  16   6   7     201    1194
 -17  -7  -7      47     695
  17   7   7    1076    1102
 -17  -7   7     500     872
 -17  -7   7      53    1012
  17   7   7     191    1536
  18   8   7     177    1025
 -18  -8   7     184     705
  18   8   7    1385    1756
 -18  -8  -7     177     790
 -19  -9   7     281     817
 -19  -9  -7     214    1050
 -20 -10   7     278     654
 -11 -21  -8    2324    1687
 -10 -20   8     204    1360
 -10 -20  -8    6207    1469
  -9 -19  -8    1997    1352
  -9 -19   8    1872    1821
  -8 -18   8    6654    2344
  -8 -18  -8    5080    1588
  -7 -17   8    8609    2305
  -7 -17  -8    5175    1503
  -6 -16   8   10550    2453
  -6 -16  -8   14148    2264
  -5 -15   8   18032    3214
  -5 -15  -8   25198    2851
  -4 -14  -8   23493    2596
  -4 -14   8   17988    3106
  -3 -13   8   18291    3024
  -3 -13  -8   24407    2561
   2  12   8   11653    1619
  -2 -12  -8   11564    1973
  -2 -12   8   12632    2744
  -1 -11  -8   46741    3299
  -1 -11   8   50825    4330
  -1 -11   8   49197    3116
   1  11   8   47431    2995
   0 -10   8  102961    4733
   0  10   8   95058    4494
   0 -10  -8   91468    4691
   0 -10   8  100859    5961
   1  -9   8   51116    2792
  -1   9   8   43992    2488
   1  -9  -8   48851    2692
  -2   8   8   65719    4044
   2  -8   8   57996    4097
   2  -8  -8   65113    3924
  -3   7   8   20627    2072
   3  -7  -8   19018    1856
   3  -7   8   22128    2320
  -4   6   8   19944    2000
   4  -6   8   19317    2160
   4  -6  -8   16307    1478
  -5   5   8   28330    2856
   5  -5   8   26993    3002
   6  -4   8   41642    2852
   6  -4  -8   42157    2103
  -6   4   8   46753    2975
   6  -4   8   42566    3173
  -6   4   8   43251    1928
   7  -3  -8   43884    2026
   7  -3   8   45040    3227
   7  -3   8   39385    2819
  -7   3   8   41029    2027
  -7   3   8   38732    2762
   8  -2  -8   34096    1964
   8  -2   8   30329    3283
  -8   2   8   29001    2135
  -8   2   8   29944    2897
   8  -2   8   27188    3468
  -9   1   8   24541    2673
  -9   1   8   25912    1692
   9  -1   8   21978    2553
   9  -1   8   25341    2953
  10   0   8   14951    2267
  10   0   8   17503    2246
 -10   0  -8   16123    1791
 -10   0   8   14595    2043
 -10   0   8   20547    1836
 -11  -1  -8   17094    2161
 -11  -1   8   16416    2040
  11   1   8   20001    3135
  11   1   8   24251    3670
 -11  -1   8   17151    2981
  12   2   8    7020    2118
 -12  -2   8   14882    2063
 -12  -2  -8   16129    2258
  12   2   8   10728    2207
 -12  -2   8   11514    2265
 -13  -3  -8    5289    1364
 -13  -3   8    7157    1411
  13   3   8    7575    1638
 -13  -3   8    3734    1246
  13   3   8    4309    1675
  14   4   8   10531    2674
 -14  -4   8    9418    1895
 -14  -4   8    8280    2079
  14   4   8    9329    2155
 -14  -4  -8   13904    2407
 -15  -5   8    7590    1821
 -15  -5  -8    5665    1434
  15   5   8    3187    1382
  15   5   8    8133    2326
 -15  -5   8    5946    1416
 -16  -6  -8    7245    1845
  16   6   8    5169    1450
 -16  -6   8    2461     940
 -16  -6   8    3033    1416
  16   6   8    8236    2543
  17   7   8    5707    2166
 -17  -7  -8    3997    1215
 -17  -7   8    3323    1024
 -17  -7   8    3510    1556
  17   7   8     979    1100
  18   8   8     835    1129
 -18  -8   8    1954     928
 -18  -8  -8    1096    1106
  18   8   8    1137    1886
 -19  -9   8     473     831
  19   9   8    1537    1476
  19   9   8    2472    2351
 -19  -9  -8      56    1100
 -11 -21  -9     315    1704
 -10 -20  -9    1412    1417
 -10 -20   9     102    1970
  -9 -19  -9      47    1213
  -9 -19   9      44    1543
  -8 -18  -9     294    1002
  -8 -18   9     394    1428
  -7 -17   9    2382    1729
  -7 -17  -9    5385    1634
  -6 -16   9    3378    1667
  -6 -16  -9    1266    1020
  -5 -15  -9     760     977
  -5 -15   9     812    1113
  -4 -14   9    4155    1434
  -4 -14  -9    2585    1065
  -3 -13   9    6759    2348
  -3 -13  -9    8761    2101
   2  12   9      27     603
  -2 -12  -9     380    1004
  -2 -12   9     168     646
  -1 -11   9   12137    1477
   1  11   9    9167    1322
  -1 -11   9   10927    1974
  -1 -11  -9   11057    1646
   1  -9  -9    1524     870
   1  -9   9     537     965
  -1   9   9     818     611
   1  -9   9    1591     897
  -2   8   9    1775    1072
   2  -8   9    1780    1167
   2  -8  -9     837    1007
   3  -7  -9    7554    1433
  -3   7   9    4567    1238
   3  -7   9    7327    1634
   4  -6   9    2413    1341
   4  -6  -9    3198    1038
  -4   6   9    2063    1027
  -5   5   9    3963    1141
   5  -5   9    4278    1299
   5  -5   9    4019    1154
   5  -5  -9    3474     805
   6  -4   9    6721    1535
   6  -4   9    5349    1297
   6  -4  -9    6034     999
  -6   4   9    4679    1190
   7  -3   9   10774    2514
   7  -3   9    7374    1891
  -7   3   9    7295    1855
  -8   2   9    2070     752
  -8   2   9    1230     563
   8  -2   9    1018     825
   8  -2   9    3035    1129
   9  -1   9     507     690
   9  -1   9    1636    1249
  -9   1   9    1145     906
  -9   1   9     847     626
 -11  -1   9    1893     856
  11   1   9     141    1093
  11   1   9     652    1058
 -11  -1  -9     819     755
 -11  -1   9    2720    1265
  12   2   9    1054    1279
 -12  -2  -9    2092     860
 -12  -2   9     805     815
 -12  -2   9     694     745
  12   2   9    2203    1218
 -13  -3  -9     327     596
 -13  -3   9     440    1064
  13   3   9     327    1216
  13   3   9     546    1138
 -13  -3   9     335     650
  14   4   9    2669    1886
 -14  -4   9    3323    1290
 -14  -4   9    2383    1258
 -14  -4  -9    3258    1350
  14   4   9    2200    1549
 -15  -5   9     902    1073
 -15  -5  -9     564     823
 -15  -5   9     579     848
  15   5   9     519    1183
  15   5   9     155    1464
 -16  -6  -9      51     705
  16   6   9    3150    1739
 -16  -6   9     662     932
  16   6   9     396    1064
 -16  -6   9     364    1196
 -17  -7   9     906    1359
  17   7   9      20     968
 -17  -7   9    1940     948
 -17  -7  -9    1048     943
  17   7   9    1881    1789
  18   8   9      61    2110
 -18  -8   9    1852    1385
 -18  -8   9     233     787
 -18  -8  -9    1509    1295
  18   8   9    1322    1293
  19   9   9     536    1534
 -19  -9  -9     260    1400
 -19  -9   9    1066     922
  19   9   9    2282    2408
 -10 -20 -10    4746    1541
  -9 -19 -10    7721    1571
  -9 -19  10     143    1683
  -8 -18  10     214    1553
  -8 -18 -10    4465    1585
  -7 -17 -10    3456    1307
  -7 -17  10    4551    1910
  -6 -16 -10    8054    2017
  -6 -16  10    7878    2248
  -5 -15  10    6707    2489
  -5 -15 -10    9347    2288
  -4 -14  10    8627    2138
  -4 -14 -10    6692    1728
  -3 -13 -10   16749    2652
  -3 -13  10   20667    3586
  -2 -12 -10   30057    2526
  -2 -12  10   28960    3741
  -1 -11 -10   27240    2568
   1  11  10   24764    2212
  -1 -11  10   26725    3797
   0 -10  10   33798    2620
   0 -10 -10   33139    2658
   0 -10  10   32470    3848
   0  10  10   26561    2250
   1  -9 -10   14036    2008
   1  -9  10   17506    2881
   1  -9  10   21805    2417
  -1   9  10   16626    2097
   2  -8  10   63733    4216
  -2   8  10   62090    3967
   2  -8 -10   66872    3883
  -3   7  10   31514    2584
   3  -7  10   30945    2758
   3  -7 -10   32484    2360
  -4   6  10   62210    3833
   4  -6  10   70157    4327
   4  -6 -10   77286    3555
   5  -5 -10   32843    2070
   5  -5  10   28352    2886
  -5   5  10   33209    2733
   5  -5  10   37666    3596
   6  -4 -10   12316    1478
  -6   4  10   10412    2086
   6  -4  10   10519    2087
   6  -4  10   12577    2518
  -7   3  10   39918    3135
   7  -3 -10   35877    2098
   7  -3  10   41615    3550
   7  -3  10   39180    3164
   8  -2  10   30389    3722
  -8   2  10   22242    3054
   8  -2  10   23564    3045
  -9   1  10   24437    3483
   9  -1  10   24957    3424
   9  -1  10   26426    3833
 -10   0  10   29646    3464
  10   0  10   19902    2910
 -10   0  10   22957    2012
  10   0  10   30967    3788
 -11  -1  10    9722    2332
 -11  -1  10   11674    1858
  11   1  10    8791    2527
  11   1  10    9732    2237
  12   2  10    6639    1930
 -12  -2 -10    8514    1675
 -12  -2  10   10199    1741
  12   2  10    6196    1528
 -12  -2  10    9087    1949
 -13  -3  10    6854    1529
 -13  -3 -10   10320    1890
 -13  -3  10   10157    2350
  13   3  10    6783    1849
  13   3  10    6418    2079
  14   4  10    6972    2702
 -14  -4  10    2911    1562
  14   4  10    4129    1801
 -14  -4  10    4046    1499
 -14  -4 -10    4626    1602
 -15  -5  10    2816    1024
  15   5  10    4723    1685
 -15  -5  10    6263    1811
 -15  -5 -10    4996    1510
  15   5  10    5674    2276
 -16  -6 -10    6987    1689
  16   6  10    7096    2268
 -16  -6  10    5658    1825
 -16  -6  10    4825    1282
  16   6  10    6033    1751
  17   7  10    1862    1556
 -17  -7  10    2499    1189
 -17  -7 -10    5672    1805
 -17  -7  10    1698    1707
  17   7  10    4506    2396
 -18  -8 -10    6241    1889
 -18  -8  10    4931    1883
 -18  -8  10    1737    1056
  18   8  10    8375    2822
  18   8  10    4773    1807
  19   9  10       9    3081
  19   9  10     667    2259
 -19  -9  10    1021    1092
  -9 -19  11    2550    1719
  -9 -19 -11      40    1144
  -8 -18 -11       3    1176
  -8 -18  11     114    1526
  -7 -17  11       8    1034
  -7 -17 -11       6    1024
  -6 -16  11      42    1112
  -6 -16 -11      42     931
  -5 -15 -11    4061    1417
  -5 -15  11    2074    1344
  -4 -14  11     824    1234
  -4 -14 -11    2944    1334
  -3 -13 -11   11095    2266
  -3 -13  11    3503    1682
  -2 -12  11     706     895
  -2 -12 -11    2819    1040
  -1 -11  11    2356    1681
  -1 -11 -11    3050    1580
   1  11  11     928     989
   1  -9  11   17946    2443
   1  -9 -11   18279    2382
  -1   9  11   14838    2184
   1  -9  11   11812    2622
   2  -8 -11     810    1002
  -2   8  11     221     608
   2  -8  11     198     838
   3  -7  11   12172    2347
   3  -7 -11   12147    1837
  -3   7  11   11836    2072
   4  -6 -11     646     688
   4  -6  11      61     913
  -4   6  11      60     575
   5  -5  11    4076    1347
   5  -5 -11    5477    1296
   5  -5  11    3503    1592
  -5   5  11    1930     853
   6  -4 -11    7841    1455
   6  -4  11   10457    2662
   6  -4  11    8684    2137
  -6   4  11    8949    2214
   7  -3  11   19632    3240
   7  -3  11   15018    2554
  -7   3  11   14030    2505
   8  -2  11    1198    1347
  -8   2  11      67     616
   8  -2  11      66     831
  -9   1  11    5745    1656
   9  -1  11    3440    1369
   9  -1  11    1991    1454
  11   1  11     972    1232
  11   1  11     789    1475
 -11  -1  11     345     790
 -12  -2  11       1     831
  12   2  11      46    1300
  12   2  11      62    1021
  13   3  11    1234    1801
 -13  -3  11     123     889
 -13  -3  11    3718    1640
  13   3  11     603    1223
  14   4  11    1502    1774
 -14  -4  11    2344    1115
 -14  -4  11     776     935
  14   4  11      26    1145
 -14  -4 -11      26     664
 -15  -5  11      30     686
 -15  -5 -11     787     891
  15   5  11    2832    1988
 -15  -5  11     785    1167
  15   5  11     614    1516
  16   6  11    5026    2741
 -16  -6 -11    1375    1161
 -16  -6  11     507    1307
  16   6  11    1123    1809
 -16  -6  11     129     924
  17   7  11     207    2131
 -17  -7  11     204    1290
 -17  -7 -11     812    1091
  17   7  11     851    1542
 -17  -7  11    1143     855
 -18  -8 -11     218    1470
 -18  -8  11     154    1480
 -18  -8  11      53     918
  18   8  11     148    1860
  18   8  11    1606    3167
  -8 -18 -12    6238    1784
  -8 -18  12    5060    1982
  -7 -17  12    1909    1593
  -7 -17 -12    5059    1532
  -6 -16 -12   10986    2025
  -6 -16  12    4970    1785
  -5 -15  12    2262    1745
  -5 -15 -12    4082    1658
  -4 -14  12   16078    3303
  -4 -14 -12   17602    2818
  -3 -13  12    5041    1830
  -3 -13 -12   13151    2419
  -2 -12 -12   15856    2563
  -2 -12  12   15168    3299
  -1 -11  12    8873    2130
  -1 -11 -12    5650    1557
   0 -10 -12    5614    1677
   0 -10  12    4683    1813
   0  10  12    4588    1380
   1  -9 -12   25289    2380
   1  -9  12   29060    2662
   1  -9  12   32051    3903
  -1   9  12   26959    2385
   2  -8 -12   18426    2192
   2  -8  12   11564    1982
  -2   8  12   10358    1655
   3  -7 -12   32425    2610
  -3   7  12   33506    2932
   3  -7  12   30305    3108
   4  -6  12   21077    2996
   4  -6 -12   21443    1933
  -4   6  12   16971    2525
  -5   5  12   29105    3437
   5  -5  12   32587    3925
   5  -5  12   31450    3453
   5  -5 -12   27698    2269
   6  -4  12   40408    3478
  -6   4  12   33074    3289
   6  -4  12   41837    3897
   7  -3  12   16649    3063
  -7   3  12   13882    2565
   7  -3  12   11136    2256
  -8   2  12   54291    4506
   8  -2  12   42548    4032
   8  -2  12   46984    4543
  -9   1  12   28745    3843
   9  -1  12   26312    3926
   9  -1  12   27057    3639
  10   0  12   25756    3365
  10   0  12   27343    3841
 -10   0  12   22092    3238
 -11  -1  12    8389    2138
  11   1  12    8049    2302
  11   1  12   10802    2197
  12   2  12   11490    2893
  12   2  12   10161    2323
 -13  -3  12    2653    1519
  13   3  12    4169    1494
  13   3  12    6013    2403
  14   4  12    2489    1612
  14   4  12    1280    1887
 -14  -4  12    2121    1543
  15   5  12    2280    1623
 -15  -5  12    1234    1524
  15   5  12    3159    2279
 -16  -6 -12    1261    1094
  16   6  12     907    2198
 -16  -6  12    1129    1477
  16   6  12     877    1627
 -17  -7 -12    4346    1529
  17   7  12     125    2841
 -17  -7  12    1049    1916
  17   7  12     125    2056
  -7 -17 -13    2060    1344
  -7 -17  13    2516    1537
  -6 -16 -13      26    1003
  -6 -16  13    1952    1371
  -5 -15 -13    2431    1321
  -5 -15  13      32    1161
  -4 -14  13      10     915
  -4 -14 -13      10     950
  -3 -13  13     286     983
  -3 -13 -13     228     829
  -2 -12 -13    1319    1159
  -2 -12  13     104     788
  -1 -11  13    2159    1287
  -1 -11 -13    1932    1139
   1  -9  13     704     883
  -1   9  13     872     685
   1  -9 -13    2636     883
   2  -8 -13     683     812
  -2   8  13     681     707
   2  -8  13    2327    1065
   3  -7  13       3     899
  -3   7  13       3     674
   3  -7 -13    1629     993
   4  -6  13     688    1359
  -4   6  13    1011    1071
   4  -6 -13     319     596
   5  -5 -13    1106    1050
   5  -5  13       4     886
  -5   5  13     588    1001
   5  -5  13     381    1377
   6  -4  13     213    1354
   6  -4  13      58     822
  -6   4  13    1596    1110
   7  -3  13     594    1114
  -7   3  13     411    1088
   7  -3  13     702    1222
  -8   2  13    3566    1114
   8  -2  13    4177    1742
   8  -2  13    3140    1248
  -9   1  13    4654    1610
   9  -1  13    2343    1227
   9  -1  13    3119    1561
  11   1  13     531    1355
  11   1  13    2301    1198
 -11  -1  13    1242    1247
  12   2  13     345     972
  12   2  13    1553    1267
 -12  -2  13    1752    1286
 -13  -3  13    2115    1361
  13   3  13       1    1431
  13   3  13     434    1364
  14   4  13     618    1474
  14   4  13     247    1820
 -14  -4  13     739    1199
  15   5  13     479    1731
 -15  -5  13      43    1277
  15   5  13      44    1959
 -16  -6  13      46    1653
  16   6  13      97    1990
  16   6  13      97    2487
  -6 -16  14    6554    2111
  -6 -16 -14     183    1667
  -5 -15  14    6221    1829
  -5 -15 -14      56    1355
  -4 -14 -14    6900    2196
  -4 -14  14   10869    3109
  -3 -13  14    7696    2085
  -3 -13 -14   11964    2256
  -2 -12  14   15252    3471
  -2 -12 -14   11620    2466
  -1 -11 -14   26480    3119
  -1 -11  14   28983    4216
   0 -10  14   25384    3913
   0 -10 -14   27372    3018
   1  -9 -14   11330    2092
   1  -9  14   13091    2882
  -1   9  14   12417    2072
  -2   8  14    6768    1433
   2  -8 -14    8230    1531
   3  -7 -14   15394    2367
   3  -7  14   17770    3158
  -3   7  14   16717    2869
   4  -6  14   26703    3803
  -4   6  14   24864    3473
  -5   5  14   26632    3437
   5  -5  14   17225    2757
   5  -5  14   26583    3692
   6  -4  14   16189    2765
  -6   4  14   10478    2193
   6  -4  14   14831    3091
  -7   3  14   13370    3060
   7  -3  14   14966    2999
   7  -3  14   13934    3219
  -8   2  14   12521    2403
   8  -2  14   10225    2469
   8  -2  14   10278    1974
   9  -1  14    4706    1717
  -9   1  14    5931    1887
   9  -1  14    4523    1760
 -10   0  14    8690    2214
  10   0  14    9030    2351
  10   0  14   10214    2695
  11   1  14    6074    1818
  11   1  14    6717    2232
 -11  -1  14    4697    1558
  12   2  14     358    1490
  12   2  14    4883    1845
 -12  -2  14    5020    2143
 -13  -3  14       7    1216
  13   3  14    1878    1429
  13   3  14    1345    1785
 -14  -4  14     216    1170
  14   4  14     216    1641
  14   4  14     216    1775
 -15  -5  14      31    1725
  15   5  14    1034    2296
  15   5  14      31    2429
  -5 -15  15     847    1325
  -5 -15 -15     709    1518
  -4 -14 -15     118    1148
  -4 -14  15      14     958
  -3 -13 -15    2084    1406
  -3 -13  15      59    1027
  -2 -12  15       9     913
  -2 -12 -15    2821    1290
  -1 -11 -15    1153    1062
  -1 -11  15     202     764
   1  -9  15     103     953
   1  -9 -15     166     804
   2  -8 -15     714     860
   2  -8  15     280     821
  -2   8  15     437     783
   3  -7 -15    1352     946
  -3   7  15     999     890
   4  -6  15     105    1270
  -4   6  15     106     883
  -5   5  15    1995    1074
   5  -5  15    1927    1138
   5  -5  15     465    1309
  -6   4  15      39     831
   6  -4  15      40    1044
   6  -4  15    2144    1122
   7  -3  15    2199    1301
  -7   3  15      22     768
   7  -3  15    1099    1423
   8  -2  15    1615    1210
  -8   2  15     808    1050
   8  -2  15     301    1378
  -9   1  15    1529    1544
   9  -1  15    2934    1771
   9  -1  15    2393    1800
  11   1  15    3426    1629
  11   1  15    2159    1742
 -11  -1  15    1245    1223
 -12  -2  15     642    1388
  12   2  15     978    1395
  12   2  15       7    1079
 -13  -3  15      11    1461
  13   3  15     977    1483
  13   3  15      11    1470
  14   4  15       5    2298
 -14  -4  15       5    1895
  14   4  15       5    1967
  -4 -14 -16      69    1372
  -4 -14  16   12197    2588
  -3 -13  16   11777    2718
  -3 -13 -16      26    1099
  -2 -12  16    6279    2213
  -2 -12 -16    6956    2183
  -1 -11  16   10285    2627
  -1 -11 -16    8443    1888
   0 -10  16    6190    2183
   0 -10 -16    4366    1578
   1  -9  16    8855    2280
   1  -9 -16   10696    1967
   2  -8 -16   24057    2901
   2  -8  16   23175    3962
  -3   7  16   10706    2284
  -4   6  16    6355    1833
   4  -6  16    3530    1697
  -5   5  16   11793    2488
   5  -5  16    6451    1706
   5  -5  16    6996    2272
   6  -4  16   11701    2673
   6  -4  16    9344    2741
  -6   4  16   13173    2921
   7  -3  16   12548    2647
   7  -3  16    4996    2201
  -7   3  16   12908    2850
  -8   2  16    7662    2085
   8  -2  16    6678    1971
   8  -2  16    2526    1567
   9  -1  16    4555    2059
   9  -1  16    4567    1728
  -9   1  16    6827    2089
 -10   0  16    1365    1424
  10   0  16    2443    1754
  10   0  16     635    1743
  11   1  16    1863    1446
 -11  -1  16    5025    1615
  11   1  16    2405    1674
 -12  -2  16     240    1213
  12   2  16    2983    2038
  12   2  16    2368    1659
  -3 -13  17     141    1256
  -3 -13 -17     975    1714
  -2 -12 -17      11    1428
  -2 -12  17      12    1240
  -1 -11 -17    2008    1296
  -1 -11  17      62    1306
   1  -9 -17     373     861
   1  -9  17     179    1008
   2  -8 -17     788     920
   2  -8  17      38    1287
   3  -7  17    1254    1214
  -3   7  17    3810    1435
  -4   6  17     243    1100
  -5   5  17     175    1001
   5  -5  17    2445    1639
   6  -4  17     944    1235
   6  -4  17     133    1476
  -6   4  17     111    1046
   7  -3  17    1224    1176
   7  -3  17    1010    1457
  -7   3  17     408    1060
   8  -2  17     338    1485
  -8   2  17    2886    1504
   8  -2  17      51    1106
   9  -1  17      81    1290
   9  -1  17    3667    1312
  -9   1  17    3713    1692
 -11  -1  17       4    1199
  11   1  17     888    1373
  11   1  17    1837    1669
  -1 -11 -18   10704    2819
  -1 -11  18    4978    2121
   0 -10 -18   14036    2507
   0 -10  18   11795    2941
   1  -9  18    4339    1917
   1  -9 -18    6604    1859
   2  -8  18    3970    1910
   3  -7  18    4134    1695
  -4   6  18    5337    1925
  -5   5  18    9041    2433
  -6   4  18    8146    2226
   6  -4  18    8304    2613
   6  -4  18    8018    2184
   7  -3  18    3719    2048
  -7   3  18    4891    1807
   7  -3  18    3097    1603
   8  -2  18    6215    2576
  -8   2  18    6592    2155
   8  -2  18    6002    2194
   9  -1  18    2181    1648
   9  -1  18    1683    1309
  -9   1  18    4512    2037
   1  -9  19     827    1865
   2  -8  19    2856    1965
   3  -7  19      17    1810
   4  -6  19     542    2044
  -5   5  19    1134    1870
  -6   4  19     166    1560
  -7   3  19    1961    1645
   7  -3  19     216    2325
   7  -3  19     249    2087
   8  -2  19     959    1871
   8  -2  19      67    1855
 -11 -23   0    2368    1344
 -10 -22   0    2423    1318
  -9 -21   0    1444    1049
  -8 -20   0   11427    2095
  -7 -19   0    3561    1377
  -6 -18   0   15152    2099
  -6 -18   0   20252    2071
  -5 -17   0    9670    1635
  -5 -17   0    6087    1546
  -4 -16   0   41698    3330
  -4 -16   0   39941    3655
  -3 -15   0   32929    2078
  -3 -15   0   34523    2014
  -1 -13   0   64524    3840
  -1 -13   0   51738    3836
   0 -12   0   54039    2132
   0 -12   0   65644    2313
   1 -11   0   31502    1218
   1 -11   0   32138    1224
   2 -10   0  134765    7800
   2 -10   0  133427    8010
   3  -9   0   37713    1653
   4  -8   0   72934    4013
   5  -7   0   74945    4111
   6  -6   0  111885    5751
  -6   6   0  113021    5334
  -7   5   0   34786    2371
  -7   5   0   28863    2126
   7  -5   0   38598    2701
   8  -4   0   77986    3957
  -8   4   0   64413    3396
  -8   4   0   71713    3470
  -9   3   0  143138    5868
   9  -3   0  142654    6152
 -10   2   0  114287    5000
 -10   2   0  106990    5284
  10  -2   0  108706    5480
 -11   1   0   45759    2188
 -11   1   0   45402    2423
  12   0   0   29379    2525
 -12   0   0   29114    2416
 -12   0   0   28269    2147
 -13  -1   0    4722    1639
  13   1   0    2544    1524
 -14  -2   0   57169    3782
  14   2   0   50325    3533
 -15  -3   0    5710    1689
 -18  -6   0    3553    1051
 -19  -7   0    1812     876
 -20  -8   0     890     865
 -21  -9   0     205     798
 -11 -23   1    1091    1404
 -10 -22  -1      10     922
 -10 -22   1       7    1126
  -9 -21   1     101    1115
  -9 -21  -1     569     949
  -8 -20   1     318    1077
  -8 -20  -1      21     820
  -7 -19  -1     186     960
  -7 -19   1     321     609
  -7 -19  -1      13     839
  -6 -18   1    1695    1024
  -6 -18  -1    3260    1141
  -6 -18  -1    2326    1237
  -5 -17  -1    6062    1419
  -5 -17   1    7792    1639
  -5 -17  -1    4926    1484
  -5 -17   1    5754    1738
  -4 -16   1     740    1036
  -4 -16  -1     840     398
  -4 -16  -1     572     885
  -4 -16   1     812     948
  -3 -15  -1    4836    1169
  -3 -15   1    4040    1065
  -3 -15   1    2759     959
  -3 -15  -1    3093     840
  -2 -14  -1   10456    1628
  -2 -14   1    9553    1693
  -2 -14  -1   12759    1727
  -2 -14   1   11246    1602
  -1 -13   1   20778    2339
  -1 -13  -1   21407    2345
  -1 -13   1   20680    2554
  -1 -13  -1   21124    2383
   1 -11  -1     861     762
   1 -11   1     179     310
   1 -11  -1     697     532
   1 -11   1     546     704
   2 -10  -1    8705    1417
   2 -10   1    8040    1376
   2 -10  -1    9001    1202
   3  -9  -1    6964    1228
   3  -9   1    7861    1675
   3  -9  -1    8009    1629
   4  -8  -1   16879    1812
   4  -8   1   13748    1728
  -4   8   1   14245    1561
   5  -7  -1    4534    1253
   5  -7   1    4797    1376
  -5   7   1    4688    1161
  -6   6   1     213     306
   6  -6  -1     213     518
   6  -6   1     208     532
  -7   5  -1    1408     937
  -7   5  -1    1135     892
  -7   5   1    1404     794
  -7   5   1    1110     993
   7  -5  -1     966    1042
   7  -5   1     840    1083
  -8   4   1    2850     313
   8  -4   1    2829     655
   8  -4  -1    1461     574
  -8   4  -1    2829     185
  -8   4  -1    1288     442
  -8   4   1    2071     433
   9  -3   1    5912    1517
  -9   3   1    7619    1108
  -9   3  -1    6408    1300
   9  -3  -1    3426    1097
  -9   3   1    5518    1263
  -9   3  -1    8456    1263
 -10   2   1    3048    1105
  10  -2   1    3641    1499
 -10   2  -1    5727    1365
 -10   2  -1    5363    1128
  10  -2  -1    6489    1401
 -11   1   1   21086    1709
 -11   1   1   18610    1455
 -11   1  -1   20181    1542
 -11   1  -1   19270    1242
  11  -1  -1   24722    1671
  11  -1   1   22526    2110
  13   1  -1    5006    1006
 -13  -1  -1    3204     619
 -13  -1  -1    4545    1025
  13   1   1    2750     967
 -13  -1   1    3583     791
 -13  -1   1    3781     873
  14   2  -1     204     953
  14   2   1     831    1404
 -14  -2  -1     260     965
 -14  -2   1      60     746
 -14  -2   1     271     836
 -15  -3   1     902     757
 -15  -3  -1    1922     793
  15   3   1    2866    1368
 -16  -4  -1    3723     976
 -16  -4   1    1373     729
 -17  -5  -1    1644     905
 -17  -5   1    2252     873
 -18  -6  -1     654     773
 -18  -6   1     983     750
 -19  -7   1      90     717
 -19  -7  -1     362     714
 -20  -8   1     188     676
 -20  -8  -1     197     780
 -21  -9  -1     519     953
 -21  -9   1      71     637
 -11 -23   2    2990    1912
 -10 -22   2    5754    1871
  -9 -21   2    2913    1359
  -8 -20  -2    3434    1170
  -8 -20   2    4083    1346
  -7 -19   2    6464    1809
  -7 -19  -2    4862    1517
  -7 -19  -2    8780    1889
  -6 -18   2    5481    1468
  -6 -18  -2    5795    1381
  -5 -17   2    7477    1761
  -5 -17  -2    8996    1605
  -5 -17   2   10262    1572
  -5 -17  -2   10642    1817
  -4 -16   2    8727    1733
  -4 -16   2   10763    2364
  -4 -16  -2    9850    1940
  -4 -16  -2   11153    1948
  -3 -15  -2   30015    2188
  -3 -15   2   31491    2557
  -3 -15  -2   25706    2011
  -3 -15   2   29534    2093
  -2 -14   2   42303    2315
  -2 -14   2   39252    2613
  -2 -14  -2   39668    2200
  -2 -14  -2   44642    2476
  -1 -13  -2   32820    2602
  -1 -13   2   32120    2497
  -1 -13  -2   37353    2510
  -1 -13   2   36159    3019
   0 -12  -2   31996    1383
   0 -12  -2   34230    1857
   0 -12   2   32176    1603
   0 -12   2   31579    2102
   1 -11  -2   46088    1986
   1 -11   2   37568    2373
   1 -11  -2   46136    2303
   1 -11   2   42788    2253
   2 -10  -2   52106    2570
   2 -10  -2   49314    2944
   2 -10   2   48211    2968
   2 -10   2   51738    3418
   3  -9   2   96599    4390
   3  -9  -2  103604    3903
   3  -9  -2  103889    4353
  -3   9   2  100656    4211
  -4   8   2  158323    6096
   4  -8  -2  149885    6178
   4  -8   2  155541    6493
   5  -7  -2  120619    5470
  -5   7   2  113887    5306
   5  -7   2  118332    5703
  -6   6   2   68285    3947
   6  -6  -2   61229    3861
  -6   6   2   64089    3354
   6  -6   2   68726    4319
   7  -5  -2   43121    2679
  -7   5   2   40263    2616
   7  -5   2   45553    3085
  -7   5   2   41755    2223
   8  -4   2   31256    2425
  -8   4   2   30923    2158
  -8   4   2   31190    1785
  -8   4  -2   29464    1993
   8  -4  -2   33081    2055
   9  -3   2   31600    3005
   9  -3  -2   27958    2433
  -9   3   2   33551    2682
  -9   3   2   34222    2422
  -9   3  -2   29046    2488
  -9   3  -2   32824    2231
 -10   2  -2   28207    1784
 -10   2   2   23284    1922
  10  -2   2   22293    2374
 -10   2   2   21967    2045
 -10   2  -2   25604    2110
  10  -2  -2   24267    1975
  11  -1   2   55125    3602
  11  -1  -2   53487    2886
 -11   1   2   53595    3032
 -11   1  -2   52627    2495
 -11   1  -2   53932    3164
 -12   0  -2   29817    2024
  12   0   2   29797    3060
  12   0  -2   29159    2416
 -12   0  -2   29048    2675
 -12   0   2   22320    2420
 -12   0   2   28144    2575
 -13  -1   2   12099    2058
 -13  -1   2    8380    1795
 -13  -1  -2   12843    2181
  13   1  -2   10571    1481
  13   1   2   12238    2378
 -14  -2   2    2570     934
 -14  -2  -2    5591    1405
 -14  -2   2    5027    1364
  14   2   2      18     766
 -15  -3  -2    9600    2215
 -15  -3   2    5760    1796
  15   3   2    9561    2479
 -15  -3   2    6441    1782
 -16  -4  -2    5464    1501
 -16  -4   2    6580    1571
  16   4   2    5959    1788
 -17  -5  -2    2546    1064
 -17  -5   2    2364     982
 -18  -6  -2    3121    1200
 -18  -6   2    2605    1032
 -19  -7  -2     731     926
 -19  -7   2    1541     777
 -20  -8   2      50     538
 -20  -8  -2      47     940
 -21  -9   2     407     690
 -21  -9  -2    1039    1007
 -11 -23   3     163    1789
 -10 -22   3     153    1187
  -9 -21   3     346    1045
  -8 -20  -3    1856    1093
  -8 -20   3     310    1051
  -7 -19  -3    3660    1340
  -7 -19   3     552    1038
  -6 -18   3     257     791
  -6 -18  -3     285    1052
  -6 -18  -3     152     709
  -5 -17  -3     886    1028
  -5 -17  -3    1021     936
  -5 -17   3       4     948
  -4 -16  -3    1941    1060
  -4 -16   3    1645    1175
  -4 -16  -3    1388     849
  -4 -16   3    2349    1107
  -3 -15   3    3495    1482
  -3 -15   3    2459    1088
  -3 -15  -3    3145    1182
  -3 -15  -3    3244    1330
  -2 -14  -3    3696     856
  -2 -14  -3    2437    1052
  -2 -14   3    3301     921
  -2 -14   3    2654     955
  -1 -13  -3    3546     966
  -1 -13  -3    4145     766
  -1 -13   3    3792     820
  -1 -13   3    4089    1004
   1 -11   3    3322    1420
   1 -11   3    4896    1918
   1 -11  -3    4493     934
   1 -11  -3    4721    1553
  -2  10   3      91     442
   2 -10   3     224     818
   2 -10  -3      53     389
   2 -10  -3      61     761
   3  -9   3   10976    1661
  -3   9   3   11616    1567
   3  -9  -3    9772     844
   3  -9  -3   12968    1661
  -4   8   3    8775    1712
   4  -8  -3    7922    1623
   4  -8   3    8979    1815
   5  -7  -3    7595    1178
   5  -7   3    5703    1201
  -5   7   3    9214    1358
   6  -6   3   18030    1940
  -6   6   3   17012    1460
  -6   6   3   15476     907
   6  -6  -3   15348    1362
  -7   5   3   25241    1821
  -7   5   3   22796    1204
   7  -5   3   23082    1978
   7  -5  -3   25045    1677
   8  -4  -3     834     421
   8  -4   3     600     838
  -8   4   3     838     726
  -8   4   3     598     418
  -8   4  -3     616     557
   9  -3   3    6147    1604
  -9   3   3    6818    1025
  -9   3  -3    5506    1168
   9  -3  -3    7023    1103
  -9   3   3    5162    1168
  10  -2   3    6745    1971
  10  -2  -3    5237    1170
 -10   2   3    5282    1499
 -10   2   3    5161    1215
 -10   2  -3    5989    1510
  11  -1  -3    8175    1418
 -11   1  -3    6808    1832
 -11   1   3    9100    2098
  11  -1   3    7593    2373
 -11   1   3    6930    1493
 -13  -1   3     471     416
 -13  -1  -3     197     742
  13   1   3     462     990
 -13  -1   3      25     685
  14   2   3    2120    1403
 -14  -2   3     561     689
 -14  -2  -3     764     790
 -14  -2   3    1135     870
 -15  -3   3     574     734
  15   3   3     159    1072
 -15  -3   3     608     802
 -15  -3  -3     942     893
  16   4   3       2     651
 -16  -4  -3     364     681
  16   4   3      52    1010
 -16  -4   3     701     752
 -17  -5  -3    1202    1015
 -17  -5   3     794     815
 -18  -6   3      54     576
 -18  -6  -3     634     846
 -19  -7   3     315     719
 -19  -7  -3     941    1107
 -20  -8   3     182     892
 -20  -8  -3     180    1113
 -21  -9  -3     592    1497
 -21  -9   3      61     619
 -11 -23   4    2065    2230
 -10 -22   4    4683    1918
  -9 -21   4    1335    1577
  -8 -20  -4    5866    1595
  -8 -20   4    5017    1621
  -7 -19  -4   19234    2589
  -7 -19   4   11405    2554
  -6 -18  -4   21054    2492
  -6 -18   4   24847    3325
  -5 -17   4   20239    2840
  -5 -17  -4   22650    2347
  -4 -16   4   45132    3959
  -4 -16  -4   54047    3540
  -3 -15   4   20958    2551
  -3 -15   4   21482    1826
  -3 -15  -4   17918    1307
  -3 -15  -4   20591    1982
  -2 -14   4   20387    2762
  -2 -14  -4   22376    1976
  -2 -14  -4   19175    1516
  -2 -14   4   21449    1813
  -1 -13  -4   27939    1954
  -1 -13   4   23668    2779
  -1 -13   4   29055    2356
  -1 -13  -4   24869    2407
   0 -12   4   53938    2753
   0 -12  -4   48134    2701
   0 -12  -4   45798    2009
   0 -12   4   48149    3329
   1 -11   4   77479    5088
   1 -11  -4   87631    4401
   1 -11   4   84206    4347
   1 -11  -4   86894    3455
  -1  11   4   76142    4051
   2 -10   4  112732    5223
   2 -10  -4  118618    5134
   2 -10  -4  121254    4106
  -2  10   4  111309    4976
  -3   9   4   37703    2018
   3  -9   4   38227    2133
   3  -9  -4   38558    2003
  -4   8   4   97563    4966
   4  -8   4   94649    5254
   4  -8  -4  100492    4932
   5  -7  -4   55336    2755
  -5   7   4   52884    2853
   5  -7   4   57669    3231
  -6   6   4   95219    4014
   6  -6   4  101081    5517
  -6   6   4   88471    4959
   6  -6  -4   90135    4679
  -7   5   4  131157    4477
  -7   5   4  128015    5306
   7  -5   4  128124    5804
  -8   4   4  110156    4541
   8  -4  -4  108243    4730
   8  -4   4  106857    5818
  -8   4   4   93794    5070
   9  -3   4   15639    2738
   9  -3  -4   15317    1904
  -9   3   4   13195    1773
  -9   3   4   12368    2203
  -9   3  -4   14618    2166
 -10   2  -4   13943    1846
 -10   2   4   15262    2332
  10  -2  -4   14749    1573
 -10   2   4   15094    1666
  10  -2   4   15171    2693
 -11   1  -4    6670    1623
  11  -1   4    6015    2076
  11  -1  -4    6360    1178
 -11   1   4    7757    1517
 -11   1   4    8143    1915
  12   0   4   19065    2829
 -12   0   4   14802    2090
 -12   0   4   17392    2477
 -12   0  -4   17480    2288
  12   0   4   17874    2508
  13   1   4   18550    2902
 -13  -1  -4   19155    2076
 -13  -1   4   19291    2049
 -13  -1   4   16192    2400
 -14  -2   4   13756    1944
 -14  -2  -4   16708    2219
 -14  -2   4   13695    2039
  14   2   4   13805    2543
  14   2   4    9357    1650
  15   3   4   12703    2558
 -15  -3   4    4295    1371
  15   3   4    1953    1075
 -15  -3  -4    5614    1468
 -16  -4   4    1142    1025
  16   4   4    2193    1604
  16   4   4     953     985
 -16  -4   4    1840     996
 -16  -4  -4    2234    1189
 -17  -5   4     999     688
  17   5   4     725     992
  17   5   4    7424    2007
 -17  -5  -4    3378    1242
 -18  -6  -4    1849    1152
 -18  -6   4     671     666
 -19  -7  -4      55     982
 -19  -7   4     918     866
 -20  -8   4    1113     663
 -20  -8  -4      87     950
 -21  -9  -4      22    1572
 -21  -9   4     644     818
 -10 -22   5     587    1530
  -9 -21   5    2291    1788
  -9 -21  -5    2406    1507
  -8 -20  -5    1682    1175
  -8 -20   5     832    1225
  -7 -19  -5    1318    1244
  -7 -19   5     597    1231
  -6 -18   5    3787    1663
  -6 -18  -5    4447    1364
  -5 -17   5    5255    1976
  -5 -17  -5    4483    1497
  -4 -16   5    1373    1221
  -4 -16  -5     246     970
  -3 -15  -5    2109    1284
  -3 -15   5    1691    1481
  -3 -15   5    1342    1044
  -2 -14   5     606     799
  -2 -14   5    2210    1167
  -2 -14  -5    1462     886
  -1 -13   5    1142     991
  -1 -13   5      70     601
  -1 -13  -5     772     750
   1 -11  -5    1662     967
   1 -11   5    2185    1370
  -1  11   5    1891     896
   1 -11   5    1350     880
   2 -10   5    2620     865
  -2  10   5    2558     844
   2 -10  -5    1913     887
  -3   9   5    1780     678
   3  -9   5    1858     692
   3  -9  -5    2195     783
   4  -8  -5    1853     782
   4  -8   5     213     685
  -4   8   5    2109     743
   5  -7   5   15281    2192
   5  -7  -5   12911    1564
  -5   7   5   14747    2014
  -6   6   5   23170    1390
   6  -6  -5   21849    2054
  -6   6   5   21461    2349
   6  -6   5   19638    2539
   7  -5   5   19211    2369
  -7   5   5   17069    1996
  -7   5   5   14819    1001
   8  -4  -5   21538    1859
  -8   4   5   24449    1706
  -8   4   5   24413    2446
   8  -4   5   21016    2655
  -9   3  -5    2452     874
  -9   3   5     766     772
   9  -3   5    1707    1228
   9  -3  -5    1889     670
  -9   3   5    1675     667
 -10   2   5     613    1435
 -10   2   5     494    1075
  10  -2   5     171    1478
  10  -2  -5     945    1012
 -10   2  -5     470    1262
  11  -1  -5    5592     832
  11  -1   5    4386    1505
 -11   1   5    5154    1061
  11  -1   5    5926    1557
 -11   1   5    4321    1202
 -11   1  -5    3767     928
 -13  -1  -5     406     756
  13   1   5     231     877
 -13  -1   5    2838    1190
 -13  -1   5    2549    1241
  13   1   5    2616    1426
 -14  -2   5    2847    1325
 -14  -2   5    1246    1176
  14   2   5    1241    1110
 -14  -2  -5    1512    1092
  14   2   5    3717    1937
 -15  -3   5     637     806
 -15  -3  -5     375     790
  15   3   5    1862    1426
  15   3   5     495     885
 -15  -3   5    1370     841
 -16  -4   5     901     858
  16   4   5    3593    1856
 -16  -4  -5      57     707
 -16  -4   5     111     710
  16   4   5    1179    1110
 -17  -5  -5    1013     915
  17   5   5    1501    1590
  17   5   5       8     825
 -17  -5   5     730     666
 -18  -6  -5     401     991
 -18  -6   5     267     647
  18   6   5     652    1799
  18   6   5     268     901
 -19  -7  -5     204    1077
 -19  -7   5     330     742
 -20  -8  -5     140    1028
 -20  -8   5      18     649
 -21  -9   5     206     720
 -10 -22   6      35    1545
 -10 -22  -6    1912    1651
  -9 -21   6    5003    2051
  -9 -21  -6    1229    1405
  -8 -20   6    6666    2444
  -8 -20  -6    5142    1668
  -7 -19   6    7112    2382
  -7 -19  -6    9408    1790
  -6 -18   6    9607    2085
  -6 -18  -6   11545    1826
  -5 -17  -6   23362    2477
  -5 -17   6   15915    2768
  -4 -16  -6   10955    1789
  -4 -16   6    8221    2015
  -3 -15  -6   32752    2734
  -3 -15   6   27953    3744
  -2 -14   6   43856    3543
  -2 -14   6   43287    2537
  -2 -14  -6   42832    2751
  -1 -13  -6   39403    3020
  -1 -13   6   45186    2950
  -1 -13   6   42950    3931
   0  12   6   23502    2206
   0 -12   6   22434    2242
   0 -12   6   25195    3122
   0 -12  -6   20356    2283
   1 -11   6   23990    1947
  -1  11   6   23101    1788
   1 -11   6   25389    2991
   1 -11  -6   26013    1984
  -2  10   6   41098    2657
   2 -10   6   38008    2703
   2 -10  -6   39287    2640
  -3   9   6   40733    2631
   3  -9   6   47676    2940
   3  -9  -6   43640    2609
  -4   8   6   25531    1958
   4  -8  -6   24335    1833
   4  -8   6   28781    2247
   5  -7  -6   35325    2039
  -5   7   6   33634    2251
   5  -7   6   37050    2573
  -6   6   6   38185    2686
   6  -6  -6   39260    2282
   6  -6   6   35348    2866
  -6   6   6   36684    1503
  -7   5   6   12542     874
   7  -5   6   11122    1953
   7  -5  -6   15156    1406
  -7   5   6   14085    1902
   8  -4  -6   29247    2172
  -8   4   6   37398    2143
   8  -4   6   33967    3251
  -8   4   6   31002    2866
   9  -3   6   34614    3863
  -9   3   6   39450    2803
  -9   3   6   34798    3544
   9  -3  -6   41135    2751
  10  -2   6    9648    2567
 -10   2   6    6754    1405
 -10   2  -6   10793    2219
 -10   2   6   10306    2493
  10  -2   6    9186    2709
  10  -2  -6    7645    1287
 -11   1   6    9903    2212
 -11   1  -6    8806    1879
  11  -1   6   12135    2669
 -11   1   6   11099    1731
  11  -1   6   10500    2272
 -12   0   6     381     927
 -12   0  -6    2195    1644
 -12   0   6     436    1246
  12   0   6     232    1400
  12   0   6     926    1429
  13   1   6    9350    2310
 -13  -1   6   15297    2454
 -13  -1  -6   13010    2105
 -13  -1   6   15499    2068
  13   1   6    9319    1971
 -14  -2   6    9451    1802
 -14  -2  -6    8137    1551
 -14  -2   6    8163    1509
  14   2   6   10337    2159
  14   2   6    8695    1585
 -15  -3   6    9655    1871
  15   3   6   10651    2630
 -15  -3   6    9575    2085
 -15  -3  -6   12953    2277
  15   3   6    4257    1405
  16   4   6    3603    1600
 -16  -4   6    5563    1497
  16   4   6    4084    1265
 -16  -4  -6    2876    1105
 -16  -4   6    3434    1111
 -17  -5   6    1761    1284
  17   5   6    2482    1762
 -17  -5  -6    1202    1172
  17   5   6     298    1027
 -17  -5   6     256     752
  18   6   6     951    1711
 -18  -6   6     958     719
 -18  -6  -6    2830    1323
  18   6   6     983    1011
 -19  -7  -6    1603    1206
 -19  -7   6    1653     896
 -20  -8  -6     565    1112
 -20  -8   6      52     702
 -10 -22  -7       1    1522
 -10 -22   7       0    1961
  -9 -21   7      40    1443
  -9 -21  -7     275    1277
  -8 -20   7     356    1710
  -8 -20  -7     283    1059
  -7 -19  -7    2683    1305
  -7 -19   7    1399    1501
  -6 -18   7    2122    1273
  -6 -18  -7     905    1042
  -5 -17   7    1639    1209
  -5 -17  -7    1866    1107
  -4 -16   7    1149    1130
  -4 -16  -7    3590    1224
  -3 -15   7    7571    2182
  -3 -15  -7    4644    1513
  -2 -14  -7      84     873
  -2 -14   7     354     971
  -1 -13   7    1611     946
  -1 -13   7    2501    1409
   1  13   7    2409     876
  -1 -13  -7    3049    1279
  -1  11   7   12258    1791
   1 -11  -7   11605    1828
   1 -11   7   16314    2872
   1 -11   7   10915    1803
   2 -10  -7    1199     867
  -2  10   7     628     688
   2 -10   7     878     823
  -3   9   7    8674    1470
   3  -9   7   10348    1686
   3  -9  -7    9651    1456
   4  -8  -7    1044     968
   4  -8   7    3030    1410
  -4   8   7    1804    1054
   5  -7  -7    1391     865
   5  -7   7     104     806
  -5   7   7    2616    1004
   6  -6   7     679     940
  -6   6   7     408     736
   6  -6  -7     642     601
   7  -5   7     188     900
   7  -5  -7       4     554
  -7   5   7     278     735
  -7   5   7     259     394
   8  -4  -7     683     717
  -8   4   7     424     691
   8  -4   7    1085    1167
  -8   4   7     576     574
  -9   3   7    9522    2039
   9  -3   7   10122    2191
   9  -3   7   10382    2349
  -9   3   7    8879    1247
   9  -3  -7   10343    1233
 -10   2   7   14656    1704
 -10   2   7   12724    2647
  10  -2   7   17142    3258
  10  -2   7   12748    2686
  11  -1   7   11949    2907
 -11   1   7   12446    2959
 -11   1   7   10843    1873
  11  -1   7   16049    3454
 -11   1  -7   11530    2165
 -13  -1   7    4336    1576
  13   1   7    4195    1622
 -13  -1   7    3279    1132
  13   1   7    5387    1711
 -13  -1  -7    2461    1088
 -14  -2  -7    4886    1228
  14   2   7    4250    1643
 -14  -2   7    4978    1213
  14   2   7    3846    1449
 -14  -2   7    4127    1208
  15   3   7    5231    1865
 -15  -3   7    2784    1077
  15   3   7    1478    1120
 -15  -3  -7    2903    1152
 -15  -3   7    3226    1247
 -16  -4  -7     325     884
 -16  -4   7     358    1015
 -16  -4   7      11     672
  16   4   7    1700    1476
  16   4   7    1454    1017
 -17  -5   7     484     980
 -17  -5  -7    1002     898
  17   5   7     145     765
  17   5   7    2479    1645
 -17  -5   7     805     812
  18   6   7     182    1040
  18   6   7     116    1532
 -18  -6   7     165     686
 -18  -6  -7    1079    1072
  19   7   7       5     887
  19   7   7       5    1648
 -19  -7  -7       5     922
 -19  -7   7     604     809
 -20  -8  -7     174    1287
 -20  -8   7     215     675
 -10 -22  -8    1482    1851
  -9 -21  -8    3781    1417
  -9 -21   8       4    1540
  -8 -20  -8     783    1226
  -8 -20   8    1597    1632
  -7 -19   8    6109    2468
  -7 -19  -8    5624    1491
  -6 -18  -8    9095    1873
  -6 -18   8    9467    2315
  -5 -17   8    4826    1689
  -5 -17  -8   10407    1827
  -4 -16   8   16426    3172
  -4 -16  -8   13337    2268
  -3 -15  -8   11920    1958
  -3 -15   8    5729    1852
  -2 -14   8    6626    1859
  -2 -14  -8    6729    1644
  -1 -13  -8   22578    2486
   1  13   8   18513    1945
  -1 -13   8   21556    2124
  -1 -13   8   19330    3154
   0 -12  -8   34794    3002
   0 -12   8   40899    3993
   0  12   8   36012    2738
   0 -12   8   39751    3011
   1 -11   8   43548    3109
   1 -11  -8   43800    3155
  -1  11   8   45406    3069
   1 -11   8   40205    3916
   2 -10   8   26986    2377
  -2  10   8   23387    2118
   2 -10  -8   25910    2253
  -3   9   8   34472    2866
   3  -9   8   36797    3102
   3  -9  -8   33551    2676
   4  -8   8   31290    2552
  -4   8   8   33908    2409
   4  -8  -8   35104    2213
   5  -7  -8   51180    2638
   5  -7   8   45853    3151
  -5   7   8   49300    2972
   6  -6   8   50038    4100
  -6   6   8   46720    3664
  -7   5   8   51630    3829
   7  -5  -8   46502    2828
   7  -5   8   41868    3856
   8  -4  -8   27161    1784
   8  -4   8   26036    3198
  -8   4   8   30126    3105
   8  -4   8   33834    3256
  -9   3   8   11726    2726
   9  -3  -8   12978    1480
   9  -3   8   13725    3144
  -9   3   8   10027    1468
   9  -3   8   12704    2756
 -10   2   8   25741    2035
  10  -2   8   25269    3495
 -10   2   8   24401    3164
  10  -2   8   29159    3345
  11  -1   8   17006    3269
  11  -1   8   19540    3113
 -11   1   8   16282    1818
 -11   1   8   18781    3002
 -12   0   8   12809    1840
  12   0   8   15887    3058
 -12   0  -8    9864    2314
  12   0   8   11766    3129
 -12   0   8    8324    2412
 -13  -1   8    8811    1691
  13   1   8    8711    2372
  13   1   8    3930    1555
 -13  -1   8    7751    1854
 -13  -1  -8   12961    2168
 -14  -2   8    5736    1474
  14   2   8    6217    1825
 -14  -2   8    7269    1880
  14   2   8    7650    2334
 -14  -2  -8    7003    1718
 -15  -3   8    8443    2145
  15   3   8    7516    2013
 -15  -3   8    7781    1697
  15   3   8    9881    2685
 -15  -3  -8    7427    1767
 -16  -4   8    4271    1608
 -16  -4   8    2780    1059
  16   4   8    1086    1702
  16   4   8    3654    1413
 -16  -4  -8    5468    1441
 -17  -5   8     604     824
 -17  -5   8    1874    1415
  17   5   8    4262    2227
  17   5   8    1889    1331
 -17  -5  -8    1455    1131
  18   6   8     971    1057
 -18  -6  -8    1953    1084
  18   6   8     555    1732
 -18  -6   8     655     863
 -18  -6   8     160    1291
  19   7   8      12    1860
  19   7   8      12     958
 -19  -7   8    1780    1077
 -19  -7  -8     560     980
 -20  -8  -8      84    1536
 -20  -8   8    1168     840
  -9 -21   9     312    1892
  -9 -21  -9     307    1414
  -8 -20   9    1325    1445
  -7 -19   9     634    1524
  -7 -19  -9     200    1093
  -6 -18   9     414    1154
  -6 -18  -9     495    1166
  -5 -17  -9    2244    1247
  -5 -17   9      51    1113
  -4 -16   9     395    1174
  -4 -16  -9      34     967
  -3 -15   9    4755    2087
  -3 -15  -9    5919    1813
  -2 -14  -9     373     907
  -2 -14   9     582    1014
  -1 -13  -9      53     790
  -1 -13   9    2664    1272
   1  13   9      53     541
   1 -11   9   12791    2244
  -1  11   9   12850    1647
   1 -11  -9   13442    1789
   1 -11   9   12437    1673
   2 -10  -9    4139    1553
  -2  10   9    3696    1344
   2 -10   9    3686    1526
  -3   9   9    1037     779
   3  -9   9    1780     903
   3  -9  -9    2419     979
   4  -8  -9    1168    1150
  -4   8   9    1202    1177
   4  -8   9     960    1275
  -5   7   9    5268    1572
   5  -7   9    4358    1655
   5  -7  -9    4627    1337
   6  -6   9     522     841
   6  -6  -9    1041     442
  -6   6   9    3633     985
  -7   5   9    2865    1737
   7  -5  -9    2554    1148
   7  -5   9    2481    1865
   8  -4   9      65    1231
   8  -4   9       9     909
  -8   4   9    1197     619
   8  -4  -9     391     536
   9  -3   9    6563    1712
   9  -3   9    8004    2236
  -9   3   9    9525    2094
 -10   2   9     161     993
  10  -2   9     170     978
  10  -2   9     707    1404
  11  -1   9    1493    1003
 -11   1   9    1188     812
 -11   1   9    2626    1244
  11  -1   9    1642    1469
  13   1   9    2709    1701
 -13  -1   9    1879    1256
 -13  -1   9    3453    1200
 -13  -1  -9    3039    1232
  13   1   9     282    1184
  14   2   9    1303    1546
 -14  -2  -9     198     864
  14   2   9    2061    1419
 -14  -2   9      30     786
 -14  -2   9    1750    1168
 -15  -3  -9    3698    1427
 -15  -3   9    4154    1181
  15   3   9    3162    1702
  15   3   9    1985    1406
 -15  -3   9    1576    1068
  16   4   9       8    1207
  16   4   9       8    1398
 -16  -4  -9       8     721
 -16  -4   9       6    1043
 -16  -4   9    1207     711
 -17  -5  -9      28     866
 -17  -5   9      29     907
  17   5   9      28    1195
  17   5   9     621    1785
 -17  -5   9    1237     856
  18   6   9     184    1753
  18   6   9     184     915
 -18  -6   9     679    1175
 -18  -6   9     187     701
 -18  -6  -9     184    1166
  19   7   9     424    1362
 -19  -7   9      24     667
 -19  -7  -9     674    1261
  19   7   9      25    2002
  20   8   9      37    1921
  20   8   9      37    3003
 -20  -8   9     429    1085
  -8 -20 -10    1826    1458
  -8 -20  10      86    1434
  -7 -19  10     104    1548
  -7 -19 -10    3061    1414
  -6 -18 -10    2534    1368
  -6 -18  10    5197    1868
  -5 -17  10    5521    2439
  -5 -17 -10    6180    1722
  -4 -16 -10    6659    1988
  -4 -16  10    3667    1945
  -3 -15  10   12477    2789
  -3 -15 -10   11116    2048
  -2 -14 -10   22494    2636
  -2 -14  10   22183    3559
  -1 -13 -10   17936    2419
  -1 -13  10   13409    2698
   1  13  10   15323    1867
   0  12  10   27247    2215
   0 -12 -10   29596    2462
   0 -12  10   36894    3481
  -1  11  10   21281    2137
   1 -11  10   28002    3871
   1 -11 -10   20703    2256
   1 -11  10   24857    2412
   2 -10 -10    6677    1615
   2 -10  10    3968    1398
  -2  10  10    4480    1309
  -3   9  10   18831    2377
   3  -9 -10   19822    1970
   3  -9  10   26124    2902
  -4   8  10    2203    1173
   4  -8 -10    3567    1350
   4  -8  10    2746    1490
   5  -7 -10   38838    2535
   5  -7  10   36995    3168
  -5   7  10   38155    2926
   6  -6 -10   19579    1826
   6  -6  10   20396    3084
  -6   6  10   14917    2463
   7  -5 -10   29830    2230
  -7   5  10   27002    3378
   7  -5  10   30002    3765
   8  -4 -10   55555    3077
  -8   4  10   57361    4334
   8  -4  10   52726    4555
   8  -4  10   50506    4112
   9  -3  10   27957    3987
  -9   3  10   21139    3301
   9  -3  10   27297    3512
  10  -2  10   11430    2887
 -10   2  10   10016    2467
  10  -2  10    9202    2412
  11  -1  10   12066    2584
  11  -1  10   10380    2665
 -11   1  10   16867    2914
  12   0  10   15923    3101
  12   0  10   15636    2727
 -12   0  10   15781    2781
 -13  -1  10    7487    2156
  13   1  10   12561    3030
  13   1  10   11691    2595
 -14  -2 -10    6171    1562
 -14  -2  10    5173    1677
  14   2  10    5765    2085
  14   2  10    9726    2763
  15   3  10    2629    1749
 -15  -3 -10    3436    1293
 -15  -3  10    2258    1498
  15   3  10     897    1320
 -15  -3  10    2960    1208
  16   4  10    1923    1476
 -16  -4  10    2625    1155
  16   4  10    2423    2008
 -16  -4 -10    2033    1222
 -16  -4  10    4402    1645
 -17  -5 -10    3717    1445
  17   5  10       0    1704
  17   5  10    3359    1647
 -17  -5  10    3281    1340
 -17  -5  10    2857    1098
 -18  -6  10    5465    1846
 -18  -6  10    1844     923
  18   6  10    1300    1375
 -18  -6 -10     558    1215
  18   6  10    1883    2232
  19   7  10    1081    1682
 -19  -7  10     843    1501
 -19  -7 -10      65    1481
 -19  -7  10    1416    1242
  19   7  10    1180    2782
  -8 -20 -11      25    1317
  -7 -19 -11      87    1123
  -7 -19  11      94    1431
  -6 -18 -11     155    1160
  -6 -18  11    1096    1586
  -5 -17 -11    2916    1271
  -5 -17  11    1689    1502
  -4 -16  11      48    1143
  -4 -16 -11    4650    1317
  -3 -15  11     145     915
  -3 -15 -11     313    1237
  -2 -14  11     524    1009
  -2 -14 -11     285    1083
  -1 -13 -11     109     735
  -1 -13  11     316     815
  -1  11  11    1336    1124
   1 -11  11    1566    1445
   1 -11 -11    1423    1325
   1 -11  11    1955    1352
   2 -10 -11    1560    1005
  -2  10  11    2334     950
   2 -10  11      98     932
  -3   9  11   15765    2282
   3  -9 -11   11203    1831
   3  -9  11   13026    2273
   4  -8 -11    6682    1344
   4  -8  11    4266    1505
  -4   8  11    4847    1243
   5  -7  11    9395    1949
   5  -7 -11    5069    1134
  -5   7  11    7149    1512
  -6   6  11     847     933
   6  -6 -11    1506     940
   6  -6  11     429    1020
   7  -5  11   12663    3027
   7  -5 -11   12796    1871
  -7   5  11   13117    2856
  -8   4  11      86     675
   8  -4  11     237    1085
   8  -4  11    1798     918
  -9   3  11     884    1009
   9  -3  11    1119    1270
   9  -3  11     142     673
  10  -2  11     897    1230
 -10   2  11    1316    1504
  10  -2  11     286    1341
 -11   1  11    2164    1261
  11  -1  11     293     936
  11  -1  11     677    1128
  13   1  11      50    1342
  13   1  11     396    1082
 -13  -1  11    1184    1272
 -14  -2  11    1669    1094
  14   2  11      15     978
  14   2  11      15    1232
 -15  -3 -11     126     752
  15   3  11     138    1249
  15   3  11     538    1529
 -15  -3  11     867    1134
  16   4  11    2567    1756
 -16  -4 -11    2670    1120
  16   4  11      17    1756
 -16  -4  11    1337    1315
  17   5  11     135    2087
  17   5  11     135    1394
 -17  -5 -11     158    1221
 -17  -5  11    1494    1443
  18   6  11     106    2344
 -18  -6 -11    1223    1752
  18   6  11     106    1598
 -18  -6  11     215    1418
 -19  -7  11     755    2122
  -7 -19  12    7006    2749
  -7 -19 -12    4560    1788
  -6 -18 -12     728    1397
  -6 -18  12    1636    1608
  -5 -17 -12    8205    2330
  -5 -17  12    3492    2201
  -4 -16 -12    5458    1991
  -4 -16  12     940    1234
  -3 -15 -12   14282    2470
  -3 -15  12   11626    2755
  -2 -14 -12    8992    2174
  -2 -14  12   12198    2917
  -1 -13 -12   17243    2563
  -1 -13  12   19376    3455
   0 -12  12    2893    1101
   0 -12 -12    5705    1264
  -1  11  12    6672    1366
   1 -11 -12    4667    1344
   1 -11  12    6779    2025
  -2  10  12   31447    2865
   2 -10  12   36647    4385
   2 -10  12   39791    3343
   2 -10 -12   31756    2805
  -3   9  12   29068    2989
   3  -9 -12   27352    2349
   3  -9  12   35422    3559
   4  -8  12   47038    4116
   4  -8 -12   47997    3340
  -4   8  12   45325    3745
   5  -7 -12   10301    1885
  -5   7  12    9982    2433
   5  -7  12   10394    2805
   6  -6  12   11944    2578
  -6   6  12   15788    2559
   6  -6 -12   11659    1652
   7  -5  12   17059    2926
  -7   5  12   14358    2731
   7  -5  12   13005    2881
  -8   4  12     888     837
   8  -4  12    1626    1492
   8  -4  12    2278    1174
   9  -3  12   13671    2766
   9  -3  12   15626    2703
  -9   3  12   19661    3049
 -10   2  12    9091    2239
  10  -2  12   10275    2598
  10  -2  12    9885    2416
  11  -1  12    8604    2116
  11  -1  12    7017    2193
 -11   1  12    9873    2365
 -12   0  12     624    1222
  12   0  12    3358    1392
  12   0  12    7625    2428
  13   1  12    3232    1919
 -13  -1  12    5474    2020
  13   1  12    5221    2488
  14   2  12    2833    2162
  14   2  12    1473    1507
 -14  -2  12    2750    1717
  15   3  12    3741    2135
  15   3  12    2541    2330
 -15  -3  12    3939    1901
  16   4  12      66    1471
 -16  -4  12    4927    1727
  16   4  12    3508    2173
 -17  -5  12    1651    1568
  17   5  12       5    2244
  17   5  12     816    1964
 -17  -5 -12    2497    1397
 -18  -6  12     691    2335
 -18  -6 -12    2631    2141
  -6 -18  13    2147    1744
  -6 -18 -13     445    1337
  -5 -17 -13     102    1267
  -5 -17  13     678    1293
  -4 -16 -13     427    1261
  -4 -16  13    1919    1444
  -3 -15 -13    2527    1424
  -3 -15  13    3401    1831
  -2 -14 -13     249     849
  -2 -14  13    1306    1009
  -1 -13 -13     840     969
  -1 -13  13     874     970
  -1  11  13    2555    1087
   1 -11  13     172     868
   1 -11 -13    3433    1258
  -2  10  13    2910     978
   2 -10 -13    1347     885
   2 -10  13    1533    1183
  -3   9  13    1775    1077
   3  -9  13     358    1021
   3  -9 -13    1099     978
   4  -8  13    1985    1266
   4  -8 -13    1172    1016
  -4   8  13     478     909
   5  -7  13    1780    1359
  -5   7  13    1018    1072
   5  -7 -13     577     712
  -6   6  13    1075     894
   6  -6  13     536    1240
  -7   5  13    3251    1270
   7  -5  13    3354    1540
   7  -5  13    3499    1303
   8  -4  13    2627    1448
  -8   4  13    2947    1228
   8  -4  13    4513    1759
   9  -3  13    2222    1087
  -9   3  13    2918    1219
   9  -3  13     287    1175
  10  -2  13      62    1116
  10  -2  13      62     942
 -10   2  13     149     774
  11  -1  13     627    1343
 -11   1  13      55     800
  11  -1  13    1550    1252
 -13  -1  13      61     939
  13   1  13      65    1278
  13   1  13     563    1399
  14   2  13     131    1317
 -14  -2  13     409    1155
  14   2  13     314    1847
  15   3  13     232    1875
 -15  -3  13     348    1206
  15   3  13     486    1751
  16   4  13    2009    1902
 -16  -4  13     219    1606
  16   4  13     202    2100
 -17  -5  13     297    2287
  -5 -17  14    6389    1897
  -5 -17 -14     101    1580
  -4 -16  14    8232    2423
  -4 -16 -14     337    1091
  -3 -15  14    9584    2989
  -3 -15 -14    3430    1814
  -2 -14 -14    7013    1596
  -2 -14  14    2961    1491
  -1 -13  14    6059    2070
  -1 -13 -14    5572    1480
   0 -12 -14   19140    2599
   0 -12  14   13507    2907
   1 -11 -14   23294    2750
   1 -11  14   18454    3542
  -2  10  14   12572    2140
   2 -10  14   16446    3225
   2 -10 -14   19652    2495
   3  -9 -14   19332    2284
  -3   9  14   14241    2160
   4  -8  14   22272    3572
  -4   8  14   22927    3256
   4  -8 -14   22200    2464
  -5   7  14   16644    2986
   5  -7  14   20287    3486
   6  -6  14   11496    2485
  -6   6  14    9914    2182
   7  -5  14    5969    2065
  -7   5  14    6563    1935
   7  -5  14    8908    2174
   8  -4  14    7097    2046
  -8   4  14    7667    1995
   8  -4  14    5620    1981
  -9   3  14    7766    1931
   9  -3  14    7147    1760
   9  -3  14    6597    1906
  10  -2  14    6464    1742
 -10   2  14    6714    1711
  10  -2  14    8451    2237
  11  -1  14   12230    2478
  11  -1  14    7343    2041
 -11   1  14    7463    1841
 -12   0  14    4244    2056
  12   0  14    2738    1964
  12   0  14    6281    2183
  13   1  14    1833    1652
 -13  -1  14    2276    1657
  13   1  14    2307    1527
  14   2  14     505    1551
 -14  -2  14    1615    1552
  14   2  14     690    1836
 -15  -3  14       8    1642
  15   3  14     827    2062
  15   3  14       9    1961
  -4 -16  15     109    1314
  -4 -16 -15     103    1512
  -3 -15 -15      51    1137
  -3 -15  15      47    1263
  -2 -14 -15     172    1170
  -2 -14  15     342    1167
  -1 -13  15     374    1162
  -1 -13 -15    1490    1214
   1 -11 -15     753     913
   1 -11  15    1130    1092
   2 -10 -15    1416     939
   2 -10  15     899    1061
   3  -9 -15    3616    1453
  -3   9  15    4563    1573
  -4   8  15     344     782
   4  -8  15      25    1291
   4  -8 -15     786     899
   5  -7  15     518    1226
  -5   7  15     816     910
  -6   6  15    1214    1184
   6  -6  15    1113    1362
   7  -5  15    1517    1452
  -7   5  15    3307    1387
   8  -4  15    1036    1140
  -8   4  15     474     952
   8  -4  15      72    1280
   9  -3  15     446    1171
   9  -3  15      54    1074
  -9   3  15     524    1124
  10  -2  15     417    1093
 -10   2  15     342    1089
  10  -2  15    1292    1428
  11  -1  15     206    1425
  11  -1  15      49    1069
 -11   1  15     972    1155
  13   1  15    1067    1459
  13   1  15     148    1179
 -13  -1  15     144    1617
  14   2  15       5    1567
  14   2  15     503    1596
 -14  -2  15       7    1781
  -3 -15  16    2541    1900
  -2 -14  16    7435    2221
  -2 -14 -16      43    1212
  -1 -13  16    3388    1891
  -1 -13 -16    5792    1854
   0 -12  16    9709    2431
   0 -12 -16   12064    2328
   1 -11 -16   13377    2359
   1 -11  16    6131    1972
   2 -10  16    9989    2730
   2 -10 -16   13934    2466
   3  -9  16   13062    2970
  -3   9  16   14559    2586
   3  -9 -16   20185    2571
  -4   8  16    8666    2034
  -5   7  16    5409    1490
   5  -7  16    4259    1798
   6  -6  16    8254    2108
  -6   6  16    7981    1952
   7  -5  16    5236    2124
  -7   5  16   10629    2439
   8  -4  16    6176    1718
  -8   4  16    6008    1516
   8  -4  16    5296    1488
   9  -3  16    3245    1965
   9  -3  16    2817    1577
  -9   3  16    4222    1857
  10  -2  16    3342    1862
 -10   2  16    5833    1970
  10  -2  16     905    1026
  11  -1  16    1499    1718
  11  -1  16    2966    1681
 -11   1  16    1652    1371
  12   0  16    4208    1781
 -12   0  16    4476    1852
  12   0  16    3947    2084
 -13  -1  16    2175    1952
  13   1  16    3553    1829
  13   1  16    1270    1834
  -1 -13 -17    1431    1767
  -1 -13  17     846    1349
   1 -11 -17      61     965
   1 -11  17    1392    1173
   2 -10 -17    1239    1165
   2 -10  17      60     921
   3  -9  17     655    1324
  -4   8  17    1130    1099
  -5   7  17    2513    1123
   6  -6  17     217    1339
  -6   6  17     580    1200
   7  -5  17     626    1478
  -7   5  17    1115    1546
   8  -4  17     144    1319
   8  -4  17     473    1151
  -8   4  17     478    1237
   9  -3  17     242    1111
   9  -3  17    1382    1454
  -9   3  17    1507    1154
 -10   2  17    1778    1284
  10  -2  17      30    1161
  10  -2  17      30    1472
  11  -1  17       4    1153
  11  -1  17     422    1509
 -11   1  17    2196    1689
   0 -12 -18    3387    1953
   1 -11 -18   11651    2694
   1 -11  18    4159    2157
   2 -10  18    7251    2353
   3  -9  18    4278    2195
   4  -8  18   10023    2865
  -5   7  18    4333    1555
  -6   6  18    3888    1828
  -7   5  18    5392    2114
   7  -5  18    4079    2250
   8  -4  18    2042    1901
  -8   4  18    4502    1705
   9  -3  18    2669    1913
   9  -3  18    3962    2082
  -9   3  18    5530    2185
   4  -8  19     119    1768
  -6   6  19     327    1887
  -9 -23   0    3605    1469
  -8 -22   0    3475    1629
  -7 -21   0    5037    1681
  -6 -20   0    3447    1356
  -5 -19   0    1991    1189
  -5 -19   0    1372    1317
  -4 -18   0    2181    1313
  -4 -18   0     957    1121
  -3 -17   0    5194    1670
  -2 -16   0      51     783
  -2 -16   0      51     488
  -1 -15   0    5791    1606
  -1 -15   0    7023    1762
   0 -14   0   15996    2300
   0 -14   0   14593    2251
   1 -13   0   67321    4320
   1 -13   0   69416    4265
   2 -12   0   75836    4574
   2 -12   0   70883    4576
   3 -11   0  156565    8698
   3 -11   0  152951    8919
   4 -10   0   86651    3980
   5  -9   0  116691    4528
   6  -8   0  103663    4862
  -7   7   0  100384    5081
   7  -7   0  102590    5495
  -8   6   0   30772    2112
   8  -6   0   35801    2556
  -8   6   0   33631    2075
  -9   5   0   65705    2716
   9  -5   0   64765    3059
  -9   5   0   68803    2807
 -10   4   0   84710    5237
  10  -4   0   74839    5451
  11  -3   0   29504    2009
 -11   3   0   32574    1788
 -11   3   0   31197    1826
 -12   2   0    8445    1213
 -12   2   0    8468    1060
 -13   1   0    2922    1242
  13  -1   0    3409    1556
 -13   1   0    4860    1659
 -14   0   0    6902    1470
  14   0   0    6448    1487
 -14   0   0    6665    1215
  15   1   0    4663    1273
 -15  -1   0    3633    1014
 -16  -2   0     418     704
 -17  -3   0    2067     838
 -18  -4   0    1870     858
 -19  -5   0    1881     913
 -20  -6   0    1295     831
 -21  -7   0     915     781
 -22  -8   0     509     924
 -10 -24   1    1462    1508
  -9 -23   1      84    1027
  -8 -22   1      35     878
  -7 -21   1    1061    1176
  -7 -21  -1    1560    1256
  -6 -20  -1    1422    1042
  -6 -20   1      13     963
  -6 -20  -1      11     722
  -5 -19   1    2296    1561
  -5 -19   1    6443    1721
  -5 -19  -1    4165    1592
  -4 -18  -1       6     831
  -4 -18  -1     243     718
  -4 -18   1    1491    1033
  -4 -18   1    1010     857
  -3 -17   1    7575    1432
  -3 -17  -1    5570    1232
  -3 -17  -1    6846    1361
  -3 -17   1    5267    1351
  -2 -16  -1     429    1109
  -2 -16  -1     113     716
  -2 -16   1     198     844
  -2 -16   1      41     926
  -1 -15   1    2271     839
  -1 -15  -1    2418    1000
  -1 -15  -1    3761    1001
  -1 -15   1    3536    1176
   1 -13  -1   20587    2255
   1 -13  -1   19646    2401
   1 -13   1   21273    2434
   2 -12   1    3615     927
   2 -12   1    3348     699
   2 -12  -1    3955     750
   2 -12  -1    4483     978
   3 -11  -1    2870    1053
   3 -11  -1    3929     926
   3 -11   1    2391    1076
   3 -11   1    3953    1181
   4 -10   1   24321    2172
   4 -10  -1   23769    2060
  -5   9   1   11147    1608
   5  -9  -1   12099    1794
   5  -9   1   11892    1785
   6  -8  -1   11551    1400
  -6   8   1   13186    1391
   6  -8   1    6887    1229
  -7   7   1   21155    1908
   7  -7   1   20995    2121
   7  -7  -1   21554    2057
  -8   6   1   20125    1141
  -8   6  -1   23420    1330
  -8   6   1   24570    1732
   8  -6   1   22690    1866
   8  -6  -1   22791    1741
  -8   6  -1   22639    1563
  -9   5  -1   10909    1230
  -9   5  -1   10675    1138
  -9   5   1   13245    1198
  -9   5   1   12360    1387
   9  -5   1   12396    1589
   9  -5  -1   11309    1469
 -10   4   1    5671    1390
  10  -4   1    3928    1564
 -10   4  -1    5269    1210
  10  -4  -1    3911    1339
 -10   4   1    6019    1266
 -10   4  -1    4333    1241
 -11   3  -1    5678     934
 -11   3  -1    5825    1103
 -11   3   1    7804    1207
  11  -3   1    7540    1531
 -11   3   1    3078     660
 -12   2   1     614     453
 -12   2   1     614     430
 -12   2  -1     628     448
 -12   2  -1     206     502
  12  -2   1     628     675
  12  -2  -1     614     613
 -13   1   1    3537     859
 -13   1  -1    5856    1070
 -13   1   1    5713     932
  13  -1   1    4897    1145
  13  -1  -1    4499    1054
 -15  -1  -1    6486    1697
 -15  -1   1    4769    1486
  15   1   1    5441    1741
 -15  -1   1    6467    1522
 -16  -2  -1      33     710
  16   2   1     406    1174
 -16  -2   1      28     637
 -17  -3  -1     812     670
 -18  -4  -1     903     681
 -18  -4   1      33     643
 -19  -5   1      58     463
 -19  -5  -1      48     629
 -20  -6   1       9     570
 -20  -6  -1      11     731
 -21  -7   1     105     722
 -21  -7  -1     145     828
 -22  -8   1      27     625
 -10 -24   2     500    1485
  -9 -23   2    2029    1557
  -8 -22   2    3231    1755
  -7 -21   2    4334    1608
  -7 -21  -2    5840    1592
  -6 -20   2    7285    2181
  -6 -20  -2    8936    2098
  -5 -19   2   10520    2150
  -5 -19  -2   18767    2281
  -5 -19  -2   12342    2090
  -4 -18  -2   16700    2270
  -4 -18  -2   18454    2399
  -4 -18   2   15943    2706
  -4 -18   2   16723    2128
  -3 -17   2    4864    1726
  -3 -17  -2   11770    1998
  -3 -17   2   11880    1933
  -3 -17  -2   10877    1982
  -2 -16   2   26335    2833
  -2 -16  -2   23745    2397
  -2 -16  -2   25393    2337
  -2 -16   2   27914    2493
  -1 -15  -2   29296    2450
  -1 -15   2   30093    2437
  -1 -15   2   28407    2700
  -1 -15  -2   31844    2337
   0 -14   2   40039    3646
   0 -14  -2   39769    3676
   0 -14   2   34758    3999
   0 -14  -2   38542    3413
   1 -13   2   27774    2738
   1 -13  -2   30547    2581
   1 -13   2   32678    2600
   1 -13  -2   36475    2365
   2 -12  -2   32294    2915
   2 -12  -2   36933    2611
   2 -12   2   31032    3173
   2 -12   2   34497    3024
   3 -11   2   48446    3802
   3 -11  -2   52043    3355
   3 -11  -2   55980    3885
   4 -10  -2  110007    4436
  -4  10   2  109033    4752
   4 -10  -2  105270    4812
   4 -10   2  102063    4913
  -5   9   2  103514    4717
   5  -9   2  106477    5076
   5  -9  -2  100595    4754
  -6   8   2   84048    3904
   6  -8  -2   87469    4032
   6  -8   2   88585    4253
   7  -7   2   49673    3580
  -7   7   2   49239    3241
   7  -7  -2   45983    3219
  -8   6   2   51934    2531
   8  -6  -2   53842    3080
   8  -6   2   54105    3392
  -8   6   2   44571    2873
  -9   5  -2   45678    3082
  -9   5   2   51047    2867
   9  -5  -2   44953    3089
  -9   5   2   46250    3137
   9  -5   2   50888    3665
 -10   4   2   23288    1804
 -10   4  -2   24427    2066
 -10   4   2   25742    2137
  10  -4   2   21991    2375
 -11   3   2   21402    1793
 -11   3  -2   23723    1649
 -11   3  -2   23910    2020
  11  -3  -2   23449    1982
  11  -3   2   24468    2399
 -11   3   2   17637    1821
  12  -2  -2   25203    1626
 -12   2  -2   23666    1628
 -12   2   2   19348    1738
 -12   2   2   21876    1514
  12  -2   2   23120    2315
 -12   2  -2   22358    1265
 -13   1   2    9110    1823
 -13   1  -2   11556    1290
  13  -1   2    7431    2084
 -13   1  -2   11802    2064
  13  -1  -2   10665    1713
  14   0   2   13667    2413
 -14   0   2   12796    1906
 -14   0  -2   12615    1979
 -14   0   2   11560    1794
  14   0  -2   12399    1661
 -15  -1  -2    4705     945
  15   1   2    3387     981
 -15  -1   2    7904    1203
 -15  -1   2    6557    1030
 -16  -2   2    4777    1436
 -16  -2  -2    6315    1699
  16   2   2    6692    2056
 -17  -3   2    4215    1167
 -17  -3  -2    3088    1041
 -18  -4   2    3924     905
 -18  -4  -2    3247     929
 -19  -5   2    1003     694
 -19  -5  -2    3137    1062
 -20  -6   2     587     680
 -20  -6  -2    1222     868
 -21  -7   2      71     721
 -21  -7  -2    1386    1040
 -22  -8   2     549     712
 -10 -24   3     105    1783
  -9 -23   3     108    1274
  -8 -22   3     231     984
  -7 -21  -3    1277    1214
  -7 -21   3     358    1142
  -6 -20  -3    1717    1182
  -6 -20   3    2705    1431
  -5 -19  -3    3828    1061
  -5 -19   3    2228    1101
  -4 -18  -3    7157    1393
  -4 -18   3    7157    1740
  -3 -17  -3    2825    1321
  -3 -17   3    2244    1203
  -3 -17   3    2125    1358
  -2 -16   3    3908    1485
  -2 -16  -3    4077    1168
  -2 -16  -3    3524    1362
  -2 -16   3    4014    1303
  -1 -15  -3    2810    1298
  -1 -15   3    1615    1179
  -1 -15   3    1726    1159
  -1 -15  -3    3186    1132
   1 -13  -3    3988     896
   1 -13   3    4981    1077
   1 -13  -3    4104     668
   1 -13   3    4641     973
   2 -12   3     595    1208
   2 -12  -3     825    1109
   2 -12   3     551    1031
   3 -11  -3    3068     835
   3 -11   3    2330     751
  -3  11   3    2534     634
   3 -11  -3    2795     424
   4 -10  -3   12479    1378
   4 -10   3   13397    2175
   4 -10  -3   14442    2085
  -4  10   3   13924    2054
   5  -9  -3   13140    1659
   5  -9   3   12110    1940
  -5   9   3   14421    1874
   6  -8  -3    5777    1356
   6  -8   3    5396    1465
  -6   8   3    7154    1469
   7  -7   3   22347    2508
   7  -7  -3   25165    2240
  -7   7   3   25245    1654
  -7   7   3   24037    2270
   8  -6  -3    1781     788
  -8   6   3    1334     660
   8  -6   3    2489    1038
  -8   6   3    1255     410
   9  -5  -3    5862    1291
  -9   5   3   12774    1918
   9  -5   3   12196    2118
  -9   5   3   10363    1133
  -9   5  -3   11957    1748
 -10   4  -3   12158    1871
 -10   4   3   11813    1943
  10  -4   3   10540    2192
 -10   4   3    9850    1255
  10  -4  -3    8579    1502
 -11   3   3    5020    1027
 -11   3  -3    4177    1122
  11  -3   3    4708    1429
  11  -3  -3    4058     990
 -11   3   3    3845    1066
 -12   2  -3    2130    1161
  12  -2   3    1863    1464
 -12   2   3    3904    1273
 -12   2   3    2819    1246
  12  -2  -3    2752    1130
  13  -1   3     295    1092
 -13   1   3     286     549
  13  -1  -3     280     654
 -13   1   3     194     713
 -13   1  -3      44     567
 -15  -1   3     332     597
 -15  -1  -3    2309     690
  15   1   3    2964    1189
 -15  -1   3    1392     666
 -16  -2   3     437     798
 -16  -2  -3     832     769
 -16  -2   3     663     954
  16   2   3      46    1172
 -17  -3   3     904     770
 -17  -3  -3     124     636
  17   3   3     909     977
 -18  -4   3      45     579
 -18  -4  -3    1013     795
 -19  -5  -3     168     778
 -19  -5   3     468     792
 -20  -6  -3     340     919
 -20  -6   3      80     560
 -21  -7  -3     191     789
 -21  -7   3     242     625
 -10 -24   4    1498    2433
  -8 -22   4    5985    2032
  -8 -22  -4    4091    1560
  -7 -21   4   10126    2497
  -7 -21  -4    9439    2027
  -6 -20   4   10801    2678
  -6 -20  -4   13965    2373
  -5 -19   4   13304    2808
  -5 -19  -4   15412    2313
  -4 -18  -4   14512    2089
  -4 -18   4   14350    2590
  -3 -17   4   29564    2750
  -3 -17   4   24495    3306
  -3 -17  -4   32238    2962
  -2 -16   4   23767    2385
  -2 -16  -4   19371    2334
  -2 -16   4   22037    2958
  -1 -15  -4   26574    2321
  -1 -15   4   30136    2327
  -1 -15   4   30597    3427
   0 -14   4   19938    3167
   0 -14   4   23410    2384
   0 -14  -4   19509    2294
   1 -13   4   24765    2921
   1 -13  -4   30811    2643
   1 -13   4   30802    2608
   2 -12  -4   58806    3114
  -2  12   4   51110    2912
   2 -12   4   50780    3662
   2 -12   4   48922    2965
  -3  11   4   43173    3260
   3 -11   4   43398    3406
   3 -11  -4   42974    3287
  -4  10   4   23558    2009
   4 -10   4   19549    2038
   4 -10  -4   18265    1852
   5  -9  -4    1340    1035
   5  -9   4    2263     979
  -5   9   4    1876     831
  -6   8   4    2197     681
   6  -8   4    1972     817
   6  -8  -4     781     784
  -7   7   4   22361    1048
  -7   7   4   24329    1750
   7  -7   4   20857    2126
   7  -7  -4   27361    1770
   8  -6   4   13257    2309
   8  -6  -4   14154    1691
  -8   6   4   16471    2241
  -8   6   4   14988    1229
  -9   5   4   24992    1349
   9  -5   4   26392    2555
  -9   5   4   27403    1951
 -10   4   4   27999    1994
  10  -4   4   24267    2761
 -10   4  -4   30003    2506
  10  -4  -4   24201    2064
 -10   4   4   24068    2405
  11  -3   4   18968    2480
  11  -3  -4   20427    1535
 -11   3   4   20280    1475
 -11   3   4   22346    2219
 -11   3  -4   17679    1920
  12  -2   4   10017    2084
 -12   2   4   14017    1613
 -12   2   4    8847    1554
 -12   2  -4   12317    1789
 -13   1   4   18286    2550
 -13   1  -4   21978    2251
  13  -1   4   16984    2821
 -13   1   4   21311    2047
 -14   0   4    6168    1495
 -14   0   4   10748    1734
 -14   0  -4   18031    2242
  14   0   4   16131    2612
 -15  -1  -4   10089    1751
  15   1   4    8065    1968
 -15  -1   4    8738    1641
 -15  -1   4    9360    1571
 -16  -2   4    5212    1374
  16   2   4    5970    2096
 -16  -2   4    1131     932
 -16  -2  -4    3823    1341
  17   3   4    2472    1662
 -17  -3   4    1889     924
 -17  -3  -4    1760    1071
 -18  -4   4    1207     791
 -18  -4  -4    2188     976
  18   4   4    5222    1783
 -19  -5  -4     984     853
 -19  -5   4     373     647
 -20  -6   4     983     779
 -20  -6  -4     561     927
 -21  -7   4    1553     848
 -21  -7  -4     412    1176
  -9 -23   5     726    1804
  -8 -22   5      93    1148
  -8 -22  -5    3132    1457
  -7 -21  -5    2400    1248
  -7 -21   5    1161    1333
  -6 -20  -5    3078    1113
  -6 -20   5    2611    1226
  -5 -19   5    1191    1096
  -5 -19  -5    1754    1058
  -4 -18  -5    1084    1032
  -4 -18   5     167     909
  -3 -17  -5    4276    1540
  -3 -17   5    3423    1671
  -2 -16   5    1581     930
  -2 -16   5     211     841
  -2 -16  -5    2553    1155
  -1 -15  -5    2873     971
  -1 -15   5    3437    1082
  -1 -15   5    2772     956
   1 -13   5     597     886
   1 -13  -5    1132     820
   1 -13   5      67     693
  -2  12   5    1131     702
   2 -12   5    1603     861
   2 -12  -5      58     734
   2 -12   5     380     821
   3 -11  -5   11799    1813
  -3  11   5   12496    2039
   3 -11   5   12848    2203
   4 -10  -5    4103    1453
  -4  10   5    4083    1496
   4 -10   5    4195    1635
   5  -9  -5    5180    1447
   5  -9   5    4504    1603
  -5   9   5    5900    1620
   6  -8   5    6776    1831
  -6   8   5    8044    1722
   6  -8  -5    7692    1516
  -7   7   5    2390     410
   7  -7   5    2894    1107
  -7   7   5    2571     961
   7  -7  -5    3148     987
  -8   6   5    4343    1299
  -8   6   5    4771     650
   8  -6   5    5239    1642
  -9   5   5   13528    2036
  -9   5   5   11133    1011
   9  -5  -5   11823    1462
   9  -5   5    9258    2031
  10  -4  -5    4242     988
 -10   4   5    3401    1032
  10  -4   5    5189    1482
 -10   4   5    5181     871
  11  -3   5    4410    1490
 -11   3   5    2827     993
 -11   3  -5    4800    1092
 -11   3   5    3423     798
  11  -3  -5    4671     938
 -12   2  -5    1401     785
  12  -2  -5    2697     770
 -12   2   5    1289     888
 -12   2   5    1694     701
  12  -2   5    3798    1412
 -13   1   5    1355     981
  13  -1   5    1758    1445
 -13   1   5     871     741
 -13   1  -5    1716     979
 -15  -1  -5    3395    1232
 -15  -1   5    3853    1216
 -15  -1   5    2420    1105
  15   1   5    1694    1285
  16   2   5    2861    1421
 -16  -2   5    1096     949
 -16  -2   5      37     651
 -16  -2  -5     464     650
  17   3   5     353    1230
 -17  -3   5     204     801
 -17  -3   5    1563     939
 -17  -3  -5     231     648
  18   4   5     245    1354
 -18  -4  -5     673     972
 -18  -4   5     992     795
 -19  -5   5      74     574
 -19  -5  -5      49     924
 -20  -6   5      12     670
 -20  -6  -5     507    1247
 -21  -7  -5     342    1421
 -21  -7   5     203     730
  -9 -23   6    1297    2058
  -9 -23  -6    4361    1791
  -8 -22  -6    4880    1723
  -8 -22   6    1990    1716
  -7 -21   6    3176    1599
  -7 -21  -6    1555    1224
  -6 -20  -6    7909    1855
  -6 -20   6    5628    1922
  -5 -19   6   16030    3405
  -4 -18   6   30964    4154
  -4 -18  -6   28788    2769
  -3 -17   6   25889    4028
  -3 -17  -6   18308    2725
  -2 -16   6   26885    3989
  -2 -16  -6   29854    2870
  -1 -15   6   15165    3181
  -1 -15   6   18103    2173
  -1 -15  -6   20019    2275
   0 -14   6   26434    2136
   0 -14  -6   25895    2159
   0 -14   6   32154    3567
   1 -13   6   43555    3090
   1 -13   6   37760    3724
  -1  13   6   41790    2908
   1 -13  -6   36617    2942
  -2  12   6   42901    2717
   2 -12  -6   41289    2735
   2 -12   6   36551    3317
   2 -12   6   44640    2885
  -3  11   6   18213    2103
   3 -11   6   16264    2059
   3 -11  -6   14270    1904
   4 -10   6   17771    2561
  -4  10   6   17027    2094
   4 -10  -6   17173    2074
   5  -9  -6   14308    1961
   5  -9   6   16286    2368
  -5   9   6   15500    2061
   6  -8  -6   35456    2345
   6  -8   6   34679    2796
  -6   8   6   29042    2367
   7  -7  -6   24835    2056
   7  -7   6   29378    2758
  -7   7   6   25396    2375
  -8   6   6   19809    2293
   8  -6   6   23375    2712
  -9   5   6   29932    1641
  -9   5   6   27514    2375
   9  -5  -6   28774    1938
   9  -5   6   31680    3284
 -10   4   6   18897    2611
  10  -4   6   19693    2983
 -10   4   6   19079    1555
  10  -4  -6   19565    1687
 -11   3   6   13930    2301
  11  -3   6   14925    2642
  11  -3  -6   15812    1384
 -11   3  -6   16518    2129
 -11   3   6   14862    1414
 -12   2   6   31173    2131
 -12   2   6   23721    2859
  12  -2   6   30692    3496
 -12   2  -6   23494    2155
 -13   1  -6   16919    2359
 -13   1   6   14865    1903
 -13   1   6   11919    2230
  13  -1   6   10468    2324
  14   0   6   14073    2480
  14   0   6   15784    2885
 -14   0   6   17680    2128
 -14   0  -6   15138    2255
 -14   0   6   18291    2743
 -15  -1  -6    6235    1695
  15   1   6    5547    1688
 -15  -1   6    5886    1578
  15   1   6    6487    2315
 -15  -1   6    7051    1922
 -16  -2   6   14101    2371
 -16  -2  -6   14722    2331
  16   2   6    9153    1790
  16   2   6   17625    3038
 -16  -2   6   14365    2043
 -17  -3   6    1509     963
  17   3   6    3963    1760
  17   3   6    2503    1305
 -17  -3  -6    3519    1457
 -17  -3   6    3901    1393
  18   4   6    1672    1123
 -18  -4  -6    2143    1216
 -18  -4   6    1392     866
  18   4   6     190    1475
  19   5   6    3645    1936
  19   5   6     534    1122
 -19  -5  -6    2605    1331
 -19  -5   6     937     698
 -20  -6   6    1433     729
 -20  -6  -6     128     986
 -21  -7  -6       7    1412
 -21  -7   6    1247     937
  -9 -23  -7     639    1662
  -8 -22   7      12    1466
  -8 -22  -7    1171    1392
  -7 -21   7     825    1629
  -7 -21  -7    1087    1285
  -6 -20  -7    2890    1230
  -6 -20   7      96    1043
  -5 -19  -7     250    1022
  -5 -19   7     252    1141
  -4 -18   7    1942    1666
  -4 -18  -7    2192    1423
  -3 -17   7    7844    2060
  -3 -17  -7   10841    2076
  -2 -16  -7    3609    1051
  -2 -16   7    4822    1585
  -1 -15  -7     689     871
  -1 -15   7      81     817
  -1 -15   7    1660    1193
  -1  13   7    2036     916
   1 -13  -7    2778    1199
   1 -13   7    5093    1813
   1 -13   7    2695    1153
  -2  12   7    5160    1425
   2 -12  -7    9329    1826
   2 -12   7    5706    2024
   2 -12   7    7222    1738
   3 -11   7    2619    1050
   3 -11  -7    1397     908
  -3  11   7    1094     710
   4 -10   7    1780     943
  -4  10   7     517     645
   4 -10  -7     858     776
   5  -9   7    5852    1794
  -5   9   7    4437    1436
   5  -9  -7    3759    1283
   6  -8  -7    2450     926
  -6   8   7    2402     895
   6  -8   7     964     954
   7  -7  -7    1882     788
   7  -7   7     860     962
  -7   7   7    1215     754
   8  -6  -7     307     708
   8  -6   7     570     766
  -8   6   7    1498     533
   9  -5  -7    4597    1204
   9  -5   7    2847    1523
  -9   5   7    2364    1385
  10  -4   7    2952    1378
  10  -4  -7    2040     708
 -10   4   7     888     915
 -11   3   7     627     759
  11  -3   7      49    1134
 -11   3   7     196    1082
 -12   2   7    1164     694
 -12   2   7    2401    1169
  12  -2   7    1112    1226
 -12   2  -7    1326     771
  13  -1   7    3723    1631
 -13   1   7    3160    1415
  13  -1   7    2624    1665
 -13   1  -7    6407    1703
 -13   1   7    3071    1103
 -15  -1   7    3401    1442
 -15  -1   7    4945    1326
  15   1   7    4882    1564
 -15  -1  -7    6743    1791
  15   1   7    6719    2228
  16   2   7     116    1379
 -16  -2  -7     464     797
 -16  -2   7     120     774
 -16  -2   7     159     885
  16   2   7     588    1123
  17   3   7    1234    1661
  17   3   7     263     954
 -17  -3   7    2184    1347
 -17  -3   7     570     708
 -17  -3  -7     889     915
  18   4   7     645    1667
 -18  -4   7     715    1292
 -18  -4  -7     258     874
 -18  -4   7     247     613
  18   4   7     523    1011
 -19  -5   7     120     619
  19   5   7     257     982
  19   5   7    1052    1822
 -19  -5  -7     177    1031
 -20  -6   7     104     674
 -20  -6  -7     163    1057
 -21  -7   7     570     912
  -9 -23  -8    1318    1726
  -8 -22  -8    4271    1648
  -8 -22   8    1093    2074
  -7 -21   8    1666    1750
  -7 -21  -8    6591    1654
  -6 -20  -8    7379    1820
  -6 -20   8    6676    2672
  -5 -19   8    7939    2549
  -5 -19  -8    8067    1691
  -4 -18  -8    4332    1664
  -4 -18   8     875    1348
  -3 -17  -8   15459    2528
  -3 -17   8   13860    3255
  -2 -16   8   13426    3208
  -2 -16  -8   15268    2501
  -1 -15  -8   21736    2706
  -1 -15   8   24962    3884
   0 -14   8   57997    3765
   0 -14  -8   59496    3978
   0 -14   8   62060    5180
   0  14   8   53687    3574
   1 -13   8   23081    2377
  -1  13   8   20527    2164
   1 -13   8   19512    3173
   1 -13  -8   18939    2296
   2 -12   8   10916    2649
   2 -12  -8    9367    1795
   2 -12   8   12624    1983
  -2  12   8   13885    2016
   3 -11   8   19768    2341
  -3  11   8   25332    2463
   3 -11  -8   23668    2307
   4 -10   8   25032    2455
   4 -10  -8   23874    2136
  -4  10   8   25277    2240
   5  -9  -8   24364    2072
   5  -9   8   23412    2823
  -5   9   8   24454    2277
  -6   8   8   37927    3245
   6  -8   8   38649    3591
   6  -8  -8   39553    2868
   7  -7  -8   18685    1768
  -7   7   8   31784    2744
   7  -7   8   31557    3085
   8  -6  -8   27238    1904
   8  -6   8   32305    3443
  -8   6   8   30259    2905
   9  -5   8   23327    3178
  -9   5   8   30661    3191
   9  -5  -8   24847    1882
 -10   4   8   13469    2423
  10  -4  -8   13693    1467
  10  -4   8   13708    2665
  11  -3   8   14681    2867
 -11   3   8   16928    2786
  12  -2   8   12896    2416
  12  -2   8   13970    2742
 -12   2   8   13199    2410
  13  -1   8    8619    2227
 -13   1   8   12245    1795
 -13   1   8    8454    2049
  13  -1   8   14604    2983
 -13   1  -8   10002    1962
  14   0   8   14017    2645
  14   0   8   16027    3258
 -14   0   8   11938    2485
 -14   0  -8   23289    2942
 -14   0   8   21445    2439
 -15  -1  -8    9494    1986
 -15  -1   8   10161    1760
  15   1   8    7026    1773
 -15  -1   8    7594    1955
  15   1   8    9315    2462
  16   2   8    4824    1493
  16   2   8    1922    1748
 -16  -2   8    4576    1435
 -16  -2  -8    6773    1823
 -16  -2   8    6862    1777
  17   3   8    5103    2019
 -17  -3   8    2393    1275
 -17  -3   8    1730     882
 -17  -3  -8    1011     937
  17   3   8    1535    1129
  18   4   8    1181    1149
 -18  -4   8    1748     935
 -18  -4  -8     393     967
  18   4   8    2501    1956
 -18  -4   8    3001    1282
 -19  -5   8    2384     875
  19   5   8     399    2013
  19   5   8    2571    1277
 -19  -5  -8      72    1020
 -20  -6   8    1109     903
 -20  -6  -8    1204    1459
  20   6   8    1623    2412
  20   6   8    2743    1623
 -21  -7   8    1201    1210
  -8 -22  -9    1839    1371
  -7 -21   9     173    1704
  -7 -21  -9     173    1166
  -6 -20  -9      15    1075
  -6 -20   9    1072    1565
  -5 -19   9     121    1422
  -5 -19  -9     407    1165
  -4 -18  -9    2417    1164
  -4 -18   9     900    1403
  -3 -17  -9     135     996
  -3 -17   9       1    1069
  -2 -16   9     409    1343
  -2 -16  -9     139     868
  -1 -15   9     798    1150
  -1 -15  -9     967    1099
   1  15   9     125     617
   1 -13  -9      51     738
  -1  13   9     692     541
   1 -13   9    1171    1281
   1 -13   9      52     675
   2 -12   9     340    1008
  -2  12   9     347     695
   2 -12   9     172     754
   2 -12  -9     170     789
   3 -11   9     150     827
  -3  11   9     235     662
   3 -11  -9     541     966
  -4  10   9   10468    2140
   4 -10   9    7560    2091
   4 -10  -9    8892    1866
  -5   9   9    1282     517
   5  -9   9    2583     871
   5  -9  -9    3109     815
   6  -8  -9    8687    1498
   6  -8   9    8820    2073
  -6   8   9    5951    1591
   7  -7   9    7362    1790
  -7   7   9    5474    1332
   8  -6   9    1415    1761
  -8   6   9    2312    1718
   8  -6  -9    2652    1350
   9  -5  -9    6736    1184
  -9   5   9    3468    1344
   9  -5   9    4677    1699
  10  -4   9    3391    1519
 -10   4   9     624    1042
  11  -3   9    1861    1213
  11  -3   9     837    1250
 -11   3   9    1002     891
  12  -2   9    1999    1300
 -12   2   9    2253    1067
  12  -2   9     978     959
  13  -1   9    3128    1855
  13  -1   9    3279    1640
 -13   1   9    2267    1368
  15   1   9    1863    1392
 -15  -1   9      52    1039
  15   1   9     408    1341
 -15  -1  -9     609     952
 -16  -2  -9     745     725
  16   2   9     293    1141
  16   2   9     293    1310
 -16  -2   9    2175    1345
 -16  -2   9    1836     926
  17   3   9     426    1659
 -17  -3   9      69     777
 -17  -3  -9      66     811
  17   3   9      66    1147
 -17  -3   9     222    1019
  18   4   9    1261    1787
 -18  -4   9     487    1248
  18   4   9    1731    1328
 -18  -4   9    1150     976
 -18  -4  -9      24     987
  19   5   9    4040    2172
 -19  -5   9     299    1250
  19   5   9     251    1441
 -19  -5   9     509     923
 -19  -5  -9      16    1066
 -20  -6   9       9     874
  20   6   9       8    2477
  20   6   9    2815    1882
  -7 -21  10      31    2151
  -7 -21 -10    1285    1327
  -6 -20 -10    1179    1251
  -6 -20  10     109    1337
  -5 -19 -10    4059    1670
  -5 -19  10    3258    1969
  -4 -18  10    4198    2068
  -4 -18 -10   10869    2190
  -3 -17  10   11078    2631
  -3 -17 -10   10603    1909
  -2 -16 -10   20277    2928
  -2 -16  10   18166    3549
  -1 -15 -10   20914    2775
  -1 -15  10   16787    3521
   0 -14 -10    3631    1414
   0 -14  10    7172    2338
   0  14  10    6663    1565
   1 -13  10   16654    2216
   1 -13  10   14116    2833
   1 -13 -10   14468    2170
  -1  13  10   13578    1954
  -2  12  10   26856    2264
   2 -12  10   24714    3602
   2 -12 -10   30587    2489
   2 -12  10   28022    2748
   3 -11  10   35324    3081
  -3  11  10   36322    2917
   3 -11 -10   38564    2999
   4 -10 -10   57078    3684
   4 -10  10   61510    4300
  -4  10  10   59709    3960
   5  -9  10   38127    2982
  -5   9  10   37959    2718
   5  -9 -10   40543    2447
   6  -8  10   73549    5435
  -6   8  10   70883    5043
   6  -8 -10   75665    4402
   7  -7  10   24124    3735
  -7   7  10   22367    2778
   8  -6 -10   45295    2706
  -8   6  10   32583    3600
   8  -6  10   35274    4103
   9  -5  10   18332    2888
  -9   5  10   22621    2892
  10  -4  10   22836    3539
 -10   4  10   23359    3366
 -11   3  10   15078    2824
  11  -3  10   15128    3046
  11  -3  10   11919    2457
  12  -2  10    7079    1851
 -12   2  10   11142    2148
  12  -2  10    8258    2297
 -13   1  10    5365    1866
  13  -1  10   11687    2576
  13  -1  10    9855    2698
 -14   0  10    2343    1429
  14   0  10    2254    1827
  14   0  10     364    1210
 -15  -1  10    2669    1427
 -15  -1 -10    2348    1130
  15   1  10     995    1086
  15   1  10    3615    1844
 -16  -2  10    3063    1336
  16   2  10    2148    1450
  16   2  10    1775    1847
 -16  -2 -10    2283    1262
 -17  -3 -10    6340    2088
 -17  -3  10    3202    1458
  17   3  10    2804    1475
  17   3  10    1265    1929
 -18  -4  10    4175    1625
 -18  -4 -10      47    1064
  18   4  10    3226    1642
  18   4  10     790    1997
 -19  -5 -10      62    1257
 -19  -5  10    2186    1582
  19   5  10    2661    1737
  20   6  10      74    1926
  20   6  10    1778    3491
  -6 -20  11     283    1933
  -6 -20 -11     841    1329
  -5 -19 -11    2644    1313
  -5 -19  11     111    1429
  -4 -18 -11    4347    1614
  -4 -18  11    1713    1660
  -3 -17 -11    1429    1123
  -3 -17  11    1348    1573
  -2 -16 -11      41     918
  -2 -16  11      38     956
  -1 -15  11    1576    1320
  -1 -15 -11    1289    1018
   1 -13  11     803     806
   1 -13 -11     278     791
  -1  13  11     104     660
   2 -12  11     252     738
  -2  12  11    2214     819
   2 -12 -11    2556     888
   2 -12  11    2335    1004
   3 -11  11    2309    1390
   3 -11 -11    2873    1308
  -3  11  11    2532    1265
   4 -10  11     940    1089
  -4  10  11     883    1028
   4 -10 -11    1206    1033
   5  -9  11   13015    1984
  -5   9  11    9098    1419
   5  -9 -11    6335    1115
   6  -8 -11    1217     792
   6  -8  11      69     987
  -6   8  11      72     599
   7  -7  11   22948    3459
  -7   7  11   24775    3151
   7  -7 -11   24320    2087
   8  -6 -11    3129    1277
  -8   6  11    2562    1474
   8  -6  11    2744    1858
   9  -5  11    4766    1828
  -9   5  11    9252    2108
 -10   4  11    3739    1700
  10  -4  11    2693    1895
 -11   3  11    1344    1217
  11  -3  11     776    1411
  11  -3  11    2274    1252
  12  -2  11       1     788
 -12   2  11     358    1083
  12  -2  11     563    1336
  13  -1  11     895    1734
 -13   1  11    1437    1239
  13  -1  11     125    1201
  15   1  11     401    1514
 -15  -1  11      31    1106
  15   1  11    1823    1368
  16   2  11    1794    1836
  16   2  11    1612    2445
 -16  -2  11     120     993
 -17  -3  11      59    1200
  17   3  11     766    2246
 -17  -3 -11     173     978
  17   3  11     198    1564
  18   4  11      69    1698
 -18  -4  11      70    1164
 -18  -4 -11      69    1269
  18   4  11      69    2312
  19   5  11      44    1960
  19   5  11      55    2880
 -19  -5  11      45    1733
  -5 -19 -12    1022    1301
  -5 -19  12       9    1817
  -4 -18  12      26    1501
  -4 -18 -12    6984    2070
  -3 -17 -12    3517    1637
  -3 -17  12    3321    1700
  -2 -16  12    8303    1989
  -2 -16 -12    5425    1515
  -1 -15  12    7639    2251
  -1 -15 -12    8161    1972
   0 -14 -12   18917    2520
   0 -14  12   20519    3706
  -1  13  12   14151    2144
   1 -13  12   12681    2738
   1 -13 -12   22882    2607
   2 -12  12   13217    3252
  -2  12  12   12216    2210
   2 -12 -12   14255    2345
   3 -11 -12   12899    2024
  -3  11  12   12778    2114
   3 -11  12   11108    2274
  -4  10  12   12752    2450
   4 -10 -12   17403    2399
   4 -10  12   11891    2577
  -5   9  12   30203    3336
   5  -9  12   36050    3833
   5  -9 -12   33155    2574
   6  -8 -12   25131    2085
   6  -8  12   27348    3483
  -6   8  12   20957    2817
   7  -7  12   35934    4123
   7  -7 -12   39101    2651
  -7   7  12   43628    3592
  -8   6  12   22480    3322
   8  -6  12   30916    4000
  -9   5  12    5882    1343
   9  -5  12    5167    1664
  10  -4  12    9095    2613
  10  -4  12    6341    1950
 -10   4  12    8356    2111
  11  -3  12    7245    2028
 -11   3  12    7631    1936
  11  -3  12    5715    2132
  12  -2  12    4821    1921
  12  -2  12    8904    2043
 -12   2  12    8968    2175
 -13   1  12    7441    2339
  13  -1  12    5789    2335
  13  -1  12    6861    2216
  14   0  12    2637    1656
  14   0  12    3803    2288
 -14   0  12    3311    1693
  15   1  12    2360    1595
  15   1  12     750    1808
 -15  -1  12    2072    1496
  16   2  12    6269    2363
 -16  -2  12    1712    1309
  16   2  12     557    1929
  17   3  12    1793    2070
 -17  -3  12    1447    1524
  17   3  12    1035    2268
  18   4  12      59    2457
  18   4  12    2918    3169
 -18  -4  12     287    1817
  -4 -18 -13    1675    1643
  -4 -18  13     564    1453
  -3 -17  13     970    1181
  -3 -17 -13    1197    1323
  -2 -16 -13     362    1279
  -2 -16  13     632    1117
  -1 -15 -13    1555    1236
  -1 -15  13     210     946
   1 -13  13    1601    1180
   1 -13 -13     774     974
   2 -12 -13    1391    1021
   2 -12  13     230     976
  -2  12  13     244     790
   3 -11  13     186     818
   3 -11 -13      45     766
  -3  11  13     123     907
   4 -10  13    3111    1491
  -4  10  13    3004    1142
   4 -10 -13    2052    1018
   5  -9  13     813    1294
   5  -9 -13    1659     985
  -5   9  13    2156    1226
  -6   8  13    8168    1676
   6  -8 -13    2221     888
   6  -8  13    5214    1469
   7  -7  13    3717    1590
  -7   7  13    8127    1954
  -8   6  13     367     787
   8  -6  13     256    1028
  -9   5  13    1526     984
   9  -5  13      21    1228
  10  -4  13      23    1021
  10  -4  13     191    1129
 -10   4  13      23    1010
 -11   3  13    1974    1170
  11  -3  13    2176    1395
  11  -3  13     886    1371
 -12   2  13     338    1044
  12  -2  13     348     925
  12  -2  13     348    1260
 -13   1  13      62     980
  13  -1  13     820    1220
  13  -1  13     295    1393
 -15  -1  13       5    1473
  15   1  13     540    1880
  15   1  13     971    1643
  16   2  13    1351    1902
  16   2  13     505    1986
 -16  -2  13      26    1312
  17   3  13     251    2529
 -17  -3  13      44    1832
  17   3  13    1501    2432
  -3 -17  14    9295    2314
  -3 -17 -14     509    1302
  -2 -16 -14    1156    1185
  -2 -16  14    4682    1758
  -1 -15 -14    1863    1277
  -1 -15  14    5855    1919
   0 -14  14    3230    1651
   0 -14 -14    4532    1457
   1 -13  14    1881    1188
   1 -13 -14    5102    1354
   2 -12  14   10473    2772
   2 -12 -14   13351    2469
   3 -11 -14   18452    2541
   3 -11  14   14890    2989
  -3  11  14   15086    2456
   4 -10  14   22046    3320
   4 -10 -14   16182    2463
  -4  10  14   17104    2721
   5  -9 -14   22958    2693
  -5   9  14   15830    2716
   5  -9  14   15553    3005
   6  -8  14    8863    1969
  -6   8  14    6023    1455
  -7   7  14    3470    1249
   7  -7  14    5269    1622
   8  -6  14    6117    2051
  -8   6  14    3533    1571
  -9   5  14    6952    1974
   9  -5  14    5838    1789
 -10   4  14   12135    2734
  10  -4  14    8992    2510
  10  -4  14   10692    2548
  11  -3  14    5234    2238
  11  -3  14    6652    2025
 -11   3  14    5896    1774
 -12   2  14    2915    1758
  12  -2  14    1390    1318
  12  -2  14    2426    1876
  13  -1  14     766    1571
  13  -1  14    1294    1355
 -13   1  14     844    1602
  14   0  14    3983    1824
 -14   0  14     318    1370
  14   0  14    4747    2078
 -15  -1  14     424    1578
  15   1  14      62    1692
  15   1  14      62    1566
 -16  -2  14     523    2054
  -2 -16 -15      97    1427
  -2 -16  15     218    1182
  -1 -15 -15    1629    1041
  -1 -15  15     658    1177
   1 -13 -15     421    1022
   1 -13  15     339     938
   2 -12  15       9     876
   2 -12 -15    1533    1044
  -3  11  15    2211    1025
   3 -11  15      49     967
   3 -11 -15     738     880
   4 -10 -15    3558    1362
  -4  10  15     263     955
   5  -9  15    1839    1348
   5  -9 -15    5307    1341
  -5   9  15    2509    1198
   6  -8  15     886    1207
  -6   8  15      77     729
   7  -7  15      49    1266
  -7   7  15    1484    1291
  -8   6  15    1195    1072
   8  -6  15    1490    1364
   9  -5  15    1625    1335
  -9   5  15     196     900
 -10   4  15    1705    1292
  10  -4  15     506    1203
  11  -3  15      42    1325
 -11   3  15    2076    1474
  11  -3  15    1666    1184
 -12   2  15       6     956
  12  -2  15     941    1736
  12  -2  15       7    1252
  13  -1  15    2051    1155
  13  -1  15     148    1341
 -13   1  15     144    1430
  -1 -15 -16     664    1517
  -1 -15  16    8046    2513
   0 -14 -16    3034    1673
   0 -14  16    6104    2217
   1 -13  16    5857    1988
   1 -13 -16    5110    1850
   2 -12 -16    7056    2103
   2 -12  16    4778    2081
   3 -11 -16    5479    1474
   3 -11  16    3362    1641
   4 -10 -16    7058    1837
  -4  10  16    6686    1965
  -5   9  16   15575    3072
  -6   8  16    7665    1885
   6  -8  16   10980    2461
   7  -7  16   10649    3200
  -8   6  16    7218    2177
   8  -6  16    5164    1955
  -9   5  16    4125    1820
   9  -5  16    5588    2150
  11  -3  16    2643    1763
  11  -3  16     745    1707
 -11   3  16    2061    1874
  12  -2  16      21    1247
  12  -2  16    3433    1958
 -12   2  16     432    1280
  13  -1  16     644    1715
  13  -1  16    4805    1854
   1 -13 -17    1411    1527
   1 -13  17    1006    1326
   2 -12 -17    1566    1170
   2 -12  17    1004    1132
   3 -11  17    2510    1325
   3 -11 -17    1930    1280
   4 -10  17    1392    1387
  -5   9  17    1443    1135
  -6   8  17    2414    1330
  -7   7  17    1346    1179
   7  -7  17     739    1491
  -8   6  17       9    1102
   8  -6  17     776    1700
   9  -5  17     235    1448
  -9   5  17     232    1317
  10  -4  17     108    1604
 -10   4  17      39    1174
 -11   3  17     133    1427
  11  -3  17     129    1243
   2 -12 -18    6010    2220
   4 -10  18    1748    1407
  -5   9  18    2411    1747
  -6   8  18    4782    2083
  -7   7  18    7982    1946
  -8   6  18   10125    2778
   8  -6  18    5987    2770
   9  -5  18    4327    2056
  -5 -21   0   11174    2086
  -5 -21   0    5229    1825
  -4 -20   0    9609    1519
  -4 -20   0     777     651
  -3 -19   0   10618    2036
  -2 -18   0   60715    4143
  -2 -18   0   59955    3842
  -1 -17   0   41903    2710
  -1 -17   0   35181    2411
   0 -16   0   75985    4203
   0 -16   0   77857    4405
   1 -15   0    7388    1820
   1 -15   0    5140    1596
   2 -14   0   26840    1851
   2 -14   0   30421    2279
   3 -13   0   22409    2127
   3 -13   0   19701    1905
   4 -12   0   60549    3211
   4 -12   0   63978    3302
   5 -11   0  128328    5842
   6 -10   0  189503    7671
   7  -9   0  126913    6018
   8  -8   0   48222    3464
  -8   8   0   55433    3317
   9  -7   0    9318    1268
  -9   7   0    9653    1066
  -9   7   0    7431     819
 -10   6   0   11685    1447
 -10   6   0    9546    1458
  10  -6   0    9464    1653
 -11   5   0   18831    1694
  11  -5   0   19887    2253
 -11   5   0   15618    1549
 -12   4   0   29923    2238
  12  -4   0   26170    2423
 -13   3   0   35998    1912
  13  -3   0   36468    2263
 -13   3   0   32810    1970
 -14   2   0   59096    3721
 -14   2   0   54903    3325
  15  -1   0    2496    1104
 -15   1   0    1786     879
  16   0   0   12528    1441
 -16   0   0    9231    1073
 -17  -1   0    1311     793
 -18  -2   0    1168     735
 -19  -3   0     134     531
 -20  -4   0    1058     880
 -21  -5   0      55     666
 -22  -6   0       4     730
  -7 -23   1     480    1183
  -6 -22   1    1354    1190
  -5 -21  -1    2776    1388
  -5 -21   1    1953    1473
  -4 -20   1    2067    1138
  -4 -20  -1    1633    1043
  -4 -20   1    2336    1160
  -3 -19   1    2677    1236
  -3 -19  -1    3353    1278
  -3 -19  -1    2533    1166
  -3 -19   1    3884    1286
  -2 -18   1    9034    2114
  -2 -18  -1   12473    2137
  -2 -18  -1    8347    1870
  -2 -18   1   11107    2017
  -1 -17  -1    5886    1451
  -1 -17   1    5869    1467
  -1 -17  -1    7945    1532
   1 -15   1    2772     892
   1 -15   1    3662    1171
   1 -15  -1    3359     913
   1 -15  -1    3340    1117
   2 -14   1   10657    1780
   2 -14  -1    7828    1336
   2 -14  -1   13073    1866
   2 -14   1   12936    1959
   3 -13   1    3373    1390
   3 -13   1    5056    1506
   3 -13  -1    3760    1072
   3 -13  -1    4195    1401
   4 -12  -1    1683     777
   4 -12   1    1664     972
   4 -12  -1    2164    1077
   5 -11   1     730     798
   5 -11  -1     446     745
   6 -10   1       3     680
   6 -10  -1       4     543
  -7   9   1    6404    1380
   7  -9  -1    6755    1555
   7  -9   1    6100    1518
  -8   8   1    6526    1232
   8  -8  -1    6447    1373
   8  -8   1    5087    1259
  -9   7   1     639     747
  -9   7   1    1124     728
   9  -7   1    1368    1134
   9  -7  -1     448     953
 -10   6   1    1165     528
  10  -6   1    1367     844
  10  -6  -1    2258    1008
 -10   6  -1    1467     619
 -10   6  -1    1638     688
 -10   6   1    2092     809
 -11   5  -1     264     375
  11  -5   1     346     818
 -11   5  -1     367     658
 -11   5   1    1073     780
  11  -5  -1     330     715
 -11   5   1     795     659
  12  -4  -1     739     694
 -12   4   1     867     552
  12  -4   1     724     815
 -12   4   1     619     580
 -12   4  -1    1708     642
 -12   4  -1    2129     849
 -13   3  -1    1872     569
 -13   3   1    2107     586
  13  -3   1    2987     856
  13  -3  -1     475     585
 -13   3  -1    3224     605
 -13   3   1    2655     544
  14  -2   1     834    1495
  14  -2  -1     855    1185
 -14   2   1     731    1038
 -14   2   1    1041    1016
 -14   2  -1     311     984
 -14   2  -1     226     759
 -15   1   1    4424    1255
  15  -1  -1    6171    1552
 -15   1   1    6411    1614
 -15   1  -1    3664    1340
 -17  -1  -1    2990    1281
 -17  -1   1    2383    1192
 -18  -2   1    1274     713
 -18  -2  -1     458     670
 -19  -3  -1     295     702
 -19  -3   1     176     660
 -20  -4   1     316     540
 -20  -4  -1     256     586
 -21  -5  -1     213     733
 -21  -5   1      91     828
 -22  -6   1     184     820
 -22  -6  -1     636     905
  -9 -25   2      73    1891
  -8 -24   2    2565    1785
  -7 -23   2    4566    1645
  -6 -22   2    3950    1552
  -6 -22  -2    6952    1593
  -5 -21   2    6743    1838
  -5 -21  -2    9044    1763
  -4 -20  -2   13677    1978
  -4 -20   2   11730    2353
  -3 -19   2   17620    2606
  -3 -19   2   17620    2122
  -3 -19  -2   16529    2054
  -2 -18  -2   10213    2114
  -2 -18   2    9516    2481
  -2 -18   2    8215    2026
  -1 -17  -2   21166    2152
  -1 -17   2   15705    2054
  -1 -17   2   21171    2055
   0 -16   2   12518    1849
   0 -16  -2   12556    1908
   0 -16   2   13375    2113
   0 -16  -2   14691    1719
   1 -15  -2   29991    2186
   1 -15   2   23378    2465
   1 -15   2   36660    2683
   1 -15  -2   28725    2515
   2 -14   2   37597    2578
   2 -14  -2   43551    2170
   2 -14  -2   39190    2409
   2 -14   2   41722    2507
   3 -13  -2   44972    2447
   3 -13  -2   45612    2919
   3 -13   2   43430    2948
   4 -12  -2   52160    3072
   4 -12   2   51477    3639
   4 -12  -2   49470    3464
   5 -11  -2   52870    2985
  -5  11   2   53256    2945
   5 -11   2   54299    3113
   6 -10  -2   37419    2651
  -6  10   2   40272    2603
   6 -10   2   40550    2849
   7  -9   2   38657    2999
   7  -9  -2   38429    2785
  -7   9   2   33275    2574
   8  -8   2   42507    2823
   8  -8  -2   43269    2668
  -8   8   2   41630    2570
  -9   7   2   46037    2864
  -9   7   2   49068    2458
   9  -7  -2   46348    2948
   9  -7   2   46960    3214
 -10   6   2   36842    1905
 -10   6   2   36786    2277
  10  -6  -2   34557    2246
  10  -6   2   43293    2787
 -10   6  -2   39485    2252
 -11   5   2   20365    1788
  11  -5   2   21440    2767
 -11   5   2   21135    2073
 -11   5  -2   21234    2049
  11  -5  -2   20224    2046
 -12   4  -2   17680    1938
 -12   4   2   17561    1916
 -12   4   2   13762    1564
  12  -4   2   15127    2137
 -13   3  -2   13423    1270
  13  -3   2   12951    1849
  13  -3  -2   11121    1481
 -13   3   2    9167    1297
 -13   3   2    9340    1318
 -13   3  -2   11454    1560
  14  -2  -2    4789    1252
 -14   2   2    4194    1181
 -14   2  -2    4550    1193
  14  -2   2    5791    1664
 -15   1   2    5181     959
 -15   1   2    6576    1166
 -15   1  -2    5137    1102
  15  -1   2    7235    1486
 -16   0  -2    1577     778
 -16   0   2    2338     836
  16   0   2    2630    1242
 -16   0   2    3441    1111
 -17  -1   2    2435     873
  17   1   2     785    1028
 -17  -1  -2    3259     795
 -18  -2   2     361     660
 -18  -2  -2    1235     703
 -19  -3   2     829     646
 -19  -3  -2     933     697
 -20  -4  -2    2263     890
 -20  -4   2       9     612
 -21  -5   2    1166     944
 -21  -5  -2    1497     814
 -22  -6  -2    1040     681
 -22  -6   2     391     868
  -9 -25   3     552    2076
  -8 -24   3     899    1644
  -7 -23   3     281    1190
  -6 -22   3     175    1121
  -6 -22  -3     525    1250
  -5 -21  -3     407    1060
  -5 -21   3     264     783
  -4 -20   3    1443    1098
  -4 -20  -3     810    1087
  -3 -19   3    1032     899
  -3 -19   3     924     979
  -3 -19  -3     480     873
  -2 -18  -3    2683    1235
  -2 -18   3    4732    1481
  -2 -18   3    3564    1497
  -1 -17  -3     278    1048
  -1 -17   3    2169    1531
  -1 -17   3    1144    1181
   1 -15   3    2023    1283
   1 -15   3    2319    1321
   1 -15  -3    2181    1199
   2 -14   3    2012     984
   2 -14   3    2878    1069
   2 -14  -3    3144    1037
   3 -13   3    6821    1582
   3 -13  -3    5535    1423
   3 -13   3    6098    1716
  -4  12   3    1108     707
   4 -12   3     635     788
   4 -12  -3     525     783
   5 -11   3     764     711
   5 -11  -3     292     664
   5 -11  -3     824     365
  -5  11   3     634     513
   6 -10  -3    1596     971
   6 -10   3    1733     893
  -6  10   3    1388     692
   7  -9  -3   18117    2092
  -7   9   3   16391    2025
   7  -9   3   18954    2312
   8  -8  -3     658     744
   8  -8   3    1072     627
  -8   8   3    1053     511
   9  -7  -3    1013     851
  -9   7   3    2419     558
   9  -7   3    2707    1120
  -9   7   3    1707     731
 -10   6   3   15657    2051
  10  -6  -3   15651    1744
  10  -6   3   21206    2634
 -10   6   3   17130    1395
  11  -5   3     543     991
  11  -5  -3      37     674
 -11   5   3     251     687
 -11   5  -3    1264     820
 -11   5   3     600     627
 -12   4  -3    2083     828
  12  -4  -3    1844     870
 -12   4   3    1509     803
 -12   4   3    1593     688
  12  -4   3      30     853
  13  -3  -3      56     679
 -13   3  -3      56     642
  13  -3   3      62     867
 -13   3   3     272     645
 -13   3   3     153     589
 -14   2  -3    1029     790
  14  -2  -3     924     793
 -14   2   3    1042     811
  14  -2   3     700    1187
 -14   2   3    1520     846
 -15   1   3    1955     694
 -15   1  -3     328     559
 -15   1   3     862     533
  15  -1   3     328    1024
 -17  -1   3    2321     847
 -17  -1  -3    1563     769
  17   1   3    1261    1176
 -18  -2  -3      60     652
  18   2   3    1111    1117
 -18  -2   3      72     599
 -19  -3   3      22     643
 -19  -3  -3     746     791
 -20  -4  -3     797     795
 -20  -4   3     195     661
 -21  -5  -3     600     780
 -21  -5   3     680     827
 -22  -6   3       1     650
 -22  -6  -3      89     801
  -8 -24   4    1936    1858
  -7 -23   4    3254    1788
  -7 -23  -4    3539    1677
  -6 -22   4    7945    2103
  -6 -22  -4    5863    1553
  -5 -21   4    4287    1906
  -5 -21  -4    9551    1912
  -4 -20  -4   11974    1806
  -4 -20   4   15578    2774
  -3 -19  -4    8773    1781
  -3 -19   4    8710    2245
  -2 -18   4   12269    2596
  -2 -18   4   17846    2269
  -2 -18  -4   15145    2266
  -1 -17   4   21701    2039
  -1 -17  -4   22225    2397
  -1 -17   4   16617    2799
   0 -16   4   35063    3272
   0 -16  -4   32991    2357
   0 -16   4   30648    2204
   1 -15   4   28495    3340
   1 -15   4   26868    2345
   1 -15  -4   24024    2269
   2 -14   4   19928    2822
   2 -14  -4   24448    2409
   2 -14   4   20742    2336
   3 -13  -4   17722    1846
   3 -13   4   15035    2268
   3 -13   4   15868    1863
  -4  12   4   35090    3005
   4 -12   4   36930    3211
   4 -12  -4   29207    2855
   5 -11   4   29744    2656
   5 -11  -4   32338    2508
  -5  11   4   33020    2549
   6 -10   4   28746    2467
  -6  10   4   26380    2240
   6 -10  -4   27964    2247
   7  -9  -4   33525    2196
   7  -9   4   31833    2400
  -7   9   4   29160    2088
   8  -8  -4   74031    4168
  -8   8   4   82188    4532
   8  -8   4   77439    4816
  -9   7   4    5516     705
   9  -7  -4    4353    1071
   9  -7   4    4690    1332
  -9   7   4    3701     895
  10  -6   4   20357    2635
 -10   6   4   17792    1375
 -10   6   4   20212    2286
 -11   5   4   23282    1561
 -11   5   4   26324    2456
  11  -5  -4   23250    1793
 -11   5  -4   27673    2060
  11  -5   4   24514    2739
 -12   4   4   10336    1443
 -12   4  -4   13595    1997
  12  -4   4    8812    1932
  12  -4  -4    9058    1466
 -12   4   4    9628    1818
 -13   3   4   10375    1249
  13  -3   4   12704    1921
 -13   3  -4    9416    1359
 -13   3   4    8369    1301
  13  -3  -4   11783    1235
 -14   2   4   15106    2182
  14  -2   4   13408    2418
 -14   2  -4   15119    2125
 -14   2   4   17253    2020
 -15   1   4    8925    1714
 -15   1   4   10766    1628
 -15   1  -4   13867    2050
  15  -1   4    9982    2201
 -16   0   4   16137    2335
 -16   0   4   12803    1947
  16   0   4   16187    2799
 -17  -1   4    7360    1299
 -17  -1  -4    6399    1280
  17   1   4   10282    2223
 -17  -1   4    2053     861
 -18  -2   4    2237     815
 -18  -2  -4    2047     804
  18   2   4    6178    1636
 -19  -3   4    1821     683
 -19  -3  -4    1694     866
 -20  -4   4     220     537
 -20  -4  -4     771     932
 -21  -5  -4     584     942
 -21  -5   4      46     675
 -22  -6   4     348     617
  -8 -24   5     169    1839
  -7 -23   5     327    1430
  -7 -23  -5     399    1158
  -6 -22  -5    2259    1137
  -6 -22   5    2301    1497
  -5 -21   5    2660    1436
  -5 -21  -5     267    1038
  -4 -20   5     336     932
  -4 -20  -5     107     914
  -3 -19  -5    1394    1123
  -3 -19   5    1521    1443
  -2 -18  -5     836     811
  -2 -18   5    1113     835
  -1 -17   5    3979    1020
  -1 -17   5    1357    1019
  -1 -17  -5    3354    1043
   1 -15   5    5495    1384
   1 -15  -5     548     786
   1 -15   5    2795     924
   2 -14   5     176     761
   2 -14  -5    1512     972
   2 -14   5     416     936
   3 -13   5     359     788
   3 -13  -5     351     656
   3 -13   5    2893     780
  -3  13   5    2299     708
   4 -12   5     662     835
  -4  12   5    1216     764
   4 -12  -5    1559    1028
   5 -11   5    1435     820
   5 -11  -5    1072     906
  -5  11   5    1930     777
   6 -10  -5    5739    1114
   6 -10   5    4208    1098
  -6  10   5    6159    1126
   7  -9  -5    5547    1042
   7  -9   5    8234    1383
  -7   9   5    6778     997
   8  -8   5    1252    1057
  -8   8   5     915     809
   8  -8  -5    3361    1188
   9  -7   5    2600    1229
   9  -7  -5    3001     938
  -9   7   5    1757     908
 -10   6   5      74     484
 -10   6   5      96     352
  10  -6  -5      74     612
  10  -6   5      76     725
  11  -5  -5    9603    1297
 -11   5   5    9134    1072
  11  -5   5    5647    1390
 -11   5   5    7367    1358
 -12   4   5    8293    1039
 -12   4   5    7288    1386
  12  -4  -5    8384    1204
  12  -4   5    8389    1692
 -12   4  -5    6050    1089
 -13   3  -5    1524     684
  13  -3   5     123    1032
 -13   3   5     557     583
 -13   3   5     120     662
 -14   2   5    2380    1330
  14  -2   5    3364    1904
 -14   2  -5    3232    1325
 -14   2   5    2566    1142
 -15   1   5    2902    1086
 -15   1   5    1613    1151
  15  -1   5    1594    1413
 -15   1  -5    2788    1076
  17   1   5      60    1301
 -17  -1   5      58     839
 -17  -1   5     587     867
 -17  -1  -5      18     713
 -18  -2  -5     261     607
 -18  -2   5    1352     728
  18   2   5    1474    1410
 -19  -3  -5     143     691
  19   3   5    1691    1699
 -19  -3   5     136     689
 -20  -4  -5     971    1019
 -20  -4   5      15     563
 -21  -5   5     149     636
 -21  -5  -5     958    1081
 -22  -6   5     115     719
  -8 -24  -6    3187    2308
  -8 -24   6    3476    2466
  -7 -23   6    2298    1772
  -7 -23  -6    3254    1476
  -6 -22   6    4203    1859
  -6 -22  -6    3807    1512
  -5 -21  -6    7287    1536
  -5 -21   6    7443    2142
  -4 -20   6   11245    2707
  -4 -20  -6   11354    2099
  -3 -19   6   11727    2398
  -3 -19  -6   11109    1703
  -2 -18   6    6828    2263
  -2 -18  -6    8134    1928
  -1 -17   6    8243    2008
  -1 -17  -6   11319    1866
  -1 -17   6   10010    1559
   0 -16   6   13718    2543
   0 -16  -6   11909    1854
   0 -16   6    8248    1457
   1 -15   6   20479    2317
   1 -15   6   16698    3349
   1 -15  -6   19371    2288
   2 -14   6   44742    3611
  -2  14   6   36175    2482
   2 -14  -6   44479    2875
   2 -14   6   41348    2794
   3 -13   6   35221    3439
   3 -13  -6   36474    2794
   3 -13   6   38558    2899
  -3  13   6   34680    2650
  -4  12   6    9994    1770
   4 -12  -6    6987    1614
   4 -12   6   11232    2014
   5 -11   6   10297    1891
   5 -11  -6    8820    1598
  -5  11   6   10775    1764
   6 -10  -6   12012    1654
  -6  10   6    7367    1411
   6 -10   6   11092    1922
   7  -9   6   15300    2660
  -7   9   6   10646    2118
   7  -9  -6   13318    1834
  -8   8   6    9488    1782
   8  -8  -6   10923    1635
   8  -8   6    9280    1978
   9  -7   6   29092    2800
  -9   7   6   31645    2656
  10  -6  -6   21704    1887
  10  -6   6   30083    3398
 -10   6   6   25622    2812
  11  -5   6   12753    2426
 -11   5   6   10428    1943
  11  -5  -6   12780    1556
  12  -4   6   14356    2273
 -12   4   6   15643    1404
 -12   4   6   15302    2010
  12  -4  -6   13813    1363
 -13   3  -6   14834    2225
 -13   3   6   16187    1571
  13  -3   6   13213    2662
 -13   3   6   11687    2103
  14  -2   6    9200    2033
 -14   2  -6   11935    1907
 -14   2   6    8579    1798
 -14   2   6   11791    1560
 -15   1   6    9635    1823
 -15   1  -6    7083    1821
 -15   1   6    7878    1922
  15  -1   6   10662    2616
  16   0   6    6496    2010
 -16   0   6    3074    1256
 -16   0   6    3769    1089
 -16   0  -6    4419    1156
 -17  -1  -6    7041    1751
 -17  -1   6    7436    1595
  17   1   6    7385    2240
 -17  -1   6    5736    1707
 -18  -2   6     518     760
 -18  -2   6     456    1077
 -18  -2  -6    2918    1024
  18   2   6     859    1368
 -19  -3   6     728     691
 -19  -3  -6    1381     944
  19   3   6    3220    1839
 -20  -4  -6    1392    1129
 -20  -4   6     516     697
 -21  -5  -6     130    1281
 -21  -5   6     724     719
 -22  -6   6      80     765
  -8 -24  -7     251    1793
  -7 -23  -7     586    1488
  -7 -23   7      36    1798
  -6 -22  -7     862    1230
  -6 -22   7     146    1512
  -5 -21   7      58    1219
  -5 -21  -7     219    1138
  -4 -20   7     778    1203
  -4 -20  -7     516    1073
  -3 -19   7    5755    1807
  -3 -19  -7    2472    1217
  -2 -18   7     115    1068
  -2 -18  -7     721     968
  -1 -17  -7    4561    1379
  -1 -17   7    1621    1145
   1 -15   7      79     741
   1 -15  -7    1756     915
   1 -15   7    2192    1062
   2 -14   7     124     698
  -2  14   7     120     499
   2 -14  -7     120     642
   2 -14   7     124     732
   3 -13   7    4734    1617
   3 -13   7    2571    1685
   3 -13  -7    4931    1624
  -3  13   7    2712    1209
  -4  12   7    1758     841
   4 -12  -7     990     908
   4 -12   7    2118     951
   5 -11  -7    1614     991
   5 -11   7    2165    1162
  -5  11   7    2881    1176
   6 -10   7     868     876
  -6  10   7     506     605
   6 -10  -7    1432     893
   7  -9   7    8039    1835
   7  -9  -7    7332    1374
  -7   9   7    5510    1318
   8  -8   7    1187     933
   8  -8  -7    1845     943
  -8   8   7    1467     819
  -9   7   7    2587    1173
   9  -7  -7     323     489
   9  -7   7    1818    1276
  10  -6   7     548     816
  10  -6  -7    2913     831
 -10   6   7    2755     933
  11  -5   7    4303    1866
  11  -5  -7    2629     963
 -11   5   7    3855    1444
  12  -4   7     232    1233
 -12   4   7     643    1108
  13  -3   7     104    1174
 -13   3   7    2696    1175
  14  -2   7    1003    1405
 -14   2   7    2638     831
 -14   2  -7    2998     834
 -14   2   7    2907    1171
 -15   1   7    6144    1833
 -15   1   7    4403    1199
 -15   1  -7    8430    1829
  15  -1   7    4061    1812
  17   1   7      78    1313
 -17  -1  -7     158     888
 -17  -1   7     447     702
 -17  -1   7      86     957
  18   2   7      46    1405
 -18  -2   7      46     635
 -18  -2  -7    1331    1170
 -18  -2   7    1630    1166
 -19  -3   7     173     674
 -19  -3  -7     613     981
  19   3   7     613    1451
  20   4   7      75    1622
 -20  -4  -7      75     975
 -20  -4   7      55     786
 -21  -5  -7     110    1471
 -21  -5   7      10     836
  -7 -23  -8    3089    1662
  -7 -23   8       2    2102
  -6 -22  -8    3183    1370
  -6 -22   8      84    1610
  -5 -21   8    1273    1585
  -5 -21  -8     534    1045
  -4 -20  -8    8352    1706
  -4 -20   8    6072    2180
  -3 -19  -8    4630    1362
  -3 -19   8    6654    1995
  -2 -18   8   17079    3360
  -2 -18  -8   14724    2374
  -1 -17   8    9821    2369
  -1 -17  -8   13220    2025
   0 -16  -8   14792    2252
   0 -16   8    7532    2312
  -1  15   8   21412    2452
   1 -15  -8   25756    2508
   1 -15   8   21048    2225
   1 -15   8   22441    3689
   2 -14   8    3905    1452
  -2  14   8    6006    1313
   2 -14   8    5145    1329
   2 -14  -8    5332    1474
   3 -13  -8   17810    2175
   3 -13   8   19022    2373
  -3  13   8   18289    2205
   3 -13   8   18299    3055
   4 -12   8   43841    3486
   4 -12  -8   46212    3294
  -4  12   8   45019    3309
   5 -11  -8   29461    2414
  -5  11   8   36976    2761
   5 -11   8   37410    2966
   6 -10   8   21843    3008
  -6  10   8   18331    2546
   6 -10  -8   21834    2117
   7  -9   8   21811    3115
  -7   9   8   19507    2667
   7  -9  -8   21110    2097
  -8   8   8   33061    2807
   8  -8  -8   34634    2365
   8  -8   8   32700    3512
   9  -7   8   32206    3095
  -9   7   8   28802    3083
   9  -7  -8   26898    2072
  10  -6  -8   27119    2086
 -10   6   8   28753    3289
  10  -6   8   32230    3824
 -11   5   8   14563    2342
  11  -5   8   17522    2899
 -12   4   8    8499    2170
  12  -4   8    7847    2353
 -13   3   8    4684    1372
  13  -3   8    9063    2207
 -14   2   8    7114    1899
  14  -2   8    9429    2424
  15  -1   8    8122    2300
 -15   1  -8    9424    1935
 -15   1   8    8230    1924
  16   0   8    3561    1667
 -16   0  -8    1421    1249
 -16   0   8    2842    1277
 -17  -1  -8     841    1059
 -17  -1   8     681    1212
  17   1   8    1003    1416
  18   2   8    3741    1869
 -18  -2  -8     161    1021
 -18  -2   8     690     899
 -18  -2   8    2791    1549
  19   3   8     237    1663
 -19  -3   8     999    1170
 -19  -3  -8     802    1216
 -19  -3   8    1124     854
  20   4   8    1074    1902
 -20  -4  -8     161    1052
 -20  -4   8     146     761
 -21  -5   8      64    1079
  -6 -22  -9     126    1359
  -6 -22   9     126    1903
  -5 -21  -9    1017    1338
  -5 -21   9      20    1748
  -4 -20  -9     268    1012
  -4 -20   9     188    1448
  -3 -19   9    3394    1758
  -3 -19  -9    4622    1370
  -2 -18  -9    1229    1046
  -2 -18   9    1637    1626
  -1 -17  -9    1499    1111
  -1 -17   9    2541    1619
   1 -15  -9       9     683
   1 -15   9     406    1021
  -1  15   9     485     627
   2 -14   9     269     889
  -2  14   9     583     493
   2 -14   9     597     832
   2 -14  -9     495     957
   3 -13   9    6566    2459
   3 -13   9    4123    1718
  -3  13   9    3648    1444
   3 -13  -9    9781    2064
  -4  12   9    3152    1100
   4 -12   9    4111    1505
   4 -12  -9    3616    1272
  -5  11   9     546     800
   5 -11  -9    1800    1022
   5 -11   9    1722    1089
   6 -10   9    5387    1261
  -6  10   9    2760     902
   6 -10  -9    2132     839
   7  -9   9    5657    2066
   7  -9  -9    3565    1314
  -7   9   9    5179    1686
  -8   8   9     675    1101
   8  -8   9    1233    1618
   8  -8  -9      28     514
  -9   7   9    1139     973
   9  -7  -9     633     720
   9  -7   9     936    1121
  10  -6  -9    4133    1176
 -10   6   9    2140    1319
  10  -6   9    3200    1922
  11  -5   9      91    1078
 -11   5   9     220     791
 -12   4   9     762    1040
  12  -4   9     489    1435
 -13   3   9      64    1089
  13  -3   9      87    1459
 -14   2   9      30     894
  14  -2   9      28    1142
  15  -1   9    1492    1347
 -15   1   9    1635    1250
  17   1   9    1170    1777
 -17  -1  -9     671    1038
 -17  -1   9     896    1236
 -18  -2  -9     143    1092
 -18  -2   9     328    1125
  18   2   9    2368    1994
 -19  -3  -9     150    1107
  19   3   9     123    1618
 -19  -3   9     533    1248
 -20  -4  -9     142    1393
  20   4   9     207    2025
  21   5   9     312    2946
  -5 -21  10     175    1718
  -5 -21 -10    7842    1838
  -4 -20  10    2664    1882
  -4 -20 -10    6057    1761
  -3 -19 -10    5331    1563
  -3 -19  10    3649    1781
  -2 -18  10    2771    1553
  -2 -18 -10    6240    1499
  -1 -17 -10   13723    2185
  -1 -17  10   14117    2747
   0 -16  10   16936    3561
   0 -16 -10   16686    2629
   1 -15 -10    9333    2047
   1 -15  10   15492    3377
  -1  15  10   16145    2324
   2 -14  10   12969    2760
  -2  14  10   20801    2416
   2 -14 -10   19328    2346
   2 -14  10   18895    2359
   3 -13  10   19627    2671
   3 -13  10   18364    3499
   3 -13 -10   16067    2304
  -3  13  10   21218    2643
   4 -12 -10   18724    2215
  -4  12  10   17064    2345
   4 -12  10   13586    2328
   5 -11  10   16269    2506
   5 -11 -10   19735    2146
  -5  11  10   10617    1783
   6 -10  10   19295    3017
  -6  10  10   14842    2495
   6 -10 -10   20126    2250
  -7   9  10   28948    3032
   7  -9 -10   34537    2691
   7  -9  10   33483    3474
   8  -8  10   19762    3348
  -8   8  10   19269    2998
   9  -7  10   19486    3291
   9  -7 -10   18128    1934
  -9   7  10   14703    2563
 -10   6  10    2673    1402
  10  -6  10    2330    1735
 -11   5  10   10296    2237
  11  -5  10   12626    2707
  12  -4  10   16102    3218
 -12   4  10   16903    3060
  13  -3  10    6819    2075
 -13   3  10    6727    1796
 -14   2  10    4714    1750
  14  -2  10    6369    2209
  15  -1  10    4255    2104
 -15   1  10    1793    1345
  16   0  10    2843    1949
 -16   0  10    3462    1690
  17   1  10    1975    1968
 -17  -1  10    5351    1805
 -17  -1 -10     684    1090
  17   1  10    1092    1572
 -18  -2 -10      56    1009
  18   2  10    3794    1838
 -18  -2  10    2584    1567
  18   2  10    3717    2306
  19   3  10     735    2168
 -19  -3  10    2750    1516
 -19  -3 -10     642    1263
  20   4  10     786    3019
 -20  -4  10    1343    2116
  -5 -21 -11      39    1295
  -5 -21  11      39    1849
  -4 -20 -11     460    1367
  -4 -20  11    1012    1854
  -3 -19 -11     409    1390
  -3 -19  11     173    1605
  -2 -18  11    1829    1865
  -2 -18 -11    1331    1423
  -1 -17 -11    1629    1308
  -1 -17  11    1508    1261
   1 -15 -11     921     995
  -1  15  11      48     632
   1 -15  11    1087    1379
   2 -14 -11     657     853
  -2  14  11     281     915
   2 -14  11     628    1285
   3 -13  11    7045    1806
   3 -13  11    2925    1550
   3 -13 -11    4748    1395
  -3  13  11    4805    1362
  -4  12  11    2493    1118
   4 -12 -11    1477     897
   4 -12  11     159     904
  -5  11  11    2729     911
   5 -11 -11    2468    1075
   5 -11  11    3879    1245
  -6  10  11   21774    3116
   6 -10  11   23037    3393
   6 -10 -11   23501    2370
  -7   9  11   34808    3515
   7  -9  11   36331    3910
   7  -9 -11   35862    2575
   8  -8  11    7515    2175
  -8   8  11    6543    1973
   8  -8 -11    9864    1747
   9  -7  11    5069    1993
  -9   7  11    7775    1920
  10  -6  11   11226    3105
 -10   6  11    8133    2309
 -11   5  11     963    1129
  11  -5  11    1219    1519
 -12   4  11    2541    1441
  12  -4  11     932    1320
  13  -3  11    1034    1593
 -13   3  11    1197    1265
 -14   2  11       4    1023
  14  -2  11     804    1424
  15  -1  11      32    1329
 -15   1  11      30    1131
  17   1  11     813    2027
  17   1  11     486    1642
 -17  -1  11      27    1274
  18   2  11     249    1771
 -18  -2  11    2029    1672
  18   2  11     249    2095
  19   3  11      33    2979
  19   3  11    1499    2438
 -19  -3 -11      95    1276
 -19  -3  11     794    1855
  -4 -20  12      27    1885
  -4 -20 -12    3918    1619
  -3 -19 -12   15535    2557
  -3 -19  12     139    1582
  -2 -18 -12    3039    1703
  -2 -18  12    1628    1714
  -1 -17  12    5346    2062
  -1 -17 -12    7344    1953
   0 -16  12    4103    2197
   0 -16 -12    4158    1478
   1 -15 -12    7064    1838
   1 -15  12    6857    2552
   2 -14  12   13424    3098
   2 -14 -12   12131    2167
  -2  14  12    9430    1973
   3 -13 -12    8713    1856
  -3  13  12    8113    1875
   3 -13  12    7601    2425
   4 -12 -12    9322    1656
   4 -12  12    9873    1928
  -4  12  12    7570    1492
   5 -11  12   13291    2469
  -5  11  12   14439    2276
   5 -11 -12   12948    1971
   6 -10 -12   17397    2244
   6 -10  12   19675    3193
  -6  10  12   16491    2742
   7  -9 -12   13149    1745
   7  -9  12    8650    1983
  -7   9  12   11329    2029
   8  -8  12    7985    2648
   8  -8 -12    8088    1757
  -8   8  12    9511    2261
  -9   7  12    5720    1984
   9  -7  12    5145    2119
  10  -6  12    7606    2210
 -10   6  12   11486    2413
 -11   5  12   12589    2892
  11  -5  12    7557    2368
 -12   4  12    2263    1362
  12  -4  12    4240    1842
  13  -3  12    4935    1803
 -13   3  12    6653    2163
 -14   2  12    4323    1891
  14  -2  12    5666    2506
 -15   1  12     438    1160
  15  -1  12     229    1652
  15  -1  12     634    1464
 -16   0  12     245    1262
  16   0  12      23    1426
  16   0  12     726    1724
  17   1  12     271    1983
 -17  -1  12    2740    1778
  17   1  12     362    1867
  18   2  12     761    2690
 -18  -2  12     722    1917
  18   2  12      11    2260
  -3 -19 -13     602    1795
  -3 -19  13     270    2117
  -2 -18 -13     123    1119
  -2 -18  13      29    1278
  -1 -17 -13     123    1081
  -1 -17  13     121    1114
   1 -15  13    2140    1372
   1 -15 -13    1527    1008
   2 -14 -13    1623     849
  -2  14  13    1813     890
   2 -14  13    2003    1059
   3 -13 -13     227     709
  -3  13  13      58     797
   3 -13  13     175     943
   4 -12 -13     992     958
   4 -12  13    2454    1418
  -4  12  13     219     769
   5 -11  13     113    1065
   5 -11 -13      73     874
  -5  11  13     426     790
   6 -10  13     548    1266
   6 -10 -13    3437    1155
  -6  10  13    2311    1068
   7  -9  13     514    1187
  -7   9  13    2315    1267
   7  -9 -13     662     773
   8  -8  13     942    1201
  -8   8  13      42     794
  -9   7  13      66     753
   9  -7  13      24    1216
 -10   6  13     481    1125
  10  -6  13    2412    1302
 -11   5  13     246    1014
  11  -5  13     547    1339
  12  -4  13     342    1385
 -12   4  13      60     779
  13  -3  13     455    1279
 -13   3  13    1678    1489
  14  -2  13     128    1277
 -14   2  13    1034    1700
  15  -1  13       5    1714
 -15   1  13       5    1389
  15  -1  13    1345    1780
  17   1  13       4    2426
 -17  -1  13    1696    2282
  17   1  13       4    2419
  -2 -18  14    4009    1628
  -2 -18 -14    2536    1700
  -1 -17 -14     749    1124
  -1 -17  14    3952    2087
   0 -16  14    4063    1901
   0 -16 -14    2607    1551
   1 -15 -14    4427    1488
   1 -15  14    4057    1830
   2 -14 -14    6552    1580
   2 -14  14    4232    1476
   3 -13 -14   11689    2080
  -3  13  14   10569    1966
   3 -13  14   12221    2770
   4 -12  14   18212    3202
  -4  12  14   16926    2487
   4 -12 -14   16060    2272
   5 -11  14   15945    3061
  -5  11  14   14531    2821
   5 -11 -14   16655    2503
   6 -10 -14   10505    1985
   6 -10  14    8412    2397
  -6  10  14    5831    1767
  -7   9  14    3455    1256
   7  -9  14    4812    1552
   8  -8  14    4753    1855
  -8   8  14    3354    1411
  -9   7  14    9066    2205
   9  -7  14    7951    2350
  10  -6  14    8145    2226
 -10   6  14    6796    1923
  11  -5  14    2706    1812
 -11   5  14    6360    2193
  12  -4  14    3245    1659
 -12   4  14    8002    2161
  13  -3  14     530    1503
 -13   3  14      18    1415
  14  -2  14       2    1318
 -14   2  14       2    1431
  15  -1  14    1345    1601
 -15   1  14     760    1681
  15  -1  14    3050    1513
 -16   0  14     894    2171
  -1 -17 -15      69    1377
   1 -15 -15     837    1160
   1 -15  15      61    1048
   2 -14 -15     348    1005
   2 -14  15      35     880
   3 -13 -15    1920    1063
   3 -13  15    1413    1259
  -4  12  15      21     804
   4 -12 -15      96     988
   4 -12  15     449    1250
  -5  11  15     520     954
   5 -11 -15     728     894
  -6  10  15     326     806
   6 -10  15    1001    1428
   7  -9  15    1055    1419
  -7   9  15     282    1001
  -8   8  15    1422    1019
   8  -8  15     127    1227
   9  -7  15    4065    2334
  10  -6  15     144    1388
 -10   6  15     276    1123
  11  -5  15       5    1349
 -11   5  15     354    1353
 -12   4  15      84    1034
  12  -4  15     439    1279
  13  -3  15    1057    1558
 -13   3  15      11    1198
  14  -2  15      39    1485
 -14   2  15      58    1823
   1 -15 -16    6135    2057
   1 -15  16    6891    2550
   2 -14 -16    4459    1467
   2 -14  16    5217    1967
   3 -13 -16    8408    1923
   3 -13  16    7525    2384
   4 -12 -16    5444    1462
   4 -12  16    5002    1805
  -5  11  16    5283    1395
  -6  10  16    3398    1918
  -7   9  16    5114    1429
   7  -9  16    6120    1746
  -8   8  16    7956    2102
   8  -8  16    9078    2524
   9  -7  16    5408    2322
  -9   7  16    4750    1606
 -10   6  16     307    1257
  10  -6  16    2468    1737
  11  -5  16     316    1499
 -11   5  16    3874    1855
  12  -4  16    1793    1591
 -12   4  16    5240    1862
   2 -14 -17     207    1823
   3 -13 -17     413    1329
   4 -12  17    1009    1443
   5 -11  17    1454    1486
  -5  11  17    4147    1764
  -6  10  17      24    1092
  -7   9  17    1777    1294
   8  -8  17     492    1607
  -8   8  17      28    1188
  -9   7  17       2    1139
   9  -7  17    1220    1644
 -10   6  17    1598    1503
  10  -6  17      55    1438
  11  -5  17      12    1359
  -6  10  18    1028    2279
  -7   9  18    4746    2194
   9  -7  18    4282    2617
  -4 -22   0   10420    1937
  -3 -21   0   11938    2087
  -2 -20   0   14335    2187
  -1 -19   0   12792    1962
  -1 -19   0   12228    2101
   0 -18   0    2266    1222
   0 -18   0    5140    1369
   1 -17   0   43667    2743
   1 -17   0   40029    2641
   2 -16   0     480     679
   2 -16   0    1288     864
   3 -15   0   35987    2218
   3 -15   0   41264    2478
   4 -14   0   17076    1724
   4 -14   0   13217    1409
   5 -13   0   40864    2798
   6 -12   0   78506    4203
   7 -11   0   62366    3860
   8 -10   0   43757    2899
   9  -9   0   18372    1966
  10  -8   0   14952    2005
 -10   8   0   13901    1754
 -11   7   0    9868    1094
 -11   7   0   13492    1377
  11  -7   0   13207    1589
 -12   6   0   20219    1842
 -12   6   0   15069    1958
  12  -6   0   15422    2223
 -13   5   0   10029    1541
  13  -5   0    9841    1745
  14  -4   0    1238     923
 -14   4   0     503     540
 -14   4   0    1132     695
 -15   3   0    7549    1752
 -15   3   0    7806    1642
  15  -3   0    2671    1284
 -16   2   0    2276     835
  16  -2   0    2138     894
  17  -1   0    1090    1073
 -17   1   0     595     697
 -18   0   0     552     652
 -19  -1   0     730     765
 -20  -2   0      78     621
 -21  -3   0     238     652
 -22  -4   0       4     676
  -4 -22  -1    1857    1226
  -4 -22   1    1305    1245
  -3 -21  -1    1992    1068
  -3 -21   1       9     800
  -3 -21   1    1341    1181
  -2 -20   1     705     970
  -2 -20  -1    1298    1054
  -2 -20   1      60     638
  -1 -19   1    4724    1546
  -1 -19  -1    5024    1533
   1 -17   1    5148    1405
   1 -17  -1    6621    1614
   1 -17   1    5859    1484
   2 -16  -1    1422     903
   2 -16   1     306     708
   2 -16   1      34     988
   2 -16  -1      29     668
   3 -15   1    5402    1295
   3 -15  -1    5309    1305
   3 -15  -1    2342     715
   3 -15   1    4447    1087
   4 -14   1    4701    1810
   4 -14  -1    3437    1631
   4 -14  -1    4039    1421
   4 -14   1    4159    1653
   5 -13  -1    5295    1329
   5 -13  -1    6070    1193
   5 -13   1    5296    1359
   6 -12  -1     530     704
   6 -12   1    1194     840
   7 -11  -1     513    1000
   7 -11   1      68     873
   8 -10  -1    2027     978
   8 -10   1    3918    1193
  -8  10   1    3631     959
   9  -9   1    3805    1088
   9  -9  -1    3112    1107
  -9   9   1    1765     604
  10  -8  -1      31     632
 -10   8   1     770     659
  10  -8   1    2148    1052
  11  -7  -1     167     871
  11  -7   1     411     856
 -11   7  -1     182     520
 -11   7   1     931     632
 -11   7   1       1     541
 -12   6   1    5018     904
  12  -6   1    3262     986
 -12   6  -1    1235     331
  12  -6  -1    2352     964
 -12   6  -1    3237     827
 -12   6   1    4272     968
 -13   5  -1    1662     760
 -13   5   1     646     601
  13  -5  -1    1048     847
  13  -5   1    1612     889
 -13   5   1     735     551
 -13   5  -1     754     526
  14  -4   1    1345    1223
 -14   4  -1     725     981
 -14   4  -1    1497     785
  14  -4  -1     242     564
 -14   4   1    1562     927
 -15   3   1    2682     887
  15  -3   1    4082    1280
  15  -3  -1    1607     927
 -15   3   1    3649    1002
 -15   3  -1    2576     838
  16  -2   1     680     944
 -16   2   1     128     708
 -16   2   1     350     660
 -16   2  -1     681     795
  16  -2  -1    1393    1075
 -17   1   1    2657    1235
  17  -1   1      15     987
 -17   1  -1    3212    1204
 -19  -1   1     841     688
 -19  -1  -1    1355     813
 -20  -2   1     644     833
 -20  -2  -1      39     615
 -21  -3   1      43     489
 -21  -3  -1     168     615
 -22  -4  -1      16     727
 -22  -4   1     682     899
  -5 -23   2    4971    1939
  -5 -23  -2    6201    1690
  -4 -22   2    5203    1851
  -4 -22  -2    2099    1142
  -3 -21  -2    5681    1373
  -3 -21   2    5677    1677
  -2 -20   2   17453    2256
  -2 -20  -2   12660    1945
  -2 -20   2   16391    2636
  -1 -19  -2   15354    2276
  -1 -19   2   24037    2390
  -1 -19   2   22603    3082
   0 -18  -2   30116    2463
   0 -18   2   27646    2981
   0 -18   2   35458    2621
   1 -17  -2   17401    2095
   1 -17   2   23526    2240
   1 -17   2   11631    1719
   2 -16  -2   22748    2460
   2 -16   2   25421    2578
   3 -15  -2   33076    2540
   3 -15   2   34726    2616
   4 -14  -2   29111    2341
   4 -14   2   30458    2450
   5 -13   2   28948    2467
   5 -13  -2   30246    2021
   5 -13  -2   29322    2459
   6 -12  -2   42962    2707
   6 -12   2   43786    2718
   7 -11   2   35880    2767
   7 -11  -2   37935    2771
  -7  11   2   38675    2651
   8 -10   2   30328    2445
   8 -10  -2   30699    2331
  -8  10   2   27407    2075
   9  -9  -2   28728    2423
   9  -9   2   28782    2608
  -9   9   2   24307    2177
  10  -8   2   14637    2017
  10  -8  -2   15683    1885
 -10   8   2   16286    1853
 -10   8   2   17081    1243
  11  -7   2    9875    1728
 -11   7   2   14475    1790
 -11   7   2   14174    1189
  11  -7  -2   13643    1771
 -12   6   2   19060    1967
 -12   6  -2   19254    1962
  12  -6   2   16913    2522
 -12   6   2   19199    1744
  12  -6  -2   19246    2264
 -13   5  -2   19501    2190
  13  -5   2   17862    2539
 -13   5   2   15766    1584
 -13   5   2   18716    2201
  14  -4   2   15232    2210
 -14   4   2   17088    1832
 -14   4  -2   20106    2116
 -14   4   2   15625    1858
  14  -4  -2   19021    1995
 -15   3   2    8817    1877
  15  -3   2    7946    2233
 -15   3  -2    6339    1811
  15  -3  -2    7455    1813
 -16   2   2    6694    1673
  16  -2   2    7799    2061
 -16   2   2    7056    1621
 -16   2  -2    6132    1574
 -17   1   2    3471     978
  17  -1   2     907    1203
 -18   0  -2    2770    1013
 -18   0   2    3937    1169
  18   0   2     491     913
 -19  -1   2    2361     916
 -19  -1  -2     104     602
 -20  -2  -2    1721     755
 -20  -2   2     764     647
 -21  -3  -2     394     559
 -21  -3   2     606     758
 -22  -4   2     729     793
 -22  -4  -2    1501     934
 -23  -5   2    1027     933
  -7 -25   3     138    1522
  -6 -24  -3    1139    1449
  -6 -24   3    1785    1457
  -5 -23  -3     840    1151
  -5 -23   3      15    1070
  -4 -22   3       3    1111
  -4 -22  -3       4     816
  -3 -21  -3    1234     952
  -3 -21   3    1209    1166
  -2 -20   3     161    1030
  -2 -20   3     237     978
  -2 -20  -3     266     915
  -1 -19   3    1596     999
  -1 -19   3     137     876
  -1 -19  -3     139     889
   1 -17   3    1295    1250
   1 -17  -3    2062    1426
   1 -17   3    1486    1419
   2 -16   3    5440    1578
   2 -16   3    4330    1471
   2 -16  -3    7070    1749
   3 -15   3    3558    1502
   3 -15   3    3354    1585
   3 -15  -3    2910    1359
   4 -14   3    4429    1396
   4 -14   3    3275    1152
   4 -14  -3    2912    1088
   5 -13   3    5655    1841
   5 -13  -3    4477    1749
   6 -12   3    9143    2022
   6 -12  -3    8193    1841
  -6  12   3   11885    2040
  -7  11   3    8545    1442
   7 -11   3    7217    1460
   7 -11  -3    9681    1614
   8 -10   3    5942    1286
   8 -10  -3    3738    1162
  -8  10   3    4164     995
   9  -9  -3    9863    1833
   9  -9   3    9148    1982
  -9   9   3    7113    1657
  10  -8   3    2412    1049
 -10   8   3    1947     522
  10  -8  -3    2289     962
 -10   8   3    3358     935
  11  -7  -3    3016    1063
  11  -7   3    2542    1176
 -11   7   3    3669    1021
 -11   7   3    5356     911
 -12   6   3     509     679
 -12   6   3     285     503
 -12   6  -3     640     712
  12  -6  -3      64     619
  12  -6   3    2146    1147
  13  -5  -3    1286     912
 -13   5   3     802     684
  13  -5   3     563     991
 -13   5  -3     854     825
 -13   5   3     590     734
  14  -4  -3     298     771
 -14   4  -3    1445    1008
  14  -4   3     498    1055
 -14   4   3     284     684
 -14   4   3    1720     914
 -15   3   3     686     891
 -15   3   3    1430     819
 -15   3  -3    1376     763
  15  -3   3     120     938
  16  -2   3     769    1261
 -16   2  -3    1183     965
 -16   2   3     124     651
 -16   2   3     360     728
 -17   1   3    1371     909
 -17   1  -3     335     628
 -17   1   3    1195     713
  17  -1   3      60    1156
 -19  -1  -3    1184     653
 -19  -1   3    1288     746
 -20  -2  -3     256     673
 -20  -2   3     587     675
 -21  -3   3     111     695
 -21  -3  -3     304     784
 -22  -4  -3       7     629
 -22  -4   3       7     640
  -7 -25   4    1571    1977
  -6 -24  -4    1630    1408
  -6 -24   4    4546    2070
  -5 -23  -4    3359    1415
  -5 -23   4    5537    1837
  -4 -22  -4    1624    1037
  -4 -22   4    3757    1674
  -3 -21   4    9300    2182
  -3 -21  -4    7055    1525
  -2 -20   4    2374    1036
  -2 -20  -4    4264    1020
  -1 -19   4    5666    2046
  -1 -19   4    6851    1887
   0 -18   4   10445    1659
   0 -18   4   10272    2115
   0 -18  -4    8931    1618
   1 -17   4   20182    3023
   1 -17  -4   18513    2337
   1 -17   4   22709    2547
   2 -16  -4   20162    2515
   2 -16   4   23621    3131
   2 -16   4   28844    2891
   3 -15   4   21763    2201
   3 -15  -4   19278    2074
   3 -15   4   18322    2504
   4 -14  -4   13884    1986
   4 -14   4   15516    2535
   4 -14   4   15934    2087
   5 -13   4   17627    2254
  -5  13   4   11752    1775
   5 -13  -4   10992    1769
   6 -12   4   12398    1707
   6 -12  -4    8053    1377
  -6  12   4    8504    1141
   7 -11  -4    8215    1383
   7 -11   4    4343    1116
  -7  11   4    7878    1186
   8 -10   4    6583    1513
  -8  10   4    6379    1345
   8 -10  -4    8118    1479
   9  -9   4   40854    3243
   9  -9  -4   39351    2805
  -9   9   4   42947    3017
  10  -8   4    7551    1564
  10  -8  -4    9926    1444
 -10   8   4    7432    1400
  11  -7  -4   33543    2617
 -11   7   4   33576    2139
  11  -7   4   35407    3240
 -11   7   4   29614    2683
  12  -6   4   16167    2634
  12  -6  -4   11125    1657
 -12   6   4   17718    2377
 -12   6   4   16366    1474
 -13   5  -4    6938    1443
  13  -5  -4    7283    1398
 -13   5   4    7378    1209
 -13   5   4    6381    1434
  13  -5   4    5215    1564
 -14   4  -4    7213    1817
  14  -4   4    6887    2121
 -14   4   4    6714    1824
 -14   4   4    7494    1570
  14  -4  -4    8026    1577
 -15   3  -4    5168    1491
 -15   3   4    7173    1593
 -15   3   4    7994    1904
  15  -3   4    4299    1703
 -16   2  -4    3582    1277
 -16   2   4   11960    2328
 -16   2   4    3908    1120
  16  -2   4    7032    2116
 -17   1   4    7880    1344
  17  -1   4   11245    2211
 -17   1   4    6912    1360
 -17   1  -4    7458    1369
 -18   0   4    3754    1186
 -18   0  -4    3587    1182
  18   0   4    8062    2209
 -19  -1   4    1985     803
  19   1   4    5590    1861
 -19  -1  -4    2452     922
 -20  -2  -4     728     887
 -20  -2   4     587     625
 -21  -3  -4     443     684
 -22  -4  -4     601     793
 -22  -4   4     332     778
  -7 -25  -5    2091    2364
  -7 -25   5    1074    2104
  -6 -24   5      71    1333
  -6 -24  -5     136    1261
  -5 -23  -5    2635    1351
  -5 -23   5      97    1274
  -4 -22   5     423    1306
  -4 -22  -5     580     821
  -3 -21   5    1869    1523
  -3 -21  -5    1798    1145
  -2 -20  -5     318     993
  -2 -20   5     107    1233
  -1 -19   5     609    1036
  -1 -19  -5    1058    1015
  -1 -19   5     552    1123
   1 -17  -5    3008    1079
   1 -17   5    3280    1040
   1 -17   5    2485    1003
   2 -16   5     215     950
   2 -16  -5    1566     948
   2 -16   5    2207    1187
   3 -15  -5     853    1140
   3 -15   5    2270    1376
   3 -15   5    2155    1495
   4 -14   5    5760    1560
  -4  14   5    2753    1068
   4 -14  -5    4462    1435
  -5  13   5   11087    1609
   5 -13   5   12110    1875
   5 -13  -5    9352    1569
   6 -12  -5    8960    1629
  -6  12   5    8165    1416
   6 -12   5   11280    1962
   7 -11   5      90    1024
  -7  11   5      30     722
   7 -11  -5      26     996
   8 -10   5    4192    1309
   8 -10  -5    3799    1252
  -8  10   5    3686    1095
  -9   9   5    6220    1334
   9  -9   5    5767    1507
   9  -9  -5    8707    1522
 -10   8   5    2388    1211
  10  -8   5    2774    1514
  10  -8  -5    1489    1060
  11  -7   5    4111    1337
 -11   7   5    5491    1198
  12  -6   5    1958    1285
  12  -6  -5    3759    1260
 -12   6   5    3330    1199
  13  -5  -5    3400    1197
 -13   5   5    3452    1345
  13  -5   5    3147    1641
 -13   5  -5    2634    1186
 -13   5   5    4899    1224
 -14   4  -5     659     799
 -14   4   5     377     698
  14  -4   5     873    1264
 -14   4   5     220     850
 -15   3   5     231     767
 -15   3  -5      17     684
  15  -3   5    2277    1372
 -15   3   5    1712     696
 -16   2   5      36     630
  16  -2   5      37    1147
 -16   2   5     892     919
 -16   2  -5      37     547
 -17   1  -5     138     774
  17  -1   5     215    1352
 -17   1   5     428     922
 -17   1   5     390     716
  19   1   5     997    1557
 -19  -1  -5     340     776
 -19  -1   5    1058     906
 -20  -2  -5      11     675
  20   2   5      11    1430
 -20  -2   5    1208     887
 -21  -3   5     444     843
 -21  -3  -5     427     743
 -22  -4   5     738     883
 -22  -4  -5     884    1075
  -7 -25  -6    2011    2602
  -6 -24  -6    2457    1561
  -6 -24   6    4129    2359
  -5 -23   6    2480    1768
  -5 -23  -6    3591    1442
  -4 -22  -6    6516    1674
  -4 -22   6   10872    2824
  -3 -21  -6    7280    1506
  -3 -21   6    4010    1816
  -2 -20  -6    6705    1657
  -2 -20   6    7475    2290
  -1 -19  -6    5141    1188
  -1 -19   6    7264    1970
   0 -18   6   15295    3277
   0 -18  -6   12225    2252
   0 -18   6   15975    2417
   1 -17   6   11802    1949
   1 -17  -6   11189    1818
   1 -17   6   10483    2175
   2 -16   6   26113    2696
   2 -16   6   25496    3901
   2 -16  -6   25500    2665
   3 -15  -6   32583    2792
   3 -15   6   31656    2763
   3 -15   6   35043    4179
  -3  15   6   28016    2531
   4 -14  -6   31029    2446
  -4  14   6   26549    2493
   4 -14   6   28394    2655
   5 -13  -6   12903    2155
  -5  13   6    9641    1990
   5 -13   6   15065    2488
  -6  12   6   13229    1500
   6 -12  -6   15232    1650
   6 -12   6   13730    1664
   7 -11   6   12881    1601
  -7  11   6   12484    1371
   7 -11  -6   14886    1555
  -8  10   6   16493    2375
   8 -10   6   15373    2524
   8 -10  -6   19281    2229
  -9   9   6   15371    1826
   9  -9  -6   20947    1897
   9  -9   6   16826    2182
 -10   8   6   49591    3743
  10  -8  -6   52291    3315
  10  -8   6   49867    4090
  11  -7   6   26918    3661
 -11   7   6   25438    2866
  11  -7  -6   20096    2178
  12  -6   6   14805    2678
  12  -6  -6   13717    1717
 -12   6   6   12041    2061
 -13   5   6    6519    2011
  13  -5   6    9326    2749
 -14   4  -6    3499    1110
 -14   4   6    4152    1437
  14  -4   6    3504    1576
 -15   3   6    8924    2077
  15  -3   6   10477    2572
 -16   2  -6   13709    2097
  16  -2   6   15758    2815
 -16   2   6   10306    2154
 -16   2   6   11464    1725
 -17   1   6    7153    1583
 -17   1   6    6666    1789
 -17   1  -6    6699    1559
  17  -1   6    9924    2623
 -18   0   6    8299    2274
  18   0   6    9721    2774
  19   1   6    1391    1666
 -19  -1  -6    1139     796
 -19  -1   6    1566     804
  20   2   6    2457    1880
 -20  -2  -6     931    1027
 -20  -2   6     354     774
 -21  -3  -6     214     828
 -21  -3   6      22     744
 -22  -4   6      60     900
  -6 -24   7     181    2315
  -6 -24  -7     809    1321
  -5 -23   7     309    1530
  -5 -23  -7     328    1266
  -4 -22   7     126    1148
  -4 -22  -7    1372    1217
  -3 -21  -7     227    1062
  -3 -21   7     225    1077
  -2 -20  -7     568    1074
  -2 -20   7    1382    1479
  -1 -19   7     306    1297
  -1 -19  -7     120     905
   1 -17   7    2798    1215
   1 -17   7    1672    1153
   1 -17  -7    4048    1171
   2 -16   7    2411    1166
   2 -16  -7    3406    1165
   2 -16   7    3031    1084
  -3  15   7    5948    1452
   3 -15  -7    5851    1629
   3 -15   7    7731    2260
   3 -15   7    9100    1950
   4 -14  -7      91     951
  -4  14   7     386     754
   4 -14   7     423     942
   5 -13  -7    2650     916
  -5  13   7    1411     541
   5 -13   7    1692     934
   6 -12   7    6573    1856
  -6  12   7    3234    1217
   6 -12  -7    3335    1326
  -7  11   7    5344    1123
   7 -11  -7    3161     946
   7 -11   7    3059     984
   8 -10  -7    3283    1633
   8 -10   7    4353    2157
  -8  10   7    4282    1807
   9  -9   7    4447    1547
   9  -9  -7    4933    1214
  -9   9   7    1452     819
  10  -8  -7      77     424
 -10   8   7     375     950
  10  -8   7    2087    1319
  11  -7   7    1633    1220
 -11   7   7      14     666
  11  -7  -7     310     743
  12  -6   7    3983    2168
  12  -6  -7    4445    1501
 -12   6   7    4618    1901
  13  -5   7     912    1145
 -13   5   7      65     755
 -14   4   7     783     954
  14  -4   7     622    1203
 -15   3   7    3054    1280
  15  -3   7    2874    1606
 -15   3  -7    3105    1123
 -16   2  -7     660     659
 -16   2   7     281     946
  16  -2   7     344    1403
 -17   1  -7      78     686
  17  -1   7    1273    1252
 -17   1   7    1062    1030
 -19  -1   7     426     944
 -19  -1  -7     423     793
  19   1   7     248    1422
  20   2   7      31    1645
 -20  -2  -7      95     782
 -21  -3   7     508     839
 -21  -3  -7      43    1403
  21   3   7      43    2024
 -22  -4   7      42    1248
  -5 -23  -8    4111    1497
  -5 -23   8    2321    2291
  -4 -22  -8    2440    1258
  -4 -22   8    3976    1863
  -3 -21   8   10097    2701
  -3 -21  -8    9434    1948
  -2 -20  -8    8826    1919
  -2 -20   8    9801    2614
  -1 -19   8   14479    3437
  -1 -19  -8   11767    2298
   0 -18   8   18325    3442
   0 -18  -8   15348    2376
   1 -17   8   10957    2481
   1 -17  -8   12378    2028
   2 -16   8   12332    2244
   2 -16   8   15819    3435
  -2  16   8   12585    2215
   2 -16  -8   13563    2384
  -3  15   8    7582    1414
   3 -15   8    7077    2016
   3 -15   8    6736    1542
   3 -15  -8    9008    1781
  -4  14   8   19647    2448
   4 -14   8   22393    2762
   4 -14  -8   24637    2608
   5 -13   8   16320    2639
  -5  13   8   13208    2352
   5 -13  -8   16957    2382
   6 -12  -8   18948    2065
   6 -12   8   13865    2121
  -6  12   8   13453    1836
  -7  11   8   18453    2270
   7 -11  -8   20173    2075
   7 -11   8   21201    2684
  -8  10   8   16253    2509
   8 -10   8   20934    3098
   8 -10  -8   19244    2239
   9  -9  -8   24576    2159
  -9   9   8   28441    2952
   9  -9   8   24918    3105
 -10   8   8   12478    2205
  10  -8   8   11175    2464
  11  -7   8   14159    3059
  11  -7  -8   13667    1657
 -11   7   8   14375    2739
  12  -6   8   21897    3531
 -12   6   8   12823    2566
  13  -5   8    7103    2412
 -13   5   8    6299    1891
  14  -4   8   12627    2942
 -14   4   8   12173    2607
 -15   3   8    8283    2142
  15  -3   8    8055    2351
 -16   2  -8    4156    1377
 -16   2   8    6554    1813
  16  -2   8    5898    2034
 -17   1   8     528    1093
 -17   1  -8    3487    1221
  17  -1   8    2522    1543
 -18   0  -8    1972    1295
 -18   0   8    1523    1236
  18   0   8    3173    1762
 -19  -1  -8     106    1081
  19   1   8    3212    1939
 -19  -1   8    1211    1213
  20   2   8     350    1925
 -20  -2  -8     198    1107
  21   3   8     161    1882
  -5 -23   9      48    2210
  -5 -23  -9    1597    1426
  -4 -22   9      15    1686
  -4 -22  -9    1691    1282
  -3 -21   9    1998    1996
  -3 -21  -9    2572    1373
  -2 -20   9       2    1213
  -2 -20  -9     106     983
  -1 -19   9     266    1191
  -1 -19  -9      82     864
   1 -17   9    2354    1595
   1 -17  -9    3641    1390
   2 -16   9      77    1091
   2 -16   9     310    1131
  -2  16   9     202     631
   2 -16  -9     367     985
  -3  15   9    5897    1553
   3 -15   9    4602    1575
   3 -15  -9    6040    1641
   3 -15   9    3944    1723
  -4  14   9     270     566
   4 -14  -9    1537     798
   4 -14   9    1227     936
   5 -13   9     790     835
   5 -13  -9     108     717
  -5  13   9     108     713
   6 -12   9     136     939
  -6  12   9      28     799
   6 -12  -9     330     806
  -7  11   9    1249     971
   7 -11   9    2749    1558
   7 -11  -9    1694    1164
   8 -10   9    1179    1111
  -8  10   9    1219     969
   8 -10  -9    2467     984
   9  -9  -9    1768     952
   9  -9   9     369     834
  -9   9   9     600     916
  10  -8   9    1216    1212
  10  -8  -9    4785    1092
 -10   8   9    1732     823
 -11   7   9    8824    2120
  11  -7   9    4518    1783
 -12   6   9    2100    1131
  12  -6   9      42    1153
 -13   5   9    1419     969
  13  -5   9      62    1277
  14  -4   9    4159    2099
 -14   4   9    3305    1533
  15  -3   9    2294    1597
 -15   3   9    1888    1171
  16  -2   9    1125    1306
 -16   2   9     291     997
  17  -1   9     139    1648
 -17   1   9      82     979
  19   1   9     456    1787
 -19  -1  -9      10    1112
 -19  -1   9      99    1202
 -20  -2   9     124    1173
 -20  -2  -9     129    1358
  20   2   9     806    2075
  21   3   9    1039    3124
  -4 -22  10    2446    2283
  -4 -22 -10    4639    1688
  -3 -21  10     377    1507
  -3 -21 -10    5454    1644
  -2 -20 -10    2714    1354
  -2 -20  10     602    1517
  -1 -19 -10   10047    2318
  -1 -19  10    7276    2579
   0 -18 -10   11058    2278
   0 -18  10   11441    3051
   1 -17 -10    8335    1718
  -1  17  10   14622    2032
   1 -17  10   15261    3034
   2 -16 -10   15689    2372
  -2  16  10   20494    2704
   2 -16  10   19316    3713
   3 -15  10    7284    2153
  -3  15  10   11654    1833
   3 -15 -10   10819    1865
   3 -15  10   16841    2420
   4 -14 -10    9103    1675
  -4  14  10    6744    1542
   4 -14  10    7808    1721
   5 -13 -10   18853    2442
  -5  13  10   10282    2180
   5 -13  10   12407    2513
   6 -12 -10   22311    2236
   6 -12  10   20797    3042
  -6  12  10   19033    2707
  -7  11  10   26879    3180
   7 -11  10   28496    3559
   7 -11 -10   36130    2745
  -8  10  10   35489    3200
   8 -10  10   37861    3563
   8 -10 -10   40507    2860
   9  -9  10   21565    3419
  10  -8 -10   25275    2030
 -10   8  10   32353    3538
  10  -8  10   28782    3766
 -11   7  10    1751     883
  11  -7  10    1555    1015
  12  -6  10    6462    2296
 -12   6  10    3947    1672
 -13   5  10    6212    1717
  13  -5  10    8472    2197
  14  -4  10    4399    2242
 -14   4  10    3105    1597
 -15   3  10    4435    1717
  15  -3  10    1689    1713
  16  -2  10    3174    1632
 -16   2  10    3524    1324
 -17   1  10    2253    1385
  17  -1  10    3024    2940
  18   0  10    2662    2491
 -18   0  10     635    1551
 -19  -1 -10     310    1094
  19   1  10     310    1943
 -19  -1  10     322    1214
  20   2  10     242    2686
 -20  -2  10     258    1460
  -3 -21 -11    2581    1530
  -3 -21  11      24    1841
  -2 -20  11      74    1493
  -2 -20 -11     682    1166
  -1 -19  11     896    1493
  -1 -19 -11     195    1138
   1 -17 -11    1571    1038
   1 -17  11    1374    1547
   2 -16 -11     473     914
  -2  16  11     318     728
   2 -16  11    1296    1104
   3 -15  11     329    1171
   3 -15 -11     143     815
  -3  15  11    1079     896
   4 -14  11    1671    1233
   4 -14 -11     187     789
   4 -14  11     732    1090
  -4  14  11    1395     907
  -5  13  11    2413     899
   5 -13  11    4216    1403
   5 -13 -11    1806     891
   6 -12  11    3627    1619
  -6  12  11    1603     912
   6 -12 -11    2983    1159
  -7  11  11      85     727
   7 -11 -11    2029     948
   7 -11  11     653     994
  -8  10  11    1285     968
   8 -10  11    1237    1221
   8 -10 -11    1425     959
  -9   9  11   11101    2288
   9  -9  11   13042    2787
  10  -8  11    4235    1589
 -10   8  11    2288    1174
  11  -7  11    3060    1739
 -11   7  11    4484    1802
  12  -6  11     140    1169
 -12   6  11    1162    1226
  13  -5  11      79    1096
 -13   5  11      78     973
  14  -4  11     912    1521
 -14   4  11     937    1348
 -15   3  11     819    1292
  15  -3  11     362    1589
 -16   2  11     123    1032
  16  -2  11     113    1542
 -17   1  11      27    1276
  17  -1  11      27    1725
 -19  -1  11      84    1625
  19   1  11      82    2751
 -20  -2  11      11    2297
  -2 -20 -12    9073    2502
  -2 -20  12    1083    1944
  -1 -19 -12    1314    1118
  -1 -19  12    1048    1633
   0 -18  12    5007    2588
   0 -18 -12    5602    2132
   1 -17  12    5524    2302
   1 -17 -12    6208    1583
  -2  16  12    5720    1241
   2 -16  12    6562    2056
   2 -16 -12    7903    1583
  -3  15  12    8657    1795
   3 -15 -12   12945    2111
   3 -15  12    8994    2591
   4 -14 -12   12266    2060
   4 -14  12   17631    3527
  -4  14  12   13932    2379
   4 -14  12   16756    2706
  -5  13  12   21865    3000
   5 -13  12   27511    3409
   5 -13 -12   16047    2317
  -6  12  12   25653    3317
   6 -12  12   17794    3091
   6 -12 -12   19043    2500
   7 -11  12   14565    2965
  -7  11  12   12570    2623
   7 -11 -12   11689    2005
  -8  10  12    6775    1762
   8 -10 -12    8522    1666
   8 -10  12    8375    2238
   9  -9  12     808    1231
  -9   9  12    1600     984
 -10   8  12    4484    1464
  10  -8  12    6559    2064
 -11   7  12   10645    1852
  11  -7  12    5355    1582
  12  -6  12    7237    2058
 -12   6  12    4800    1601
  13  -5  12     635    1350
 -13   5  12    2091    1379
  14  -4  12     799    1292
 -14   4  12    1763    1569
  15  -3  12    1338    1968
 -15   3  12     959    1470
 -16   2  12    2089    1656
  16  -2  12      39    1749
 -17   1  12     122    1524
  17  -1  12      31    2009
  18   0  12     718    2594
 -18   0  12    1387    2024
  -1 -19  13     106    1701
  -1 -19 -13     109    1300
   1 -17 -13     541    1159
   1 -17  13     634    1487
   2 -16 -13      15     939
   2 -16  13      69    1466
  -3  15  13    3149    1308
   3 -15  13     718    1272
   3 -15 -13    1084    1047
   4 -14  13    2091    1057
  -4  14  13    1884     976
   4 -14 -13    1455     897
  -5  13  13     453     822
   5 -13 -13    2868    1169
   5 -13  13      80    1024
   6 -12 -13    1215    1059
  -6  12  13      73     804
   6 -12  13     490    1281
   7 -11  13     663    1226
  -7  11  13    2676    1343
   7 -11 -13    2420    1198
  -8  10  13     347     888
   8 -10  13    1547    1322
   9  -9  13     557    1073
  -9   9  13     878     846
 -10   8  13    2903    1282
  10  -8  13    1027    1219
 -11   7  13    1322    1159
  11  -7  13    1666    1486
 -12   6  13    1239    1038
  12  -6  13    1092    1245
 -13   5  13     777    1329
  13  -5  13      29    1208
  14  -4  13      42    1232
 -14   4  13     382    1551
 -15   3  13     352    1321
  15  -3  13     349    1317
 -16   2  13      26    1581
  16  -2  13      43    1769
 -17   1  13       6    1928
  17  -1  13      64    2222
   0 -18 -14     198    1378
   0 -18  14    6832    2414
   1 -17 -14     422    1120
   1 -17  14    5284    2609
   2 -16 -14    7988    1948
   2 -16  14    5893    1786
   3 -15 -14    5053    1575
   3 -15  14    7707    2447
   4 -14 -14    4836    1497
   4 -14  14    2347    1551
  -4  14  14    5536    1639
   5 -13 -14    7196    1646
  -5  13  14    8816    1890
   6 -12 -14    8188    1942
   6 -12  14    6637    2078
  -6  12  14    6249    1853
  -7  11  14    5815    1512
   7 -11  14    2993    1737
   7 -11 -14    4711    1294
  -8  10  14    6553    1690
   8 -10  14    5283    1979
  -9   9  14    6732    2400
   9  -9  14    3170    2072
  10  -8  14    2583    1499
 -10   8  14    9334    2310
 -11   7  14    4651    1602
  11  -7  14    5962    1865
  12  -6  14    1481    1581
 -12   6  14    3034    1364
 -13   5  14    4903    1777
  13  -5  14    4176    1966
 -14   4  14     214    1368
  14  -4  14    2174    1549
 -15   3  14       9    1681
  15  -3  14    3656    1874
   1 -17 -15     989    1510
   2 -16 -15     855    1535
   2 -16  15     216    1221
   3 -15 -15    1803    1367
   3 -15  15    2152    1424
   4 -14  15    1337    1470
   4 -14 -15    1774    1147
  -5  13  15     107     887
   5 -13  15     199     975
   5 -13 -15    1974    1163
   6 -12 -15    1263    1077
  -6  12  15     328     937
   7 -11  15      35    1325
  -7  11  15      31     943
   8 -10  15    3080    1616
  -8  10  15     450    1149
  -9   9  15      24     877
   9  -9  15    1422    1529
  10  -8  15      38    1217
 -10   8  15     498    1114
  11  -7  15     126    1587
 -11   7  15     339    1015
 -12   6  15    1157    1437
  12  -6  15    1083    1720
 -13   5  15     117     976
  13  -5  15     119    1637
 -14   4  15    2404    1884
  14  -4  15       5    1374
   3 -15 -16    5023    2104
   4 -14  16   12421    2871
   4 -14 -16   12834    2175
   5 -13  16    6443    2301
   5 -13 -16    6160    1693
  -5  13  16    9405    2346
  -6  12  16    7093    1953
  -7  11  16    7176    1830
  -8  10  16    3740    1679
   8 -10  16    2602    1956
   9  -9  16    3458    1861
  -9   9  16    2513    1382
 -10   8  16    1746    1352
  10  -8  16    2107    1669
 -11   7  16    4844    1503
  11  -7  16     951    1610
 -12   6  16    1428    1610
  12  -6  16    4608    2106
   4 -14 -17      47    1568
  -6  12  17     287    1650
  -7  11  17    2557    1611
  -8  10  17    1994    1486
   8 -10  17     248    1908
  -9   9  17    1345    1253
   9  -9  17      58    1909
  10  -8  17     136    1616
  -3 -23   0   14556    1999
  -2 -22   0   18735    2285
  -1 -21   0   17711    2450
   0 -20   0    9099    1951
   1 -19   0   13976    2276
   2 -18   0   61546    4211
   3 -17   0    7670    2000
   3 -17   0    4476    1877
   4 -16   0   48243    4003
   4 -16   0   46836    3919
   5 -15   0    3889    1601
   5 -15   0    2568    1268
   6 -14   0   27914    3042
   7 -13   0   29405    2513
   8 -12   0   16793    2494
   9 -11   0   21361    2433
  10 -10   0    8291    1934
 -11   9   0    7675    1768
  11  -9   0    5718    1861
 -12   8   0    4011    1175
 -12   8   0    4331    1280
  12  -8   0    3430    1395
 -13   7   0   16790    2070
  13  -7   0   17306    2721
 -13   7   0   18506    2084
 -14   6   0   30958    2367
  14  -6   0   31787    2701
 -15   5   0   13964    1896
 -15   5   0   17912    2113
  15  -5   0   17073    2301
  16  -4   0   20513    2468
 -16   4   0   20288    2322
 -16   4   0   20544    2189
 -17   3   0    3384    1049
  17  -3   0      70     710
 -18   2   0    3394    1015
 -19   1   0     654     775
 -20   0   0    2015     694
 -21  -1   0     977     713
 -22  -2   0    1163     654
 -23  -3   0     742     736
  -4 -24  -1     690    1231
  -3 -23  -1     246    1068
  -2 -22  -1    1610    1050
  -2 -22   1    4273    1286
  -1 -21  -1    1298    1160
  -1 -21   1     231     972
   1 -19  -1    1858    1297
   1 -19   1    6020    1804
   1 -19   1    4512    1651
   2 -18  -1    9905    2171
   2 -18   1    7981    1996
   2 -18   1    8872    2063
   3 -17   1    8790    1675
   3 -17  -1    9992    1889
   3 -17   1    6914    1504
   4 -16   1     831     615
   4 -16   1    1111     996
   4 -16  -1     778    1145
   5 -15   1    6120    1139
   5 -15   1    5602    1237
   5 -15  -1    5046    1203
   6 -14  -1     322     687
   6 -14   1     286     833
   7 -13   1     726     970
   7 -13  -1    1332    1174
   8 -12  -1    3858    1387
   8 -12   1     913     996
   9 -11  -1    3403    1328
   9 -11   1    2622    1178
  10 -10  -1     807    1022
  10 -10   1     371     867
 -10  10   1     817     758
  11  -9   1      89     850
 -11   9   1     245     698
  11  -9  -1      17     752
  12  -8   1     492     765
 -12   8   1     661     639
 -12   8   1     459     476
  12  -8  -1     502     807
 -13   7   1    2032     989
 -13   7  -1    3641    1231
  13  -7   1    3929    1395
 -13   7   1    2907    1073
 -13   7  -1    1893     802
  13  -7  -1    1958    1085
 -14   6  -1    4476    1212
  14  -6   1    4360    1387
 -14   6   1    7250    1436
  14  -6  -1    4473    1405
 -14   6   1    2224     970
 -14   6  -1    6395    1302
  15  -5  -1    7406    1718
 -15   5   1    7280    1519
  15  -5   1    4558    1516
 -15   5  -1    5560    1311
 -15   5  -1    7872    1419
  16  -4   1     179     852
 -16   4   1     179     756
  16  -4  -1     748     833
 -16   4   1    1549     737
 -16   4  -1     914     638
  17  -3   1     646    1003
  17  -3  -1     446     918
 -17   3  -1     547     670
 -17   3   1    1794     843
  18  -2   1     170     808
 -18   2   1     197     596
 -18   2  -1     617     620
 -19   1  -1    1304     937
 -19   1   1     446     687
 -21  -1  -1     242     658
 -21  -1   1     464     739
 -22  -2  -1     137     596
 -22  -2   1      34     633
 -23  -3   1    1124     760
 -23  -3  -1       6     666
  -4 -24  -2    5653    1448
  -3 -23  -2    4284    1308
  -2 -22   2    8207    1653
  -2 -22   2    6247    1951
  -2 -22  -2    7448    1553
  -1 -21  -2    8675    1885
  -1 -21   2   11153    2563
  -1 -21   2   14857    2384
   0 -20  -2   17340    2298
   0 -20   2   20202    2626
   1 -19   2   22314    2748
   1 -19  -2   19968    2540
   2 -18  -2    5977    2033
   2 -18   2    8236    2121
   3 -17   2    6745    1975
   3 -17   2    8238    2017
   3 -17  -2    8002    1973
   4 -16   2   11396    2280
   4 -16  -2   12873    2353
   4 -16   2    7401    2019
   5 -15   2   22135    2788
   5 -15   2   21492    2625
   5 -15  -2   22745    2622
   6 -14  -2   24262    2802
   6 -14   2   17240    2778
   7 -13   2   34313    2928
   7 -13  -2   30486    2836
   8 -12   2   26077    2601
   8 -12  -2   25735    2538
  -8  12   2   27346    2440
   9 -11  -2   19191    2461
   9 -11   2   15908    2459
  -9  11   2   16027    2251
 -10  10   2   14203    2134
  10 -10   2   13510    2321
  10 -10  -2   13162    2137
  11  -9   2   15519    2399
 -11   9   2   11607    1965
  11  -9  -2   15095    2153
 -12   8   2   10946    1458
 -12   8   2   11912    2158
  12  -8  -2   15544    2301
  12  -8   2   12307    2423
  13  -7   2   10879    2158
 -13   7   2   13261    2073
 -13   7  -2   14504    2047
 -13   7   2   15481    1834
  13  -7  -2   12919    2016
 -14   6   2   13653    1916
 -14   6  -2   11548    1968
  14  -6  -2    8733    1744
  14  -6   2   10434    2209
 -14   6   2    9396    1838
 -15   5   2    9392    1637
 -15   5  -2    5272    1397
 -15   5   2    5126    1342
  15  -5   2    5614    1711
 -16   4   2    1421     792
  16  -4   2    4306    1614
 -16   4  -2    3864    1136
 -16   4   2    5548    1375
  16  -4  -2    7336    1563
 -17   3  -2    4266    1171
  17  -3   2    5692    1700
 -17   3   2    5229    1279
 -17   3   2    5273    1400
 -18   2   2    2668     852
  18  -2   2    2087    1164
 -18   2  -2    1177     612
 -19   1   2    1804     839
 -19   1  -2    1765     845
 -20   0  -2      73     437
 -20   0   2    1439     722
 -21  -1   2    1153     773
 -21  -1  -2     873     616
 -22  -2   2     761     759
 -22  -2  -2     442     635
 -23  -3  -2      95     661
 -23  -3   2    1622     933
  -5 -25  -3     885    1440
  -4 -24   3      19    1250
  -4 -24  -3     196    1130
  -3 -23  -3     398     815
  -3 -23   3     815    1270
  -2 -22  -3    1313    1226
  -2 -22   3     464    1203
  -1 -21   3    1515    1300
  -1 -21   3    1783    1232
  -1 -21  -3    1100    1085
   1 -19   3     209    1015
   1 -19   3     137     928
   1 -19  -3     686    1013
   2 -18   3    3002    1373
   2 -18  -3    2727    1310
   2 -18   3    3673    1540
   3 -17   3    1728    1340
   3 -17   3    2138    1302
   3 -17  -3    2179    1412
   4 -16   3    4406    1560
   4 -16  -3    2838    1404
   4 -16   3    1048     971
   5 -15   3    2420    1258
   5 -15   3    1867    1172
   5 -15  -3    3446    1487
   6 -14  -3      30     935
   6 -14   3      28     939
   7 -13  -3     183     845
   7 -13   3     404     654
  -7  13   3     173     554
  -8  12   3     421     887
   8 -12   3      77     901
   8 -12  -3     140    1185
   9 -11   3     476    1044
   9 -11  -3     329    1020
  -9  11   3      81     648
 -10  10   3    1018     798
  10 -10  -3    2111    1150
  10 -10   3     931    1036
 -11   9   3    1541     952
  11  -9  -3    1217    1039
  11  -9   3    1820    1220
 -12   8   3    2734     785
  12  -8   3     254     924
 -12   8   3     307     795
  12  -8  -3    1708    1014
 -13   7   3    2515     697
 -13   7   3    1481     822
  13  -7  -3     496     738
  13  -7   3     931    1045
 -14   6  -3    2077    1020
 -14   6   3    1414     904
 -14   6   3    1933     843
  14  -6   3    1134    1280
  14  -6  -3     182     552
  15  -5   3    3249    1221
 -15   5   3    2838     811
 -15   5  -3    4470    1054
  15  -5  -3    2179     933
 -15   5   3    1281     852
 -16   4   3       3     545
  16  -4   3     758    1051
 -16   4   3    9483    2031
 -16   4  -3       5     527
 -17   3  -3     126     532
 -17   3   3    1035     704
 -17   3   3     121     540
  17  -3   3     796    1059
  18  -2   3     770    1219
 -18   2   3     467     775
 -18   2  -3     291     613
  19  -1   3      69    1119
 -19   1  -3      69     608
 -19   1   3     825     681
 -21  -1   3     139     729
 -21  -1  -3      15     715
 -22  -2  -3      81     735
 -22  -2   3     145     856
 -23  -3   3      15     709
  -5 -25   4    2747    1642
  -5 -25  -4    4642    1710
  -4 -24   4    6408    2149
  -3 -23  -4    2017    1079
  -3 -23   4     865    1207
  -2 -22   4    4978    1989
  -2 -22  -4    5596    1472
  -1 -21  -4    1790    1023
  -1 -21   4    4448    1665
   0 -20   4    7099    2096
   0 -20  -4    2276    1255
   0 -20   4    4520    1589
   1 -19   4    4588    1624
   1 -19   4    5876    2102
   1 -19  -4    4495    1612
   2 -18   4   17995    2582
   2 -18   4   15433    3053
   3 -17  -4   31878    3133
   3 -17   4   31354    3812
   3 -17   4   30831    3168
   4 -16  -4   52411    3668
   4 -16   4   52459    3753
   4 -16   4   45080    4134
   5 -15  -4   45174    3227
   5 -15   4   48382    3343
   6 -14   4   25302    3058
   6 -14  -4   22556    2906
  -6  14   4   23324    2811
  -7  13   4    7215    1814
   7 -13   4   12703    2368
   7 -13  -4   12578    2245
  -8  12   4   14628    2226
   8 -12   4   13827    2480
   8 -12  -4   12664    2117
   9 -11  -4   13914    2441
  -9  11   4   12334    2361
   9 -11   4   12222    2901
 -10  10   4   39583    3017
  10 -10  -4   51358    3233
  10 -10   4   46729    3521
  11  -9   4   37686    3209
  11  -9  -4   32651    2557
 -11   9   4   31831    2678
  12  -8   4   50066    3929
 -12   8   4   46719    3417
  12  -8  -4   45579    3124
 -13   7   4    7172    1653
  13  -7   4   10631    2341
 -14   6   4    6448    1669
  14  -6  -4    5932    1513
  14  -6   4    6505    1912
 -14   6  -4    6317    1534
 -15   5  -4    5175    1154
 -15   5   4    4177     892
  15  -5   4    3394    1449
 -15   5   4    2733     999
 -16   4   4    1625     909
 -16   4   4    1169    1052
  16  -4   4     639    1287
 -17   3  -4    1401     807
 -17   3   4    2106    1084
 -17   3   4    3901    1182
  17  -3   4    5300    2054
 -18   2   4    5753    1407
  18  -2   4    1909    1483
 -18   2  -4    2113     838
 -18   2   4    4319    1200
  19  -1   4    3558    1686
 -19   1   4    4029    1072
 -20   0   4    1431     921
  20   0   4    2247    1754
 -20   0  -4    1963     947
 -21  -1  -4     248     652
 -21  -1   4     498     758
 -22  -2  -4    2290     834
 -22  -2   4     967     861
 -23  -3   4     227     986
  -5 -25   5      38    1724
  -5 -25  -5     179    1472
  -4 -24   5     435    1539
  -4 -24  -5     469    1095
  -3 -23  -5     183     949
  -3 -23   5     595    1568
  -2 -22   5     559    1084
  -2 -22  -5      36     833
  -1 -21  -5     558     836
  -1 -21   5      81     955
   1 -19  -5     588    1024
   1 -19   5     100    1182
   1 -19   5     210    1025
   2 -18   5    1109     897
   2 -18  -5     812     822
   2 -18   5     803    1106
   3 -17   5    5661    1875
   3 -17  -5    5335    1749
   3 -17   5    3567    1478
   4 -16   5    1275    1073
   4 -16  -5    1014    1093
   4 -16   5    1896    1316
  -5  15   5    3560    1452
   5 -15   5    3436    1495
   5 -15  -5    4876    1735
  -6  14   5    1348     641
   6 -14   5     628     681
   6 -14  -5    2750    1157
  -7  13   5     760    1089
   7 -13   5    1911    1581
   7 -13  -5     966    1384
   8 -12   5    1136     834
   8 -12  -5    1191     989
  -8  12   5    1231     575
   9 -11   5     885     915
  -9  11   5     868     891
   9 -11  -5    1710    1046
  10 -10  -5    3325    1575
 -10  10   5    2985    1537
  10 -10   5    5430    1997
  11  -9   5     164     910
  11  -9  -5     442     909
 -11   9   5     905     848
 -12   8   5    2620    1198
  12  -8  -5    3883    1276
  12  -8   5    4009    1771
  13  -7   5      27    1003
 -13   7   5     832     896
  13  -7  -5     136     815
  14  -6  -5    2081    1174
  14  -6   5     930    1344
 -14   6   5     673     824
 -15   5  -5     663     661
  15  -5   5      62    1045
 -15   5   5     224     837
 -16   4   5      68     760
  16  -4   5      48    1062
 -16   4  -5      57     593
 -17   3  -5     548     690
  17  -3   5    2874    1598
 -17   3   5     772     934
 -18   2   5     972     838
 -18   2  -5     261     614
  18  -2   5     261    1143
 -18   2   5     261     949
 -19   1  -5     453     669
 -19   1   5     667     811
  19  -1   5     189    1336
 -21  -1   5      48     772
 -21  -1  -5     391     787
 -22  -2  -5     229     755
 -22  -2   5      32     819
 -23  -3   5       9    1078
  -5 -25  -6    3006    1481
  -5 -25   6    3255    2383
  -4 -24  -6    3504    1388
  -4 -24   6    4710    2023
  -3 -23   6    5767    2411
  -2 -22  -6     891     951
  -2 -22   6    4021    2158
  -1 -21   6    4977    1970
  -1 -21  -6    4491    1159
   0 -20   6    7338    2967
   0 -20  -6    4185    1768
   1 -19   6    7170    1928
   1 -19  -6    5853    1500
   1 -19   6    5322    1351
   2 -18   6    8328    2532
   2 -18  -6    5558    1730
   2 -18   6    7713    1990
   3 -17   6   15661    2681
   3 -17  -6   16569    2744
   3 -17   6   16240    3497
   4 -16   6    8420    1683
   4 -16   6    8505    2067
   4 -16  -6   10639    1855
   5 -15   6   12945    2210
  -5  15   6   13446    2103
   5 -15  -6   14681    2211
   6 -14   6   25672    2984
   6 -14  -6   22529    2638
  -6  14   6   22271    2614
   7 -13  -6   21000    2588
  -7  13   6   16756    2432
   7 -13   6   19677    2840
   8 -12   6   17773    2969
  -8  12   6   16962    2679
   8 -12  -6   18410    2552
   9 -11   6   28004    3258
   9 -11  -6   28822    2899
  -9  11   6   25519    2942
  10 -10   6   16405    2919
 -10  10   6   15257    2578
  10 -10  -6   20671    2273
  11  -9   6   25582    3158
  11  -9  -6   22757    2237
 -11   9   6   20586    2557
 -12   8   6    3913    1206
  12  -8   6    3129    1338
  13  -7   6    8741    2072
  13  -7  -6   10627    1573
 -13   7   6   10431    1886
 -14   6   6   11866    2318
  14  -6   6    9783    2327
  15  -5   6    2544    1427
 -15   5   6    3927    1305
 -16   4  -6    4259    1204
 -16   4   6    2761    1136
  16  -4   6    5325    1966
 -17   3  -6    2800    1130
  17  -3   6    4054    1887
 -17   3   6    3847    1487
 -18   2   6     228     785
  18  -2   6     752    1383
 -18   2  -6     221     635
 -19   1   6       2     940
  19  -1   6    3255    1816
 -19   1  -6    1452     807
  20   0   6     738    1552
 -20   0  -6    1714     994
 -21  -1  -6    1429     809
  21   1   6    2318    1912
  -4 -24   7    1478    1940
  -4 -24  -7     583    1451
  -3 -23  -7     388    1199
  -3 -23   7     317    1406
  -2 -22  -7     127     913
  -2 -22   7      42    1227
  -1 -21   7      80    1293
  -1 -21  -7     209     861
   1 -19  -7    1443    1055
   1 -19   7      92    1155
   2 -18  -7     957     970
   2 -18   7     344    1050
   2 -18   7     116     959
   3 -17  -7   11017    2121
   3 -17   7   10397    2454
   3 -17   7   10610    2037
   4 -16   7    1980    1170
  -4  16   7    1856    1071
   4 -16   7    3094    1508
   4 -16  -7    2941    1342
   5 -15  -7    2923    1362
   5 -15   7    1902    1181
  -5  15   7    2072    1063
   6 -14  -7    1390    1221
   6 -14   7    2067    1295
  -6  14   7    1316     940
  -7  13   7    2101    1183
   7 -13   7    2801    1402
   7 -13  -7    3171    1372
   8 -12  -7    3158    1626
  -8  12   7    3681    1555
   8 -12   7    5823    2182
  -9  11   7     612     840
   9 -11  -7     181     868
   9 -11   7     713     971
 -10  10   7    1769     945
  10 -10   7     238    1124
  10 -10  -7    1047     793
 -11   9   7     264     738
  11  -9  -7     856     940
  11  -9   7     176    1082
  12  -8   7    1343    1387
  12  -8  -7    2314     869
 -12   8   7      76     835
 -13   7   7     929    1029
  13  -7   7     218    1001
 -14   6   7     575     969
  14  -6   7    1034    1450
 -15   5   7     572    1044
  15  -5   7     974    1448
  16  -4   7     824    1185
 -16   4   7    1250    1009
 -17   3  -7     640     796
  17  -3   7    1596    1481
 -17   3   7     217    1019
 -18   2  -7      44     577
 -18   2   7     270    1030
  18  -2   7      48    1179
 -19   1  -7     339     778
 -19   1   7     227    1139
  19  -1   7     847    1601
 -21  -1  -7     124     847
  21   1   7     434    1840
  -4 -24  -8    3459    1621
  -4 -24   8    2882    2840
  -3 -23  -8    1626    1425
  -3 -23   8    4570    2411
  -2 -22   8    8408    2867
  -2 -22  -8    6587    1863
  -1 -21  -8    5443    1519
  -1 -21   8    6017    2254
   0 -20   8    4170    1969
   0 -20  -8    4981    1476
   1 -19  -8   13586    2338
   1 -19   8    9744    2960
   2 -18   8   15890    2342
   2 -18  -8   16305    2501
   2 -18   8    9780    2599
   3 -17   8   10000    3054
   3 -17  -8   11834    2385
   3 -17   8   13908    2469
   4 -16   8   17112    2533
  -4  16   8   13780    2229
   4 -16  -8   17199    2437
   4 -16   8   16788    3215
  -5  15   8   18295    2518
   5 -15  -8   23569    2699
   5 -15   8   17509    2596
  -6  14   8    4565    1707
   6 -14  -8    9742    2148
   6 -14   8    5264    2034
  -7  13   8   14450    2402
   7 -13  -8   18983    2419
   7 -13   8   16728    2745
   8 -12   8   20389    3066
  -8  12   8   18738    2717
   8 -12  -8   22695    2292
   9 -11   8   10786    2686
  -9  11   8   10918    2358
   9 -11  -8   13925    2177
  10 -10  -8   12852    1931
  10 -10   8   10968    2457
 -10  10   8   13305    2344
 -11   9   8    4147    1364
  11  -9   8    5079    1776
  12  -8  -8    9292    1683
  12  -8   8    7020    2183
 -12   8   8    7139    1990
  13  -7   8    9436    2431
 -13   7   8    6702    1734
 -14   6   8    2158    1290
  14  -6   8    2354    1461
  15  -5   8    3396    1719
 -15   5   8    6588    1842
 -16   4   8    4365    1634
  16  -4   8    4353    1828
 -17   3   8    3590    1364
  17  -3   8    3809    1783
 -18   2  -8    1919    1010
  18  -2   8     818    1296
 -18   2   8    1336    1042
  19  -1   8    5670    2341
 -19   1   8    1785    1383
 -19   1  -8    2670    1247
 -20   0  -8     554    1003
 -20   0   8     736    1263
  20   0   8     658    1714
  21   1   8      92    1886
  22   2   8    1657    3521
  -3 -23  -9    1478    1325
  -3 -23   9      81    2028
  -2 -22  -9    1809    1425
  -2 -22   9     263    1520
  -1 -21   9     315    1323
  -1 -21  -9       5    1078
   1 -19  -9     839    1250
   1 -19   9     337    1364
   2 -18  -9     869    1101
   2 -18   9      51    1107
   3 -17   9     184     941
  -3  17   9       1     576
   3 -17   9       1     945
   3 -17  -9       1     934
   4 -16  -9     807     968
   4 -16   9    1506    1353
  -4  16   9     955     926
   4 -16   9     730    1023
  -5  15   9    1288     790
   5 -15   9    1480    1071
   5 -15  -9     410     919
   6 -14   9     123     798
   6 -14  -9    2908    1096
  -6  14   9     173     640
   7 -13   9     984    1120
  -7  13   9    1743     883
   7 -13  -9    1402    1064
   8 -12  -9    2429    1235
   8 -12   9    3202    1687
  -8  12   9    2433    1381
  -9  11   9    3084    1056
   9 -11  -9    1961    1031
   9 -11   9    2686    1463
  10 -10  -9    6093    1393
  10 -10   9    5915    2025
 -10  10   9    3948    1367
  11  -9  -9    6751    1328
  11  -9   9    7052    1764
 -11   9   9    5457    1392
  12  -8   9     114     984
 -12   8   9    3417    1297
  13  -7   9    2706    1349
 -13   7   9    2233    1071
  14  -6   9     275    1477
 -14   6   9     261    1094
  15  -5   9     153    1390
 -15   5   9     329    1019
  16  -4   9    2061    1630
 -16   4   9    1018    1027
  17  -3   9     504    1674
 -17   3   9     941    1106
  18  -2   9     352    1546
 -18   2   9     259    1024
 -19   1   9      64    1144
  19  -1   9      35    1883
  21   1   9   10890    4378
  -2 -22  10     288    1797
  -2 -22 -10    3109    1307
  -1 -21 -10   19054    2623
  -1 -21  10    2956    1691
   0 -20 -10   20419    3251
   0 -20  10   15964    3869
   1 -19 -10    9201    2350
   1 -19  10    6851    2597
   2 -18  10    6091    1901
   2 -18 -10    4066    1328
   3 -17 -10    3818    1287
   3 -17  10    4841    1967
  -3  17  10    5702    1378
   4 -16  10    5751    2245
  -4  16  10    2606    1176
   4 -16  10    3878    1756
   4 -16 -10    4952    1682
  -5  15  10    7366    1923
   5 -15 -10    8917    2137
   5 -15  10    8244    2338
   6 -14  10   12734    2485
   6 -14 -10   17287    2491
  -6  14  10   14949    2512
  -7  13  10   16652    2789
   7 -13 -10   15558    2361
   7 -13  10   17345    2913
   8 -12 -10   12392    2015
   8 -12  10   11194    2527
  -8  12  10   16324    2631
   9 -11  10    6565    2140
   9 -11 -10    4995    1450
  -9  11  10    3916    1470
  10 -10 -10    4043     866
  10 -10  10    5287    1490
 -10  10  10    4188    1099
 -11   9  10    3782    1402
  11  -9  10    4469    1703
  12  -8  10     643    1079
 -12   8  10    1341     935
 -13   7  10    4658    1728
  13  -7  10    3492    1760
 -14   6  10    7610    1866
  14  -6  10    3636    1698
  15  -5  10    3288    1836
 -15   5  10    3614    1648
 -16   4  10    1990    1603
  16  -4  10     576    1741
 -17   3  10    3244    1519
  17  -3  10    2905    2173
 -18   2  10    1732    1485
  18  -2  10    1363    1999
 -19   1  10    1846    1491
  19  -1  10     318    1992
  20   0  10     254    2680
 -20   0  10     249    1511
  -1 -21 -11     514    1307
  -1 -21  11     358    1772
   1 -19  11     649    1551
   1 -19 -11    1161    1150
   2 -18  11    1478    1586
   2 -18 -11    1201    1255
   3 -17 -11    1082    1054
  -3  17  11     966    1011
   3 -17  11      30    1245
   4 -16  11     795    1065
   4 -16  11    2636    1463
  -4  16  11    1489     955
   4 -16 -11    3411    1121
   5 -15  11    1404    1286
   5 -15 -11    1843    1047
  -5  15  11    2734    1125
  -6  14  11    1351    1128
   6 -14 -11    2252    1106
   6 -14  11     222    1134
   7 -13  11      63     934
   7 -13 -11    1263     820
  -7  13  11    1024     791
   8 -12 -11      72     672
   8 -12  11      74     945
  -8  12  11     552     754
   9 -11 -11    4224    1251
   9 -11  11    4195    1600
  -9  11  11    3818    1272
  10 -10 -11     448     558
 -10  10  11     151     610
  10 -10  11     152    1130
  11  -9  11    3494    2051
 -11   9  11    2390    1646
  12  -8  11     807    1228
 -12   8  11    1066    1028
 -13   7  11    2792    1492
  13  -7  11    1384    1526
  14  -6  11     468    1118
 -14   6  11      24    1061
  15  -5  11    3158    2012
 -15   5  11    2758    1510
 -16   4  11      19    1296
  16  -4  11      18    1580
  17  -3  11     171    1763
 -17   3  11     947    1497
 -18   2  11     242    1166
  18  -2  11     919    2196
  19  -1  11      86    2657
 -19   1  11      82    1405
   0 -20 -12       7    1368
   0 -20  12     176    1782
   1 -19 -12    1184    1085
   1 -19  12    2191    1670
   2 -18 -12    7526    1924
   2 -18  12    2894    1741
   3 -17  12    4346    1847
   3 -17 -12    3477    1344
  -3  17  12    3158    1196
   4 -16  12    3417    1874
   4 -16 -12    2905    1235
  -4  16  12    4569    1406
   5 -15  12    2788    1382
  -5  15  12    5951    1699
   5 -15 -12    1718    1078
   5 -15  12    2991    1887
   6 -14  12    3170    1337
   6 -14 -12    3165    1151
  -6  14  12    2944    1152
  -7  13  12    3508    1438
   7 -13 -12    2053     982
   7 -13  12      14    1266
  -8  12  12    2773    1277
   8 -12  12    2784    1350
   8 -12 -12    5581    1396
  -9  11  12   11824    2229
   9 -11 -12   14711    1994
   9 -11  12   12570    2623
  10 -10  12    6410    2211
 -10  10  12    7983    2214
 -11   9  12    8205    2210
  11  -9  12    5230    2005
 -12   8  12    7526    1881
  12  -8  12    4436    1783
 -13   7  12    3537    1478
  13  -7  12     476    1421
 -14   6  12    7583    2361
  14  -6  12    3940    1696
  15  -5  12    2174    1764
 -15   5  12    3136    1882
 -16   4  12      68    1526
  16  -4  12    1597    2040
 -17   3  12     287    1603
  17  -3  12       9    1892
  18  -2  12      11    2370
 -18   2  12      12    1817
   1 -19  13     108    1881
   1 -19 -13    1723    1315
   2 -18 -13      29    1007
   2 -18  13      30    1304
   3 -17 -13    1869    1109
   3 -17  13     965    1528
  -4  16  13    2557    1068
   4 -16 -13    2128    1108
   4 -16  13      43    1351
   5 -15 -13    1499    1075
   5 -15  13    1237    1521
  -5  15  13      32     842
  -6  14  13     545     912
   6 -14  13     118    1272
   6 -14 -13     217     812
   7 -13 -13     514     897
   7 -13  13     308    1126
  -7  13  13     803    1024
  -8  12  13      28     917
   8 -12 -13     246     895
   8 -12  13     137    1379
   9 -11  13     491    1408
  -9  11  13     206     750
  10 -10  13    1721    1428
 -10  10  13     263     937
 -11   9  13     593     884
  11  -9  13      12    1259
 -12   8  13    2029    1175
  12  -8  13     855    1216
 -13   7  13     106    1335
  13  -7  13     689    1497
  14  -6  13      37    1304
 -14   6  13      37    1286
 -15   5  13      44    1314
  15  -5  13     954    1462
  16  -4  13     867    1973
 -16   4  13     218    1479
 -17   3  13      44    1894
   2 -18  14     139    1945
   2 -18 -14     136    1309
   3 -17  14     148    1557
   3 -17 -14    9188    2125
   4 -16 -14    7330    1763
   4 -16  14    1608    1542
   5 -15 -14    6743    1680
  -5  15  14    2703    1378
   5 -15  14    6819    2024
   6 -14 -14    5003    1204
  -6  14  14    7162    1678
  -7  13  14    4058    1519
   7 -13 -14    2726    1183
   7 -13  14    5084    1713
  -8  12  14    3660    1486
   8 -12  14    3795    1830
  -9  11  14    3616    1343
   9 -11  14    2899    1767
 -10  10  14    3128    1556
  10 -10  14    3636    1841
  11  -9  14    2771    1885
 -11   9  14    4554    1730
 -12   8  14    6837    2034
  12  -8  14    3833    1678
 -13   7  14    6110    2180
  13  -7  14    4411    1841
 -14   6  14    4136    2023
  14  -6  14    1769    1881
 -15   5  14     452    1968
  15  -5  14    3732    1642
   3 -17 -15    2799    2108
   4 -16 -15    1361    1407
   4 -16  15    1653    1462
   5 -15 -15     542    1105
  -5  15  15    1204    1107
   5 -15  15      80    1218
   6 -14 -15    2026    1164
  -6  14  15    1994    1359
  -7  13  15    2312    1329
  -8  12  15     223     923
   8 -12  15     220    1400
   9 -11  15     480    1436
  -9  11  15      82    1028
 -10  10  15    1631    1372
  10 -10  15      15    1354
  11  -9  15    1152    1615
 -11   9  15    3782    1941
  12  -8  15     440    1594
 -12   8  15    1747    1369
 -13   7  15     930    1384
  13  -7  15    2743    1702
   4 -16 -16    2651    1936
   5 -15 -16    4342    1955
  -6  14  16    2432    1576
  -7  13  16    5416    1897
   8 -12  16     645    1946
  -8  12  16    4061    1496
  -9  11  16    6056    1963
   9 -11  16    2041    1991
  10 -10  16    2881    2085
 -10  10  16    4214    1878
  11  -9  16    3130    1726
   9 -11  17     274    3796
  -2 -24   0    5507    1480
  -1 -23   0   10576    1861
   1 -21   0   17273    2571
   2 -20   0   13245    2252
   3 -19   0   10064    2166
   4 -18   0    1091    1201
   5 -17   0    7454    1900
   6 -16   0     538    1046
   7 -15   0   20982    2587
   8 -14   0   11229    2318
   9 -13   0    6834    1926
  10 -12   0   10882    2086
  11 -11   0    4502    1653
  12 -10   0     480     923
 -13   9   0      13     607
  13  -9   0    2362    1007
  14  -8   0    1759     983
 -14   8   0     114     520
 -14   8   0    2659     842
 -15   7   0   15956    1939
 -15   7   0   12574    2116
  15  -7   0   13707    2535
 -16   6   0   14678    1954
  16  -6   0   10475    1914
 -16   6   0   10767    1637
  17  -5   0   12118    2062
  18  -4   0     264     746
 -18   4   0    2472     848
 -19   3   0    1367     624
 -20   2   0     102     603
 -21   1   0    1308     789
 -22   0   0     389     801
 -23  -1   0     482     844
  -3 -25  -1     156    1205
  -2 -24  -1     198     923
  -2 -24   1     250    1174
  -1 -23  -1    1387    1204
  -1 -23   1     474    1061
   1 -21   1    3422    1429
   1 -21  -1    2236    1168
   2 -20  -1     368     947
   2 -20   1    3385    1397
   3 -19   1    1308    1125
   3 -19  -1    4683    1483
   4 -18   1     254     945
   4 -18  -1    1217    1121
   5 -17   1    6230    1709
   5 -17  -1    5114    1727
   5 -17   1    5733    1789
   6 -16  -1     919    1045
   6 -16   1    3301    1159
   6 -16   1    2435    1159
   7 -15  -1    4563    1440
   7 -15   1    4548    1500
   8 -14  -1     121    1013
   8 -14   1    1052     950
   9 -13  -1    1975    1360
   9 -13   1    1259    1142
  10 -12  -1    2169    1192
  10 -12   1    3101    1243
  11 -11   1    2232    1309
 -11  11   1    2463    1146
  11 -11  -1    4105    1471
 -12  10   1    4289    1259
  12 -10  -1    5171    1560
  12 -10   1    4152    1561
 -13   9   1    1644     880
  13  -9   1     767    1031
  13  -9  -1    1424     981
 -14   8  -1     230     787
  14  -8   1     113     971
 -14   8   1     811     904
 -14   8   1    1544    1024
  14  -8  -1     293    1073
  15  -7  -1    5494    1304
  15  -7   1    3382    1234
 -15   7   1    4470    1072
 -15   7   1    3072     932
 -15   7  -1    6214    1351
  16  -6   1     229     995
 -16   6   1    2672     917
 -16   6  -1    1438     843
 -16   6   1     898     700
  16  -6  -1     957     971
 -16   6  -1    1209     851
 -17   5  -1    2529     915
  17  -5  -1     117     742
  17  -5   1    1544    1009
 -17   5   1    2678    1142
 -17   5   1    2301     848
 -18   4  -1     411     650
 -18   4   1     386     728
  18  -4   1     194     969
 -19   3   1     662     784
 -19   3  -1     237     759
 -20   2   1      81     548
 -20   2  -1    1098     761
 -21   1  -1     163     779
 -21   1   1      85     627
 -23  -1   1      10     735
 -23  -1  -1     363     681
  -3 -25  -2    2589    1318
  -2 -24  -2    3850    1187
  -1 -23  -2    4225    1424
  -1 -23   2    3230    1437
   0 -22   2    6583    1506
   0 -22  -2    5100    1351
   1 -21   2   10781    2271
   2 -20  -2   12164    2049
   2 -20   2   11851    2132
   2 -20   2   14290    2577
   3 -19   2   13634    2236
   3 -19   2   11664    1995
   3 -19  -2   13789    2193
   4 -18   2   16106    2749
   4 -18  -2   16922    2645
   4 -18   2   14766    2529
   5 -17   2   10491    1982
   5 -17   2    5771    1579
   5 -17  -2    8747    1870
   6 -16  -2   15189    2319
   6 -16   2   15537    2464
   6 -16   2   18291    2623
   7 -15   2   15117    2616
   7 -15  -2   10607    2357
   8 -14  -2   22904    2853
   8 -14   2   26327    3014
   9 -13   2   15179    2274
   9 -13  -2   15145    2232
  10 -12  -2   11250    2318
  10 -12   2   10361    2376
 -10  12   2    8364    2015
  11 -11   2    6098    1947
  11 -11  -2    6187    1854
 -11  11   2    4689    1551
  12 -10   2    8946    1949
  12 -10  -2    9901    1848
 -12  10   2    6020    1380
 -13   9   2   10495    1895
  13  -9  -2   12723    2109
  13  -9   2    9408    1999
 -14   8   2   14476    2298
  14  -8   2   10764    2351
 -14   8   2   13795    1907
  14  -8  -2   14163    2286
 -15   7  -2    7309    1498
  15  -7  -2    8079    1646
 -15   7   2   11819    1727
  15  -7   2    9440    1996
 -15   7   2    7606    1661
 -16   6  -2    2031     865
 -16   6   2    7602    1371
  16  -6  -2    1045     711
  16  -6   2    4508    1460
 -17   5   2    6443    1429
 -17   5   2    4015    1241
 -17   5  -2    3218    1073
  17  -5   2    3553    1417
  18  -4   2    5061    1573
 -18   4   2    1244     751
 -18   4  -2    4901    1007
 -19   3  -2    1355     732
 -19   3   2    2628     826
  19  -3   2    2324    1209
 -20   2   2    3598    1034
 -20   2  -2    1348     744
 -21   1  -2      16     547
 -22   0   2    1296     743
 -22   0  -2     363     621
 -23  -1   2    1331     967
 -23  -1  -2     718     837
  -4 -26  -3     506    1461
  -3 -25  -3     597    1145
  -2 -24  -3     444    1152
  -1 -23  -3    1285    1031
   1 -21   3    2148    1410
   1 -21   3     181     905
   1 -21  -3     797     954
   2 -20   3     290     959
   2 -20  -3     433    1009
   2 -20   3     290     842
   3 -19   3      72     879
   3 -19  -3    4949    1316
   3 -19   3    1136     989
   4 -18   3    2515     957
   4 -18   3    4742    1316
   4 -18  -3    6493    1590
   5 -17   3    1346    1073
   5 -17   3     366     842
   5 -17  -3    1432    1236
   6 -16  -3      60     858
   6 -16   3      62     818
   7 -15   3     566     899
   7 -15  -3     645    1004
   8 -14   3     106     979
   8 -14  -3     122    1073
  -9  13   3      24     672
   9 -13  -3     400    1022
   9 -13   3     608     927
  10 -12  -3     718     974
 -10  12   3     840     675
  10 -12   3     476     849
 -11  11   3      53     625
  11 -11  -3     660     983
  11 -11   3      89     850
 -12  10   3     593     615
  12 -10   3     586     808
  12 -10  -3     252    1016
 -13   9   3    1074     927
  13  -9  -3    1841    1169
  13  -9   3     198     951
  14  -8   3    3834    1480
  14  -8  -3    3265    1301
 -14   8   3    3233    1215
 -15   7  -3    1724     945
  15  -7  -3      36     695
  15  -7   3    1984    1258
 -15   7   3     810     854
 -16   6   3    1651     893
  16  -6   3     218    1093
 -16   6  -3     613     686
 -16   6   3    1498     928
  16  -6  -3    1148    1048
 -17   5   3     858     936
 -17   5  -3    1074     932
  17  -5   3     491    1333
 -17   5   3    1086     978
 -18   4  -3      39     542
 -18   4   3     501     816
 -18   4   3      46     819
  18  -4   3     538    1258
 -19   3   3     819     716
  19  -3   3      21    1193
 -19   3  -3      21     588
 -20   2   3     519     716
  20  -2   3     326    1337
 -20   2  -3     151     457
 -21   1   3     408     685
 -21   1  -3     748     617
 -23  -1   3      82     964
 -23  -1  -3      85     688
  -4 -26  -4    3125    1706
  -3 -25  -4    3259    1383
  -2 -24  -4     393     995
  -2 -24   4    1367    1326
  -1 -23  -4    3809    1239
  -1 -23   4    3789    1501
   0 -22   4    4433    1691
   0 -22   4    1510    1300
   1 -21   4    4381    1384
   1 -21  -4    3289    1188
   1 -21   4    3536    1467
   2 -20  -4    6952    1296
   2 -20   4    2067    1111
   2 -20   4    5355    1381
   3 -19   4   11917    2625
   3 -19  -4    8576    1890
   3 -19   4    9234    2015
   4 -18   4   13402    2213
   4 -18   4   11656    2296
   4 -18  -4   11702    2069
   5 -17  -4   22563    2652
   5 -17   4   17717    2401
   5 -17   4   20473    3007
   6 -16   4   14974    2527
   6 -16  -4   18765    2591
   7 -15  -4    9714    2219
   7 -15   4   10218    2259
  -8  14   4   11170    1853
   8 -14  -4   18298    2387
   8 -14   4   15130    2425
   9 -13   4   27628    3300
  -9  13   4   27740    2696
   9 -13  -4   28980    2724
  10 -12   4   18002    2957
  10 -12  -4   15930    2558
 -10  12   4   11335    2300
 -11  11   4   22200    2683
  11 -11   4   20155    2822
  11 -11  -4   18899    2429
 -12  10   4   15144    2264
  12 -10   4   13253    2285
  12 -10  -4   16599    2177
 -13   9   4    7584    2084
  13  -9   4   13871    2910
  13  -9  -4   14323    2376
  14  -8  -4     823     980
  14  -8   4    1826    1399
 -14   8   4      18     746
  15  -7  -4    3087    1061
 -15   7   4    2985    1053
  15  -7   4    4747    1671
  16  -6   4    3957    1407
 -16   6   4      92     803
 -16   6  -4    1085     692
 -17   5   4    2580    1105
  17  -5   4    3325    1550
 -17   5  -4     542     689
 -18   4   4    3195    1317
 -18   4  -4    1825     753
  18  -4   4    3502    1624
  19  -3   4    2015    1264
 -19   3  -4    1046     622
  20  -2   4    4254    1828
 -20   2   4    1107     948
 -20   2  -4     774     691
 -21   1   4    1019     897
 -21   1  -4     805     931
 -22   0   4     173     889
 -22   0  -4     437     790
 -23  -1   4     285    1114
  -4 -26  -5      77    1412
  -4 -26   5      73    2008
  -3 -25  -5    1041    1225
  -3 -25   5      27    1561
  -2 -24  -5     111     809
  -2 -24   5    1074    1395
  -1 -23  -5     117     872
  -1 -23   5      68    1188
   1 -21  -5     958     906
   1 -21   5      81     887
   1 -21   5     636    1138
   2 -20  -5     723     874
   2 -20   5     723     981
   2 -20   5      91    1112
   3 -19  -5    1387    1121
   3 -19   5     442    1095
   3 -19   5     767    1063
   4 -18  -5      56     920
   4 -18   5     586     960
   4 -18   5     869    1137
   5 -17   5    3130    1560
   5 -17   5    4270    1790
   5 -17  -5    4499    1594
   6 -16  -5    7469    1634
   6 -16   5    5469    1479
  -7  15   5     698     729
   7 -15  -5    2150    1216
   7 -15   5    1437    1306
   8 -14  -5    1308    1155
   8 -14   5     544     902
  -8  14   5     622     735
  -9  13   5    4217    1011
   9 -13   5    6888    1592
   9 -13  -5    5443    1311
  10 -12   5    1936    1382
  10 -12  -5    3062    1555
 -10  12   5    1703    1234
  11 -11   5    1852    1451
 -11  11   5    1590    1105
  11 -11  -5    1386    1192
 -12  10   5    2903    1434
  12 -10  -5    3196    1493
  12 -10   5    2790    1563
 -13   9   5    2619    1037
  13  -9   5    5395    1522
  13  -9  -5    5323    1333
  14  -8  -5      26     654
 -14   8   5     219     914
  14  -8   5     877    1352
  15  -7   5     127     959
 -15   7   5      19     692
 -16   6   5      23     772
  16  -6   5     611    1289
 -17   5   5     714     988
 -17   5  -5     619     607
  17  -5   5     334    1128
  18  -4   5     104    1190
 -18   4   5      73     855
 -18   4  -5      29     644
 -19   3  -5     240     701
 -19   3   5      79     875
  19  -3   5     140    1220
 -20   2  -5      11     611
  20  -2   5    1932    1843
  21  -1   5      45    1394
 -21   1  -5     654     810
  -4 -26   6    2775    2959
  -3 -25   6    5083    2013
  -3 -25  -6     875    1321
  -2 -24  -6    4927    1428
  -2 -24   6    6714    2212
  -1 -23  -6    2231    1099
  -1 -23   6    3974    1579
   0 -22   6    3955    1670
   0 -22  -6    3934    1138
   1 -21  -6    3875    1309
   1 -21   6    5276    2096
   2 -20   6    4236    1999
   2 -20  -6    8180    1750
   2 -20   6    8390    1940
   3 -19  -6   10590    1835
   3 -19   6   10218    2212
   3 -19   6   10130    1752
   4 -18  -6   27343    2851
   4 -18   6   22918    3849
   4 -18   6   27192    2833
   5 -17   6   17654    2502
   5 -17   6   14729    2798
   5 -17  -6   17039    2393
   6 -16  -6   27278    2777
   6 -16   6   27197    2915
  -6  16   6   32409    3027
   7 -15   6   25141    2998
   7 -15  -6   24302    2851
  -7  15   6   23360    2817
   8 -14   6    8080    1945
   8 -14  -6   10004    1964
  -8  14   6    8448    1745
   9 -13   6    8234    1964
  -9  13   6    6241    1585
   9 -13  -6    5506    1590
 -10  12   6   15285    2849
  10 -12   6   18770    3262
  10 -12  -6   17895    2670
  11 -11  -6   26580    2595
 -11  11   6   19854    2599
  11 -11   6   22699    3016
  12 -10   6   22041    3372
  12 -10  -6   25264    2383
 -12  10   6   23608    3084
 -13   9   6   10318    2124
  13  -9   6   10284    2581
  13  -9  -6    4789    1385
  14  -8   6   11198    2616
 -14   8   6    9654    2106
  14  -8  -6   11493    1907
 -15   7   6    3413    1226
  15  -7   6    3424    1593
  16  -6   6     966    1220
 -16   6   6     331     874
  17  -5   6    1055    1434
 -17   5   6     578    1113
  18  -4   6    2819    1535
 -18   4  -6     427     804
 -18   4   6     667    1133
 -19   3  -6    1949     896
  19  -3   6      72    1145
 -19   3   6    1060    1243
 -20   2  -6     764     807
  20  -2   6    1575    1813
  21  -1   6    3835    2028
 -21   1  -6    1304     817
 -22   0  -6    1928     949
  -3 -25   7     196    2205
  -2 -24   7     166    1291
  -2 -24  -7     169    1068
  -1 -23   7      12    1248
  -1 -23  -7    1356    1066
   1 -21   7     160    1158
   1 -21  -7     203     830
   2 -20  -7     708    1177
   2 -20   7    1420    1468
   2 -20   7     155    1237
   3 -19   7    4515    1336
   3 -19  -7    2516    1161
   3 -19   7    5692    1750
   4 -18   7    2199    1576
   4 -18  -7    1519    1396
   4 -18   7     443    1187
   5 -17   7    1646     967
   5 -17   7    1216    1178
  -5  17   7    1534     880
   5 -17  -7     800    1056
   6 -16   7    3647    1524
   6 -16  -7    4745    1613
   7 -15  -7     942     974
   7 -15   7    2995    1244
  -7  15   7     863     783
  -8  14   7    1087     845
   8 -14  -7     744     931
   8 -14   7    2592    1507
   9 -13  -7    1229    1098
  -9  13   7     867     827
   9 -13   7    2393    1358
  10 -12  -7     832     843
  10 -12   7     488     920
 -10  12   7    1116     708
  11 -11   7     641     989
 -11  11   7      98     801
  11 -11  -7      98     911
  12 -10  -7    1147     979
 -12  10   7     937    1012
  12 -10   7      16    1024
  13  -9   7    2358    1560
 -13   9   7    2220    1304
  13  -9  -7      50     662
  14  -8   7     663    1243
 -14   8   7      64     819
  15  -7   7    2101    1438
 -15   7   7     582     960
 -16   6   7     168     855
  16  -6   7     384    1436
 -17   5   7    1635    1207
  17  -5   7    1576    1330
 -18   4   7       7     966
  18  -4   7     679    1437
 -19   3  -7     618     539
  19  -3   7     380    1628
 -19   3   7     536    1506
 -20   2   7    1038    1183
 -20   2  -7     987     896
  20  -2   7     437    1651
 -21   1  -7     118     776
  21  -1   7     496    1893
  -2 -24   8    8539    3367
  -2 -24  -8    3863    1461
  -1 -23  -8    6959    1749
  -1 -23   8    5322    2256
   0 -22   8    3435    1666
   0 -22  -8    4254    1482
   1 -21   8    4849    2069
   1 -21  -8    2398    1104
   2 -20  -8   10580    1962
   2 -20   8   11534    2830
   3 -19   8    5262    1681
   3 -19  -8    4926    1582
   3 -19   8    5587    1629
   4 -18   8    4884    1749
   4 -18   8    2454    1704
   4 -18  -8    3940    1644
   5 -17   8    3896    1636
   5 -17   8    8578    1852
  -5  17   8    6378    1344
   5 -17  -8    9537    1892
   6 -16   8   11609    2132
  -6  16   8    8238    1677
   6 -16  -8    8768    1809
  -7  15   8    6070    1747
   7 -15  -8    8225    1927
   7 -15   8    6248    1884
   8 -14   8   24064    3010
  -8  14   8   23067    2927
   8 -14  -8   22159    2616
  -9  13   8   12820    2271
   9 -13  -8   18521    2420
   9 -13   8   17558    2874
  10 -12   8    6379    2078
  10 -12  -8   10175    1878
 -10  12   8    7510    1824
  11 -11   8    6112    1934
 -11  11   8    6434    1751
  11 -11  -8    5741    1408
 -12  10   8    6518    1998
  12 -10   8    3721    1723
  12 -10  -8    3369    1183
  13  -9   8    5903    1973
 -13   9   8    2768    1235
  14  -8   8    5924    1998
 -14   8   8    5046    1613
 -15   7   8    4503    1613
  15  -7   8    3677    1783
 -16   6   8    8382    1997
  16  -6   8    8768    2433
  17  -5   8    1548    1765
 -17   5   8    4335    1703
  18  -4   8    2718    1914
 -18   4   8    1664    1410
  19  -3   8     878    1646
 -19   3   8    1831    1233
 -20   2  -8     130     769
  20  -2   8     820    1830
 -20   2   8     567    1270
  21  -1   8    1537    2336
 -21   1  -8     219     815
  22   0   8     404    2932
  -2 -24   9     263    2331
  -1 -23  -9     336    1278
  -1 -23   9      57    1926
   1 -21  -9     103     967
   1 -21   9    1415    1471
   2 -20   9    2164    1620
   2 -20  -9     900    1130
   3 -19  -9    3579    1593
   3 -19   9    1532    1240
  -4  18   9    1537     993
   4 -18  -9    2227    1243
   4 -18   9      37     969
   4 -18   9    1999    1547
   5 -17   9    1542    1268
  -5  17   9      30     627
   5 -17   9      18    1136
   5 -17  -9     181    1038
   6 -16   9    2430    1292
   6 -16  -9    1363     904
  -6  16   9    1242     873
   7 -15  -9    1341     872
   7 -15   9      39     860
  -7  15   9    1045     705
   8 -14  -9    2057    1139
  -8  14   9    1958    1129
   8 -14   9    1960    1221
   9 -13  -9    6320    1467
  -9  13   9    5502    1408
   9 -13   9    2246    1228
 -10  12   9    1728     798
  10 -12   9    4962    1340
  10 -12  -9    4252    1100
  11 -11  -9    1039     915
  11 -11   9     583    1172
 -11  11   9     971    1051
  12 -10   9     995    1230
  12 -10  -9     329     562
 -12  10   9     329     842
  13  -9   9     673    1236
 -13   9   9    1638    1014
  14  -8   9    1753    1558
 -14   8   9     369     982
  15  -7   9     122    1444
 -15   7   9    2226    1329
  16  -6   9    1080    1643
 -16   6   9    1064    1298
 -17   5   9     771    1057
  17  -5   9      28    1577
  18  -4   9    2099    2077
 -18   4   9      19    1077
  19  -3   9     123    1806
 -19   3   9    1719    1427
 -20   2   9     123    1235
  20  -2   9     613    2469
  21  -1   9     152    2767
 -21   1   9     499    1699
  -1 -23  10    1419    2735
   0 -22  10     719    1906
   0 -22 -10    5574    1851
   1 -21 -10     151    1170
   1 -21  10    5751    1993
   2 -20  10    3151    2020
   2 -20 -10    2269    1431
   3 -19  10    4921    2052
   3 -19 -10    2757    1286
   4 -18 -10    9612    2136
   4 -18  10    3028    1603
  -4  18  10    7478    1713
   5 -17 -10    8762    2125
   5 -17  10    3839    1561
   5 -17  10    4413    1862
  -5  17  10    5262    1591
   6 -16  10    8343    2108
  -6  16  10    4710    1412
   6 -16 -10    7045    1732
   7 -15  10    5925    1461
  -7  15  10    7452    1496
   7 -15 -10    6166    1301
   8 -14 -10    6463    1477
  -8  14  10    6249    1598
   8 -14  10    6640    1737
   9 -13  10    6858    1854
  -9  13  10    5171    1480
   9 -13 -10    4971    1271
  10 -12 -10    4953    1397
 -10  12  10    4539    1561
  10 -12  10    2040    1495
 -11  11  10    9978    2420
  11 -11  10    5908    2272
  11 -11 -10    6868    1738
  12 -10  10    8250    2274
 -12  10  10    8340    2002
  13  -9  10    7581    2309
 -13   9  10    3798    1617
 -14   8  10    8775    2399
  14  -8  10    4373    1989
  15  -7  10    2566    1918
 -15   7  10    3931    1639
 -16   6  10    5022    1811
  16  -6  10    6614    2485
  17  -5  10    4833    2262
 -17   5  10    3487    1678
 -18   4  10    3667    1594
  18  -4  10    1255    1785
 -19   3  10    3113    1652
  19  -3  10     364    2207
  20  -2  10     284    2906
 -20   2  10     240    1674
   1 -21  11     220    1769
   1 -21 -11      86    1259
   2 -20  11     151    1643
   2 -20 -11     367    1165
   3 -19 -11     378    1060
   3 -19  11     185    1342
   4 -18 -11    1009    1516
  -4  18  11    1251    1036
   4 -18  11      26    1083
  -5  17  11    1966    1019
   5 -17  11    1390    1080
   5 -17  11      70    1177
   5 -17 -11     339     727
  -6  16  11    1104     904
   6 -16  11    1680    1138
   6 -16 -11      42     936
   7 -15  11    1745    1259
   7 -15 -11    1695    1154
  -7  15  11     813     871
   8 -14 -11    2095    1029
   8 -14  11    1795    1322
  -8  14  11    2107     884
   9 -13  11     310    1235
  -9  13  11     582     954
   9 -13 -11      20     834
 -10  12  11    5433    1651
  10 -12 -11    2632    1306
  10 -12  11    1855    1407
 -11  11  11      80     851
  11 -11  11     429    1222
 -12  10  11     851    1106
  12 -10  11    1323    1595
 -13   9  11    3743    1943
  13  -9  11    3435    1907
 -14   8  11     443    1088
  14  -8  11      41     986
  15  -7  11    1193    1382
 -15   7  11     266    1255
 -16   6  11    1976    1538
  16  -6  11      90    1639
 -17   5  11    1304    1488
  17  -5  11     127    1714
  18  -4  11     472    1901
 -18   4  11      68    1632
 -19   3  11      94    1870
   1 -21  12     923    2286
   2 -20 -12      32    1095
   2 -20  12     365    1935
   3 -19  12     145    1445
   3 -19 -12     546     905
   4 -18  12    1285    1751
  -4  18  12    6785    1787
   4 -18 -12    3452    1642
   5 -17  12    3105    2165
   5 -17 -12    1919    1217
   6 -16  12    7556    1762
   6 -16 -12    6428    1381
   6 -16  12    3040    1588
  -6  16  12   11672    1971
   7 -15  12    5562    1564
   7 -15 -12    3185    1068
  -7  15  12    3467    1313
  -8  14  12    5925    1839
   8 -14 -12    3940    1331
   8 -14  12    2554    1677
   9 -13 -12    2870     970
  -9  13  12    6971    1773
   9 -13  12     865    1468
 -10  12  12    5179    1602
  10 -12  12    7395    2013
 -11  11  12    1168     943
  11 -11  12    2243    1346
  12 -10  12    1068    1533
 -12  10  12    3983    1306
 -13   9  12    2787    1490
  13  -9  12    2392    1600
 -14   8  12    1308    1595
  14  -8  12    1638    1668
  15  -7  12    4637    1994
 -15   7  12      11    1214
  16  -6  12      33    1661
 -16   6  12      31    1329
 -17   5  12       5    1601
  17  -5  12     747    1995
 -18   4  12      58    2202
   3 -19 -13     815    1329
   3 -19  13    1038    2006
   4 -18  13      10    1453
   4 -18 -13     336     990
  -5  17  13     902     925
   5 -17 -13     102     916
   5 -17  13     100    1288
  -6  16  13    2120    1134
   6 -16 -13      38     847
   6 -16  13      40    1545
   7 -15 -13      35     816
  -7  15  13     518     909
   7 -15  13      33    1195
  -8  14  13     446     979
   8 -14 -13      98     851
   8 -14  13    1003    1328
   9 -13 -13      33     885
   9 -13  13      85    1175
  -9  13  13     352     893
  10 -12  13     723    1322
 -10  12  13     134    1019
 -11  11  13     374    1092
  11 -11  13     633    1155
 -12  10  13     411    1141
  12 -10  13    1442    1619
  13  -9  13    2726    1645
 -13   9  13    2125    1218
  14  -8  13    1120    1469
 -14   8  13       2    1237
 -15   7  13      31    1412
  15  -7  13    2261    1490
 -16   6  13     340    2026
  16  -6  13     929    1686
   4 -18 -14    5872    2351
   5 -17  14     519    1860
  -5  17  14    6115    1766
   5 -17 -14    8652    1869
   6 -16 -14    5599    1597
  -6  16  14    6973    1722
   7 -15 -14    4057    1535
  -7  15  14    3294    1497
   8 -14 -14    4127    1462
  -8  14  14    2811    1529
   8 -14  14    3722    1839
  -9  13  14    2370    1145
   9 -13  14    2707    1614
  10 -12  14    1495    1856
 -10  12  14    3464    1582
 -11  11  14    4523    1633
  11 -11  14    3466    1811
  12 -10  14    2622    1447
 -12  10  14    5536    2050
 -13   9  14    6151    1924
  13  -9  14    3753    1986
  14  -8  14    2125    1730
 -14   8  14    3740    1813
   5 -17 -15      70    1473
   6 -16 -15      74    1269
  -6  16  15    1102    1526
  -7  15  15      19    1082
   7 -15 -15    2143    1270
  -8  14  15    2618    1371
   8 -14  15     295    1743
   9 -13  15     698    1557
  -9  13  15     304     891
  10 -12  15     464    1576
 -10  12  15      56    1097
 -11  11  15    1955    1371
  11 -11  15     156    1638
  12 -10  15      47    1408
 -12  10  15     457    1397
   9 -13  16     277    2648
  10 -12  16    2588    2123
  -1 -25   0    2019    1472
   0 -24   0    5013    1409
   2 -22   0   15191    2258
   3 -21   0    7404    1875
   4 -20   0    9763    1713
   5 -19   0    1292    1301
   6 -18   0   16069    2261
   7 -17   0   10248    1384
   8 -16   0   31985    3087
   9 -15   0    9430    1970
  10 -14   0   10625    2057
  11 -13   0    7376    2170
  12 -12   0    5389    1503
  13 -11   0    8123    1555
  14 -10   0    8430    1722
 -15   9   0    6700    1442
  15  -9   0    9097    1824
 -16   8   0   14341    2134
  16  -8   0   11290    2176
 -16   8   0   13507    2087
 -17   7   0    6095    1639
  17  -7   0    4797    1617
 -18   6   0    3898    1151
  18  -6   0    5960    1560
 -19   5   0    2593    1022
 -20   4   0    1737     841
 -21   3   0     733     743
 -22   2   0    1490     738
 -23   1   0     234     739
  -2 -26  -1     132    1241
  -1 -25   1    1091    1193
  -1 -25  -1     325    1017
   1 -23   1      25    1067
   1 -23  -1    1643    1195
   2 -22   1     198     989
   2 -22  -1    2480    1150
   3 -21   1    1204    1149
   3 -21  -1    2144    1233
   4 -20  -1     651    1102
   4 -20   1    1128    1042
   5 -19  -1    2836    1591
   5 -19   1    4218    1723
   6 -18   1    1669    1123
   6 -18  -1    2287     966
   7 -17   1    1155    1142
   7 -17  -1     686    1212
   8 -16  -1    3441    1456
   8 -16   1    1925    1208
   9 -15   1    1658    1252
   9 -15  -1     515    1048
  10 -14   1     896    1046
  10 -14  -1    1470    1176
  11 -13  -1    1667    1256
  11 -13   1     259     974
  12 -12   1      87    1090
  12 -12  -1     109    1120
 -13  11   1    1942    1109
  13 -11  -1    1845    1225
  13 -11   1    3848    1427
  14 -10   1    2398    1358
 -14  10   1    1802    1060
  14 -10  -1    1995    1255
 -15   9   1     575     777
  15  -9  -1     432    1066
 -15   9   1    1335     916
  15  -9   1    1284    1122
 -16   8  -1    2543    1051
 -16   8   1    4289    1364
  16  -8  -1    3007    1525
  16  -8   1    3112    1445
 -16   8   1    3934    1097
 -17   7   1      15     827
 -17   7  -1      15     657
  17  -7  -1     697     971
 -17   7   1      15     589
  17  -7   1      15     933
  18  -6  -1    1039     874
 -18   6   1    1491     977
  18  -6   1     721    1148
 -18   6  -1    3481     990
 -19   5  -1    2253     820
  19  -5   1    2789    1204
 -19   5   1     407     686
 -20   4   1     762     754
 -20   4  -1     226     648
 -21   3   1     241     767
 -21   3  -1      42     525
 -22   2  -1     820     930
 -22   2   1      74     780
 -23   1  -1     362     815
 -23   1   1    1091     832
  -2 -26  -2    4853    1485
  -1 -25  -2   18992    3509
   0 -24  -2    3938    1245
   0 -24   2    7645    1627
   1 -23  -2    5216    1601
   1 -23   2    3637    1570
   2 -22  -2    3777    1371
   2 -22   2    4597    1522
   3 -21   2    8757    1820
   3 -21  -2    6141    1425
   4 -20   2    8941    1805
   4 -20  -2   12509    2128
   5 -19   2   11543    2097
   5 -19  -2   12699    2243
   6 -18   2    5209    1487
   6 -18   2    3999    1345
   6 -18  -2    6809    1688
   7 -17   2   10060    1990
   7 -17   2    6784    1547
   7 -17  -2    9373    1907
   8 -16   2    9444    2061
   8 -16  -2    7555    1935
   9 -15  -2   12334    2130
   9 -15   2   10373    1948
  10 -14   2   16349    2497
  10 -14  -2   10967    2080
  11 -13  -2   18484    2736
  11 -13   2   16018    2753
  12 -12   2    6432    1684
  12 -12  -2   10078    2017
 -12  12   2    6234    1495
  13 -11  -2    7367    1532
  13 -11   2    3889    1295
 -13  11   2    4294    1059
  14 -10  -2    6225    1749
 -14  10   2    7705    1820
  14 -10   2    6043    1780
  15  -9  -2    4912    1239
 -15   9   2    7422    1405
  15  -9   2    4909    1468
  16  -8   2    8595    1920
 -16   8   2   10180    1700
  16  -8  -2    6081    1405
 -17   7   2    4520    1306
  17  -7  -2    1527    1144
  17  -7   2    2560    1304
 -17   7  -2    3361    1099
  18  -6   2    1968    1317
 -18   6  -2    2454     958
 -18   6   2    4432    1437
 -18   6   2    4038    1290
  19  -5   2     764    1198
 -19   5   2    4264    1227
 -19   5  -2     744     710
 -20   4   2    1723     874
  20  -4   2     643    1234
 -20   4  -2    1536     854
 -21   3   2    1224     815
 -21   3  -2     527     602
 -22   2  -2      10     527
 -22   2   2     366     780
 -23   1   2      42     811
 -23   1  -2     302     623
  -3 -27  -3    1319    1844
  -2 -26  -3    1071    1179
  -1 -25  -3     291    1171
   1 -23   3     429    1264
   1 -23  -3    1115     981
   2 -22  -3     283     954
   2 -22   3    1650    1473
   3 -21   3    1892    1072
   3 -21  -3    1808    1101
   4 -20   3     235     982
   4 -20   3     697     802
   4 -20  -3    1253    1078
   5 -19   3    1793     872
   5 -19  -3     826    1073
   5 -19   3    4228    1186
   6 -18   3    9573    2565
   6 -18   3      49     930
   7 -17   3     926    1077
   7 -17  -3    1682    1216
   8 -16  -3    1299    1175
   8 -16   3    1947    1228
   9 -15  -3      24     969
   9 -15   3     279    1026
  10 -14   3     706     932
 -10  14   3     249     744
  10 -14  -3    1822    1101
 -11  13   3     752     756
  11 -13   3     929    1030
  11 -13  -3    1234    1093
  12 -12  -3     137     915
 -12  12   3     197     822
  12 -12   3    1127    1197
  13 -11   3      51     960
  13 -11  -3     112     927
 -13  11   3     112     548
  14 -10  -3     344    1020
  14 -10   3     504    1026
 -14  10   3     822     918
 -15   9   3    1761    1039
  15  -9   3     693    1004
  15  -9  -3     834     957
  16  -8  -3      19    1051
 -16   8   3    1427     967
  16  -8   3      19     937
 -17   7   3    1027     927
  17  -7   3      59    1013
 -17   7  -3      59     682
  18  -6   3     422    1053
 -18   6   3     128     831
 -18   6  -3     336     669
 -19   5  -3     237     755
  19  -5   3      86     963
  20  -4   3      53    1108
 -20   4  -3     205     675
 -21   3  -3     117     653
 -22   2  -3     381     816
 -23   1  -3     426     853
  -2 -26  -4    4248    1539
  -1 -25  -4    3243    1423
   1 -23  -4    2346    1112
   1 -23   4    6288    1751
   2 -22   4    6070    1832
   2 -22  -4    4212    1421
   2 -22   4    5424    2070
   3 -21  -4    9069    1818
   3 -21   4    6233    1731
   3 -21   4    9373    2499
   4 -20  -4   10941    1899
   4 -20   4   14744    2787
   4 -20   4   13167    2181
   5 -19  -4   15119    2581
   5 -19   4   11983    2364
   5 -19   4   13469    2900
   6 -18   4   16195    2427
   6 -18  -4   21203    2836
   6 -18   4   18035    3060
   7 -17   4   12716    2343
   7 -17  -4   17809    2590
   8 -16   4    8167    2008
   8 -16  -4    6708    1898
   9 -15  -4    8782    1470
  -9  15   4   10618    1546
 -10  14   4   12011    1832
  10 -14   4   15507    2296
  10 -14  -4   16792    2149
 -11  13   4    7198    1587
  11 -13   4   11705    2307
  11 -13  -4    7839    1748
 -12  12   4   15115    2102
  12 -12  -4   17286    2212
  12 -12   4   15086    2420
 -13  11   4   19928    2760
  13 -11   4   24936    3315
  13 -11  -4   23699    2454
 -14  10   4   15367    2539
  14 -10  -4   17037    2379
  14 -10   4   14034    2712
  15  -9  -4    5877    1445
  15  -9   4    6016    1775
 -15   9   4    6484    1487
  16  -8   4    6320    1623
 -16   8   4    5001    1366
  17  -7   4    1014    1209
 -17   7   4     408     979
 -18   6   4    3363    1154
 -18   6  -4    2457     892
  18  -6   4    2006    1290
 -19   5   4     932     971
  19  -5   4    1539    1469
 -19   5  -4     633     641
  20  -4   4    2953    1801
  21  -3   4    2564    1458
 -21   3  -4    1139     746
 -22   2  -4    1234     775
  -2 -26  -5     273    1309
  -1 -25  -5     130     942
   1 -23   5     326    1310
   1 -23  -5     719     998
   2 -22  -5     124     828
   2 -22   5    2525    1450
   2 -22   5    1342    1231
   3 -21   5    1270    1245
   3 -21  -5    1754    1090
   3 -21   5    4835    1744
   4 -20   5      94     882
   4 -20   5     341     921
   4 -20  -5      42     977
   5 -19  -5    2358    1396
   5 -19   5    2460    1335
   5 -19   5    1577    1046
   6 -18  -5    5745    1716
   6 -18   5    3916    1426
   6 -18   5    4059    1824
   7 -17  -5    4881    1646
   7 -17   5    5020    1535
  -8  16   5    2760    1193
   8 -16  -5    2729    1384
   8 -16   5    2634    1413
   9 -15  -5    1728    1293
  -9  15   5    1504     927
   9 -15   5    2323    1254
  10 -14  -5     810    1088
 -10  14   5     999     909
  10 -14   5     944    1143
  11 -13  -5    3261    1643
  11 -13   5    2851    1579
 -11  13   5    3077    1458
  12 -12  -5     493     966
 -12  12   5     312     742
  12 -12   5      36    1050
 -13  11   5     687     905
  13 -11   5    1568    1334
  13 -11  -5    2696    1261
 -14  10   5     600     860
  14 -10   5    2356    1486
  14 -10  -5    1340    1036
 -15   9   5     847    1010
  15  -9   5     244    1257
  15  -9  -5     100     835
  16  -8   5       1     940
 -16   8   5       1     737
  17  -7   5     256    1302
 -17   7   5     336     967
  18  -6   5     853    1435
 -18   6   5      31     968
  19  -5   5    1090    1398
 -19   5  -5      32     611
 -19   5   5     905    1098
  20  -4   5    2154    1537
 -20   4  -5     373     655
 -21   3  -5     759     948
  21  -3   5     458    1491
 -22   2  -5     107     511
  -2 -26   6    3799    2881
  -1 -25   6    3092    1999
  -1 -25  -6    3050    1328
   0 -24  -6    1217    1015
   0 -24   6    1233    1376
   1 -23   6    4606    1828
   1 -23  -6     462    1004
   2 -22   6    2370    1659
   2 -22  -6    2715    1119
   3 -21  -6    4507    1358
   3 -21   6    6022    1552
   3 -21   6    3474    1604
   4 -20   6   10131    2445
   4 -20   6    9786    2217
   4 -20  -6   13759    2377
   5 -19   6   10761    2440
   5 -19  -6   18647    3049
   5 -19   6   15337    3509
   6 -18  -6    8494    1844
   6 -18   6    9450    1808
   6 -18   6    6716    1859
   7 -17   6   10666    2165
   7 -17  -6   17950    2724
   8 -16  -6   12375    2189
  -8  16   6    9113    1721
   8 -16   6    4451    1467
  -9  15   6    7937    1419
   9 -15  -6    6500    1292
   9 -15   6    4271    1273
 -10  14   6    5964    1008
  10 -14  -6    6775    1404
  10 -14   6    9419    1799
  11 -13  -6   13705    2050
 -11  13   6   11439    1869
  11 -13   6   10737    1920
  12 -12  -6   15183    2195
  12 -12   6   10647    2217
 -12  12   6   12739    2238
 -13  11   6    7242    1754
  13 -11  -6    6267    1582
  13 -11   6   10723    2394
 -14  10   6    5768    1593
  14 -10  -6    5324    1564
  14 -10   6    4774    1843
 -15   9   6    3943    1383
  15  -9   6    4476    1573
 -16   8   6     563     992
  16  -8   6    1006    1356
 -17   7   6     900     921
  17  -7   6    3354    1406
 -18   6   6    1166    1069
  18  -6   6    1871    1441
  19  -5   6    1679    1548
 -19   5   6    2360    1232
  20  -4   6    4587    1501
 -20   4   6      96    1052
 -20   4  -6    1420     901
  21  -3   6      20    1446
 -21   3  -6     158     657
  22  -2   6      18    1619
 -22   2  -6      18     619
  -1 -25   7      56    1832
   1 -23  -7    1844    1024
   1 -23   7      15    1203
   2 -22   7     116    1162
   2 -22  -7     326    1036
   3 -21  -7     224     841
   3 -21   7     228    1021
   3 -21   7     228    1146
   4 -20   7      98    1048
   4 -20  -7     862    1387
   4 -20   7    2418    1493
   5 -19   7    1187    1213
   5 -19   7     360    1192
   5 -19  -7      83    1108
   6 -18   7    1072    1082
   6 -18  -7     558    1168
   6 -18   7    1194    1320
  -7  17   7    2841     759
   7 -17   7    3629    1265
   7 -17  -7    2927    1105
   8 -16  -7     343    1060
  -8  16   7     328     693
   8 -16   7     434     913
  -9  15   7     161     761
   9 -15  -7     161     775
   9 -15   7    1611    1064
 -10  14   7     354     710
  10 -14   7     367     849
  10 -14  -7     354     879
 -11  13   7    7152    1611
  11 -13  -7   10006    1740
  11 -13   7    3136    1292
 -12  12   7    2798    1147
  12 -12  -7    3698    1323
  12 -12   7    2970    1335
  13 -11  -7      67     883
 -13  11   7     914     856
  13 -11   7      65    1062
  14 -10  -7      16     622
 -14  10   7     381     904
  14 -10   7      20    1213
  15  -9   7      80    1209
 -15   9   7    1978    1059
  16  -8   7     331    1249
 -16   8   7     871     995
  17  -7   7     880    1273
 -17   7   7      53     810
  18  -6   7     268    1370
 -18   6   7     734    1133
  19  -5   7     239    1452
 -19   5   7     661    1188
 -20   4   7     947    1391
  20  -4   7    1486    1808
 -21   3  -7      43     908
  21  -3   7      43    1642
  22  -2   7      54    1999
  -1 -25   8    1631    2740
   0 -24   8    3149    1929
   0 -24  -8    3938    1506
   1 -23  -8    6709    1655
   1 -23   8    6639    2342
   2 -22   8    8809    2639
   2 -22  -8    4184    1480
   3 -21   8    5793    2384
   3 -21  -8    7684    1936
   4 -20   8    5492    1859
   4 -20   8    7194    2154
   4 -20  -8    5701    1735
   5 -19  -8    9289    2262
   5 -19   8    4865    2124
   5 -19   8    6441    1787
   6 -18  -8    8572    1888
  -6  18   8    7009    1620
   6 -18   8    6437    1585
   6 -18   8    8129    2237
  -7  17   8    7063    1532
   7 -17   8    7817    1808
   7 -17  -8    8944    1873
  -8  16   8    7541    1698
   8 -16   8    7941    1856
   8 -16  -8    6704    1695
  -9  15   8   10794    1808
   9 -15   8   11781    2106
   9 -15  -8   12930    1939
  10 -14   8   10708    2006
  10 -14  -8   10657    1801
 -10  14   8    7918    1643
 -11  13   8    4530    1271
  11 -13   8    3337    1197
  11 -13  -8    5222    1278
 -12  12   8    2643    1373
  12 -12  -8    2082    1156
  12 -12   8    2065    1318
  13 -11   8    1587    1354
  13 -11  -8    2341    1067
 -13  11   8      36     875
  14 -10   8    2725    1756
 -14  10   8    1066    1149
  15  -9   8     823    1457
 -15   9   8    3344    1565
 -16   8   8    4676    1793
  16  -8   8    6766    2315
 -17   7   8    2995    1499
  17  -7   8    4502    1996
 -18   6   8    1347    1427
  18  -6   8     836    1643
 -19   5   8    2568    1304
  19  -5   8     704    1575
  20  -4   8    2317    2090
 -20   4   8    1396    1355
  21  -3   8     159    2317
 -21   3   8     217    1284
   1 -23   9      52    1410
   1 -23  -9     931    1128
   2 -22  -9     261    1003
   2 -22   9    1360    1569
   3 -21  -9    1012    1349
   3 -21   9    1629    1690
   4 -20  -9     273    1142
   4 -20   9     157    1323
   5 -19  -9     188    1199
   5 -19   9     244    1203
   5 -19   9     756    1197
   6 -18   9     334    1201
   6 -18  -9     647    1126
   6 -18   9     430    1081
  -6  18   9     417     674
   7 -17   9    1695    1395
  -7  17   9    1428    1146
   7 -17  -9    2627    1381
   8 -16   9     830    1150
   8 -16  -9    1745    1019
  -8  16   9    1219     818
   9 -15  -9    4513    1547
   9 -15   9    3304    1477
  -9  15   9    2190    1179
  10 -14   9    3440    1333
 -10  14   9    3256    1016
  10 -14  -9    6263    1478
  11 -13   9    1304    1156
  11 -13  -9    1078    1089
 -11  13   9    2611    1318
  12 -12  -9     560     783
 -12  12   9     148     537
  12 -12   9     458    1121
 -13  11   9    1367    1047
  13 -11   9      18    1144
  14 -10   9    1294    1277
 -14  10   9    1079    1196
 -15   9   9    2949    1435
  15  -9   9    4239    1986
  16  -8   9      23    1368
 -16   8   9    1201    1438
 -17   7   9    1761    1401
  17  -7   9      20    1634
 -18   6   9     187    1107
  18  -6   9    1596    1997
  19  -5   9      93    1761
 -19   5   9     662    1543
  20  -4   9     144    2205
 -20   4   9     669    1662
 -21   3   9     275    1816
   1 -23  10    4932    3093
   2 -22  10    4966    2544
   2 -22 -10    1788    1566
   3 -21 -10     498     905
   3 -21  10    4973    2176
   4 -20  10    4589    2218
   4 -20 -10    3826    1711
   5 -19 -10    6021    2008
   5 -19  10    5698    1966
   5 -19  10    5852    2501
  -5  19  10    5025    1695
   6 -18  10    5324    1543
   6 -18 -10    4970    1545
   6 -18  10    3027    1679
  -6  18  10    2994    1076
   7 -17 -10    3535    1324
  -7  17  10    3552    1203
   7 -17  10    3113    1243
   8 -16 -10    6748    1755
   8 -16  10    1622    1292
  -8  16  10    5329    1409
   9 -15  10    4736    1734
   9 -15 -10    6593    1700
  -9  15  10    4290    1626
  10 -14 -10    4780    1423
  10 -14  10    5044    1669
 -10  14  10    3064    1207
  11 -13 -10    9545    1865
 -11  13  10    3857    1363
  11 -13  10    6351    1974
 -12  12  10    2042    1035
  12 -12  10    2450    1407
  12 -12 -10    4522    1326
 -13  11  10    2900    1344
  13 -11  10    1772    1373
  14 -10  10     495    1079
 -14  10  10    2238    1397
 -15   9  10     607    1204
  15  -9  10    2416    1448
  16  -8  10     284    1680
 -16   8  10     959    1156
  17  -7  10     779    1686
 -17   7  10    5578    2332
  18  -6  10      36    1949
 -18   6  10    1313    1739
 -19   5  10    2412    1941
  19  -5  10      66    2096
 -20   4  10     991    2067
   2 -22  11     112    2243
   3 -21 -11      23    1238
   3 -21  11      24    1648
   4 -20 -11     306     901
   4 -20  11      14    1472
   5 -19 -11     136     904
   5 -19  11    2114    1927
  -5  19  11    2793    1265
   6 -18 -11    1797    1326
   6 -18  11     188    1163
  -6  18  11     523     892
   6 -18  11     173    1279
   7 -17 -11    1383    1114
   7 -17  11       6    1014
  -7  17  11       8     857
  -8  16  11     524     925
   8 -16  11     463    1163
   8 -16 -11    1074    1174
   9 -15  11    1120    1272
  -9  15  11    1601    1073
   9 -15 -11     788     968
  10 -14 -11     975    1036
  10 -14  11     178    1139
 -10  14  11     833     892
  11 -13 -11     832     845
 -11  13  11    1841    1009
  11 -13  11      33    1082
 -12  12  11      20     689
  12 -12  11     357    1297
  13 -11  11     781    1385
 -13  11  11     461    1008
 -14  10  11     182    1080
  14 -10  11     177    1114
  15  -9  11    1794    1664
 -15   9  11      22    1093
 -16   8  11     207    1218
  16  -8  11      44    1733
 -17   7  11     200    1528
  17  -7  11     211    1657
 -18   6  11     106    1860
  18  -6  11       3    2503
   4 -20  12    1343    1926
   4 -20 -12      27    1185
  -5  19  12    1257    1405
   5 -19  12     456    1468
   5 -19 -12     644    1192
  -6  18  12    2278    1229
   6 -18 -12    3281    1380
   6 -18  12      86    1594
   7 -17  12    2335    1408
  -7  17  12    4777    1639
   7 -17  12      87    1335
   7 -17 -12    1280    1066
   8 -16  12    1116    1279
  -8  16  12    3772    1521
   8 -16 -12    1992     970
  -9  15  12    4517    1457
   9 -15  12    1380    1480
   9 -15 -12    7134    1674
  10 -14 -12    3008    1212
  10 -14  12    2157    1478
 -10  14  12    1493    1128
  11 -13  12     794    1380
 -11  13  12    4170    1694
 -12  12  12    3104    1442
  12 -12  12    2783    1456
 -13  11  12    3149    1461
  13 -11  12    4347    2094
  14 -10  12    4943    1740
 -14  10  12    1263    1388
 -15   9  12      82    1354
  15  -9  12    2030    1730
 -16   8  12       5    1792
  16  -8  12    2391    1665
 -17   7  12     123    1881
   5 -19 -13     738    1553
   5 -19  13      39    1961
  -5  19  13     535    1340
   6 -18 -13    2733    1489
  -6  18  13     470    1119
   6 -18  13     303    2065
   7 -17  13      74    1283
   7 -17 -13      70    1009
  -7  17  13    2705    1139
   8 -16 -13     152     958
  -8  16  13     152     962
   8 -16  13     555    1350
   9 -15  13     108    1294
  -9  15  13     105     962
   9 -15 -13    1207     896
  10 -14  13      24    1309
 -10  14  13     364    1027
 -11  13  13    1334     937
  11 -13  13     133    1210
  12 -12  13     292    1270
 -12  12  13     271    1042
  13 -11  13     131    1393
 -13  11  13    1449    1102
  14 -10  13     435    1390
 -14  10  13      39    1195
  15  -9  13     907    1511
 -15   9  13      60    1867
  -6  18  14    1089    1864
   6 -18 -14    2292    1914
   7 -17 -14    3566    1770
  -7  17  14    1161    1340
   8 -16  14      60    1634
  -8  16  14    2951    1330
   8 -16 -14    1349    1070
  -9  15  14     568    1171
   9 -15  14     256    1587
 -10  14  14    3551    1640
  10 -14  14    2478    1666
 -11  13  14    2363    1322
  11 -13  14     183    1599
 -12  12  14    4725    1852
  12 -12  14    4440    1826
  13 -11  14    2355    1861
   9 -15  15      64    2335
  10 -14  15     641    1939
  11 -13  15      92    1519
   0 -26   0    2997    1384
   2 -24   0    3130    1227
   3 -23   0   10399    1880
   4 -22   0    6036    1627
   5 -21   0    7864    2101
   6 -20   0    1275    1306
   7 -19   0    1926    1256
   8 -18   0    1026    1163
   9 -17   0    7260    2164
  10 -16   0    4292    1717
  11 -15   0   13202    2385
  12 -14   0     230    1122
  13 -13   0      40     982
  14 -12   0    3608    1396
  15 -11   0    6631    2208
  16 -10   0    3632    1453
  17  -9   0    6361    1811
  18  -8   0    2735    1155
 -18   8   0    3660    1112
  19  -7   0    1798    1129
 -19   7   0    3187     960
 -20   6   0    1444    1013
 -21   5   0     629     691
 -22   4   0     710     903
 -23   3   0    1513    1025
 -24   2   0      51    1029
  -1 -27  -1    1437    1792
   1 -25  -1     441    1070
   1 -25   1     577    1341
   2 -24   1     482    1177
   2 -24  -1     397    1011
   3 -23   1    1465    1121
   3 -23  -1    2331    1218
   4 -22   1    2093    1450
   4 -22  -1    1517    1351
   5 -21   1     923    1088
   5 -21  -1     239    1254
   6 -20   1      11     942
   6 -20  -1     206     904
   7 -19   1     318     808
   7 -19  -1    1136    1275
   8 -18  -1     464     905
   8 -18   1     221    1033
   9 -17   1    6550    1866
   9 -17  -1    6608    2017
  10 -16  -1    5843    2048
  10 -16   1    6735    2058
  11 -15  -1    8750    2321
  11 -15   1   10484    2506
  12 -14  -1    1231    1179
  12 -14   1    3694    1289
  13 -13   1      21    1016
  13 -13  -1     622    1129
  14 -12  -1     197     819
  14 -12   1     195     922
  15 -11  -1     124     796
 -15  11   1    2835    1000
  15 -11   1     169     954
 -16  10   1     165     743
  16 -10   1     210    1080
  16 -10  -1     528    1013
  17  -9  -1     599     964
  17  -9   1    1240    1306
 -17   9   1    2148    1036
  18  -8   1      18     984
 -18   8   1      29     826
 -18   8  -1      22     742
  18  -8  -1      25     972
 -19   7  -1     129     675
  19  -7   1    1021    1180
 -20   6  -1      11     635
  20  -6   1     167    1167
 -21   5   1     149     696
 -21   5  -1     289     801
 -22   4   1       8     767
 -22   4  -1     234     636
 -23   3   1      24     829
 -23   3  -1      23     869
 -24   2   1      52    1998
  -1 -27  -2    1553    1517
   0 -26  -2    2637    1215
   1 -25   2    2770    1730
   1 -25  -2    2039    1337
   2 -24  -2    2777    1120
   2 -24   2    5035    1484
   3 -23   2    5285    1592
   3 -23  -2    4535    1290
   4 -22   2    3344    1383
   4 -22  -2    2988    1227
   5 -21  -2    5672    1825
   5 -21   2    4706    1611
   6 -20  -2    6821    2270
   6 -20   2    7441    2134
   7 -19  -2    7698    2119
   7 -19   2    2884    1466
   8 -18  -2   15175    2620
   8 -18   2   12015    2312
   9 -17  -2    9672    2595
   9 -17   2   10017    2592
  10 -16   2    6006    1599
  10 -16  -2    6624    1859
  11 -15   2    8068    2131
  11 -15  -2    8896    2092
  12 -14  -2   16568    2792
  12 -14   2   14174    2708
  13 -13  -2    7818    1765
  13 -13   2    6590    1778
 -13  13   2    9550    1866
 -14  12   2    4847    1515
  14 -12   2    5861    1872
  14 -12  -2    5692    1814
  15 -11   2    4717    1931
 -15  11   2    5024    1520
  15 -11  -2    6969    2019
  16 -10  -2    2951    1302
  16 -10   2    2362    1338
 -16  10   2    3278    1286
  17  -9  -2    5211    1574
  17  -9   2    3596    1464
 -17   9   2    6045    1512
  18  -8  -2    3301    1352
  18  -8   2    1738    1409
 -18   8   2    4408    1557
 -19   7  -2    2395     889
  19  -7   2     743    1129
 -20   6  -2     878     871
  20  -6   2    2000    1296
 -21   5  -2    1080     687
 -22   4  -2     129     679
 -23   3  -2     304     720
  -1 -27  -3      27    1223
   1 -25   3     893    1495
   1 -25  -3    1053    1188
   2 -24  -3     369    1107
   2 -24   3    1010    1222
   3 -23  -3     198     928
   3 -23   3     620    1260
   4 -22   3     969    1022
   4 -22  -3    1721     975
   5 -21  -3     247    1095
   5 -21   3     272     815
   6 -20   3    1112    1101
   6 -20  -3    1917    1284
   7 -19  -3    1468    1431
   7 -19   3    1484    1164
   8 -18   3    3524    1670
   8 -18  -3    5438    2010
   9 -17   3     434    1011
   9 -17  -3     236    1030
  10 -16  -3    1368    1104
  10 -16   3    2828    1103
  11 -15   3    1645    1004
  11 -15  -3      80    1076
 -12  14   3    1774    1350
  12 -14   3     687    1244
  12 -14  -3     492    1137
  13 -13   3     918    1314
  13 -13  -3     122     995
 -13  13   3     530     907
 -14  12   3    2784    1339
  14 -12  -3    1003    1296
  14 -12   3    2226    1462
  15 -11   3     894     939
 -15  11   3     157     728
  15 -11  -3     667     980
 -16  10   3      53     734
  16 -10   3     214    1098
  16 -10  -3      53    1030
  17  -9  -3    1753    1248
  17  -9   3     994    1128
 -17   9   3     955     867
 -18   8   3     611     858
  18  -8   3    1219    1388
 -19   7   3     912    1021
  19  -7   3      42    1031
 -19   7  -3     284     719
 -20   6  -3     381     709
  20  -6   3    1692    1589
  21  -5   3     239    1111
 -21   5  -3     636     947
 -22   4  -3     391     665
 -23   3  -3     334     721
   0 -26  -4     673    1040
   1 -25  -4    1762    1083
   2 -24  -4     616    1033
   2 -24   4    3566    1606
   3 -23   4    1285    1264
   3 -23  -4     879     938
   4 -22  -4    3265    1357
   4 -22   4    1904    1470
   5 -21  -4    9627    2020
   5 -21   4    6183    1781
   6 -20  -4   13263    2585
   6 -20   4   12474    2868
   6 -20   4    9249    2305
   7 -19   4   14108    2568
   7 -19  -4   15987    2979
   7 -19   4   13429    2939
   8 -18   4    7004    2024
   8 -18  -4    9115    2277
   9 -17   4    5638    1649
   9 -17  -4   11795    2362
  10 -16  -4    5184    1855
  10 -16   4    2114    1163
  11 -15   4    3522    1605
 -11  15   4    3707    1477
  11 -15  -4    4617    1666
  12 -14  -4    9481    2353
  12 -14   4    5341    2072
 -12  14   4    2458    1407
  13 -13  -4   10601    2209
 -13  13   4    7848    1861
  13 -13   4   10161    2487
  14 -12  -4    9161    1980
 -14  12   4    8638    1869
  14 -12   4   14432    2835
  15 -11   4    4280    1494
  15 -11  -4    3536    1412
 -15  11   4    4942    1433
  16 -10   4     835    1155
 -16  10   4     652     822
  16 -10  -4    1299    1226
  17  -9   4    1965    1230
 -17   9   4    2206    1253
 -18   8   4    1805    1136
  18  -8   4      24     980
  19  -7   4    1062    1367
 -19   7   4     566    1176
 -20   6  -4      97     598
  20  -6   4     126    1121
  21  -5   4     445    1365
 -21   5  -4     520     869
 -22   4  -4      82     791
   1 -25  -5     119    1043
   2 -24  -5    1462    1262
   3 -23   5     168    1301
   3 -23   5      27     956
   3 -23  -5     348    1100
   4 -22  -5     655    1295
   4 -22   5     878    1258
   4 -22   5     576     963
   5 -21  -5       5     978
   5 -21   5       4    1048
   5 -21   5    3671    1741
   6 -20  -5     261    1172
   6 -20   5     262    1027
   6 -20   5     789    1085
   7 -19   5    1083    1414
   7 -19   5    1156    1236
   7 -19  -5    2075    1562
   8 -18  -5     306    1101
   8 -18   5     808     968
   9 -17  -5    1057    1143
   9 -17   5    1092    1041
 -10  16   5     501     783
  10 -16  -5     630    1256
  11 -15  -5     693    1281
  11 -15   5     591    1211
 -11  15   5     972    1000
 -12  14   5     169     862
  12 -14  -5    1631    1370
  12 -14   5     762    1224
  13 -13  -5    1043     987
  13 -13   5     701    1219
 -13  13   5    1696    1104
  14 -12   5     996    1358
  14 -12  -5     530    1047
 -14  12   5    1029     923
  15 -11  -5      21     934
 -15  11   5     898     922
  15 -11   5     696    1203
 -16  10   5    1046     971
  16 -10  -5      62    1077
  16 -10   5     891    1174
  17  -9   5      41    1167
 -17   9   5    1769    1249
  18  -8   5      36    1065
 -18   8   5      35     952
  19  -7   5     104    1346
 -19   7   5     204    1188
  20  -6   5     893    1272
 -20   6   5     940    1035
 -21   5  -5     158     716
  21  -5   5      43    1544
 -22   4  -5      56     636
  22  -4   5      56    1485
   1 -25  -6    2058    1213
   2 -24  -6     493    1079
   2 -24   6    4544    1833
   3 -23   6    5127    2215
   3 -23   6    4473    1794
   3 -23  -6    2656    1494
   4 -22   6    8543    2223
   4 -22   6    4846    1491
   4 -22  -6    6741    1654
   5 -21  -6    8185    2001
   5 -21   6    7773    2118
   5 -21   6    4077    1329
   6 -20   6    4840    1613
   6 -20  -6    6891    1984
   6 -20   6    7184    2314
   7 -19   6    4337    1629
   7 -19   6    6629    2337
   7 -19  -6    6269    1854
   8 -18   6    8224    1891
   8 -18  -6   14632    2564
   9 -17  -6    7433    2135
  -9  17   6    6012    1781
   9 -17   6    6705    2051
  10 -16   6    8846    2099
  10 -16  -6   11698    2310
 -10  16   6   12025    2300
  11 -15  -6    9805    2301
 -11  15   6    4708    1811
  11 -15   6    8043    2459
 -12  14   6    3992    1412
  12 -14  -6    7523    1779
  12 -14   6    2974    1481
 -13  13   6    2856    1482
  13 -13   6    3048    1574
  13 -13  -6    3673    1540
  14 -12  -6    5114    1449
  14 -12   6    1640    1382
 -14  12   6    1460    1166
  15 -11  -6    5160    1511
 -15  11   6    3419    1288
  15 -11   6    5363    1836
  16 -10   6    3062    1700
 -16  10   6    4486    1459
  17  -9   6     645    1287
 -17   9   6    1197    1073
  18  -8   6    4329    1899
 -18   8   6    3616    1534
  19  -7   6      58    1378
 -19   7   6     640    1093
  20  -6   6     126    1450
 -20   6   6    2314    1633
  21  -5   6     128    1556
  22  -4   6     692    2262
   1 -25   7     567    1581
   2 -24   7     165    1238
   2 -24  -7     552    1119
   3 -23  -7     493    1107
   3 -23   7    1386    1785
   4 -22   7     527    1210
   4 -22   7     130    1177
   4 -22  -7     118    1149
   5 -21   7      77     950
   5 -21  -7     212    1273
   5 -21   7     484    1115
   6 -20   7      96     943
   6 -20  -7    1589    1335
   6 -20   7    1142    1201
   7 -19   7     610    1543
   7 -19  -7    1794    1413
   7 -19   7     880    1175
   8 -18   7    1568    1245
  -8  18   7     606     949
   8 -18  -7     858    1274
  -9  17   7     357     887
   9 -17   7     236    1023
   9 -17  -7     560    1138
  10 -16  -7     143     818
  10 -16   7      12     947
 -10  16   7       7     660
  11 -15   7     491    1044
 -11  15   7     430     649
  11 -15  -7    2840    1295
  12 -14  -7    2736    1473
  12 -14   7    1491    1292
 -12  14   7     767     962
 -13  13   7       2     719
  13 -13   7     669    1051
  13 -13  -7    1392     977
  14 -12  -7     625     960
 -14  12   7       4     758
  14 -12   7       5    1224
  15 -11   7     150    1289
 -15  11   7      83     916
  16 -10   7      61    1097
 -16  10   7     423    1098
  17  -9   7      13    1209
 -17   9   7     154     916
  18  -8   7     178    1564
 -18   8   7     184     989
 -19   7   7      49     963
  19  -7   7       5    1398
 -20   6   7      56     919
  20  -6   7      72    1700
 -21   5   7     117    1208
  21  -5   7    1492    2161
  22  -4   7      22    2420
   1 -25   8    4174    3121
   2 -24   8    7221    2465
   3 -23  -8    3267    1480
   3 -23   8    3211    2051
   4 -22  -8      33    1089
   4 -22   8    2055    1536
   5 -21   8    1982    1246
   5 -21   8    2922    1581
   5 -21  -8    3952    1465
   6 -20  -8    7409    2163
   6 -20   8    6793    2500
   6 -20   8    4632    1720
   7 -19  -8    5135    1683
   7 -19   8    3688    1468
   7 -19   8    3878    1961
   8 -18  -8    9900    2256
  -8  18   8    5070    1642
   8 -18   8    2705    1454
   9 -17   8    5006    1904
   9 -17  -8    9242    2309
  -9  17   8    4642    1807
  10 -16   8    2446    1408
  10 -16  -8    5702    1681
 -10  16   8    4947    1537
 -11  15   8    4624    1676
  11 -15   8    4458    1903
  11 -15  -8    6703    2019
  12 -14   8    2705    1553
 -12  14   8    3482    1307
  12 -14  -8    4627    1440
  13 -13   8    2063    1294
  13 -13  -8    6963    1668
 -13  13   8    4911    1554
 -14  12   8    5164    1872
  14 -12  -8    6371    1697
  14 -12   8    5759    2079
  15 -11   8    2348    1811
 -15  11   8    2756    1466
 -16  10   8    2261    1406
  16 -10   8    2888    1988
  17  -9   8    2124    1795
 -17   9   8    3576    1437
  18  -8   8    3392    2192
 -18   8   8    2583    1526
  19  -7   8      13    1660
 -19   7   8    1538    1405
 -20   6   8    3038    1569
  20  -6   8    1147    2208
  21  -5   8    1653    2386
 -21   5   8     427    1764
   2 -24   9    1349    2374
   3 -23   9     677    1972
   3 -23  -9      82    1371
   4 -22  -9     384    1167
   4 -22   9      17    1619
   5 -21  -9     658    1384
   5 -21   9      19    1286
   5 -21   9    1559    1432
   6 -20   9      37    1332
   6 -20   9    1382    1138
   6 -20  -9      17    1208
   7 -19   9    1508    1155
  -7  19   9     210     957
   7 -19  -9     355    1091
   7 -19   9    1498    1441
   8 -18  -9    2590    1516
   8 -18   9     857    1140
  -8  18   9     512     973
  -9  17   9      60     826
   9 -17  -9      52     944
   9 -17   9     166    1174
  10 -16  -9    1984    1134
 -10  16   9    4736    1586
  10 -16   9      54     997
 -11  15   9    1277    1122
  11 -15   9    2870    1326
  11 -15  -9    5998    1767
  12 -14  -9     565     976
 -12  14   9     577     880
  12 -14   9      65    1021
  13 -13   9      12    1080
  13 -13  -9     510    1022
 -13  13   9     455    1041
  14 -12   9     121    1138
 -14  12   9     125    1076
  15 -11   9       1    1062
 -15  11   9       1    1121
 -16  10   9      17     881
  16 -10   9      16    1567
  17  -9   9      10    1557
 -17   9   9    1137    1525
  18  -8   9      60    1788
 -18   8   9    1017    1573
  19  -7   9    1738    2304
 -19   7   9      25    1509
  20  -6   9     359    2698
 -20   6   9     695    1891
 -21   5   9      66    2146
   3 -23  10    1394    2567
   4 -22 -10      11    1556
   4 -22  10    4854    2623
   5 -21  10    4687    2014
   5 -21 -10     619    1373
   6 -20 -10    2047    1463
   6 -20  10    3049    1465
   6 -20  10    3033    1878
   7 -19  10    2618    1811
  -7  19  10    2313    1362
   7 -19  10     948    1452
   7 -19 -10    4424    1939
  -8  18  10    4013    1343
   8 -18 -10    3965    1666
   8 -18  10    3406    1526
   9 -17 -10    6375    1968
   9 -17  10    5652    2355
  -9  17  10    3401    1732
  10 -16 -10    5036    1551
  10 -16  10    5720    2045
 -10  16  10    6235    1818
  11 -15  10    2870    1489
  11 -15 -10    4766    1363
 -11  15  10    3930    1412
  12 -14 -10    6329    1514
  12 -14  10    3552    1745
 -12  14  10    2977    1340
 -13  13  10     746    1098
  13 -13  10    2944    1441
 -14  12  10    1767    1535
  14 -12  10    2108    1637
  15 -11  10    3531    1794
 -15  11  10    2357    1484
 -16  10  10      44    1242
  16 -10  10    1891    1795
 -17   9  10     230    1354
  17  -9  10      18    1666
 -18   8  10      96    1461
  18  -8  10      91    2113
 -19   7  10    3768    2423
   5 -21  11      38    1730
   5 -21 -11     355    1248
  -6  20  11     836    1205
   6 -20  11     295    1524
   6 -20 -11     261    1435
  -7  19  11    1284    1167
   7 -19  11      68    1183
   7 -19  11      90    1612
   7 -19 -11      94    1355
   8 -18  11     333    1200
  -8  18  11    1277    1202
   8 -18 -11    1536    1337
   9 -17 -11     970    1034
  -9  17  11    1262     959
   9 -17  11     269    1232
  10 -16  11    1699    1386
  10 -16 -11    2024    1332
 -10  16  11     146     707
 -11  15  11     154     783
  11 -15  11     748    1444
  11 -15 -11     522     959
  12 -14  11    1406    1454
 -12  14  11    1252    1021
 -13  13  11     321    1069
  13 -13  11    1039    1488
  14 -12  11     134    1289
 -14  12  11      84    1023
  15 -11  11     690    1433
 -15  11  11      53    1178
 -16  10  11     278    1396
  16 -10  11     121    1425
  17  -9  11     389    2212
 -17   9  11     351    1503
   6 -20 -12      58    1265
   6 -20  12     813    2281
  -6  20  12    5006    1789
   7 -19 -12    2613    1574
  -7  19  12    4836    1816
   7 -19  12     290    2067
   8 -18  12    6844    2122
   8 -18  12      77    1596
  -8  18  12    3702    1442
   9 -17 -12     910    1195
  -9  17  12    2719    1393
   9 -17  12    1091    1517
 -10  16  12    8420    2098
  10 -16 -12    6811    1804
  10 -16  12    5194    1862
  11 -15  12    3054    1613
 -11  15  12    1076    1112
 -12  14  12    1906    1460
  12 -14  12    3453    1745
  13 -13  12    2290    1799
 -13  13  12    1333     997
 -14  12  12    2541    1607
  14 -12  12    2593    1714
  15 -11  12    3088    1678
 -15  11  12      40    1348
  -6  20  13     123    2123
  -7  19  13    1551    1415
  -8  18  13     442    1045
   8 -18  13      96    1792
   8 -18 -13    1829    1751
  -9  17  13       2    1025
   9 -17 -13    1201    1128
   9 -17  13     549    1607
  10 -16 -13       6     942
  10 -16  13       6    1224
 -10  16  13    1644    1152
 -11  15  13    1164    1271
  11 -15  13      45    1329
 -12  14  13    1463    1282
  12 -14  13     579    1308
  13 -13  13     352    1627
   9 -17  14     991    3253
   9 -17 -14    1267    1700
  10 -16  14    2218    2080
   1 -27   0    2407    1653
   2 -26   0     924    1319
   3 -25   0    2983    1533
   4 -24   0    6127    1937
   5 -23   0    1491    1418
   6 -22   0    5285    1524
   7 -21   0    4246    1497
   8 -20   0    7478    1753
   9 -19   0   13489    2433
  10 -18   0   16772    3232
  11 -17   0   21478    3103
  12 -16   0   31126    3622
  13 -15   0    9089    2695
  14 -14   0   11612    2361
  15 -13   0    3550    1527
  16 -12   0    5492    1950
  17 -11   0    1124    1136
  18 -10   0    2159    1084
  19  -9   0     233    1183
  20  -8   0    1326    1348
   1 -27   1     165    1797
   1 -27  -1     837    1383
   2 -26   1     447    1320
   2 -26  -1       1    1084
   3 -25  -1     244    1007
   3 -25   1     132    1241
   4 -24   1    1819    1356
   4 -24  -1     193    1042
   5 -23  -1     782    1128
   5 -23   1      89    1126
   6 -22   1    1103    1052
   6 -22  -1    1141    1169
   7 -21   1     475    1020
   7 -21  -1    2833    1254
   8 -20  -1     333    1044
   8 -20   1     359     946
   9 -19   1      13    1018
   9 -19  -1     989    1234
  10 -18  -1     236    1200
  10 -18   1     228     798
  11 -17   1     340    1214
  11 -17  -1     962    1203
  12 -16  -1     248    1242
  12 -16   1     629    1132
  13 -15  -1     248     962
  13 -15   1     372    1129
  14 -14  -1    1274    1179
  14 -14   1    1308    1324
  15 -13   1     108    1035
  15 -13  -1     439     899
  16 -12   1     494    1027
  16 -12  -1    1447    1285
  17 -11  -1     140     812
  17 -11   1     200    1150
  18 -10  -1     130    1105
 -18  10   1     129     864
  18 -10   1     791    1122
  19  -9   1      33     951
  19  -9  -1     279    1053
 -20   8  -1     230     738
  20  -8   1     316    1185
 -21   7  -1     937     899
 -22   6  -1      70     780
 -23   5  -1      62    1064
   1 -27  -2     626    1104
   2 -26   2    1517    1469
   3 -25  -2    2554    1459
   3 -25   2    3940    1746
   4 -24  -2    3682    1413
   4 -24   2    6431    1915
   5 -23   2    3713    1550
   5 -23  -2    4793    1566
   6 -22   2    4184    1352
   6 -22  -2    3731    1443
   7 -21  -2    3219    1601
   7 -21   2    1459    1188
   8 -20   2    2225    1197
   8 -20  -2    4848    1383
   9 -19   2    4986    1737
   9 -19  -2    8882    2126
  10 -18  -2    5764    1947
  10 -18   2   10661    2349
  11 -17   2    5134    1829
  11 -17  -2    6454    1898
  12 -16   2    6079    1896
  12 -16  -2    7870    1966
  13 -15  -2    8002    2239
  13 -15   2    5929    2179
  14 -14  -2    4061    1598
  14 -14   2    2505    1353
  15 -13   2    2410    1538
  15 -13  -2    4147    1680
  16 -12  -2    6684    2027
 -16  12   2    4327    1511
  16 -12   2    6034    1890
 -17  11   2    2375    1171
  17 -11   2    2838    1529
  17 -11  -2    5123    1706
 -18  10   2    2650    1181
  18 -10  -2    3484    1221
  18 -10   2     531    1223
  19  -9   2    2884    1521
 -19   9   2    1136    1087
  20  -8   2     481    1141
  21  -7   2       4    1331
 -21   7  -2     466     823
 -22   6  -2     566     902
 -23   5  -2     359     917
   2 -26   3     161    1480
   2 -26  -3     157    1011
   3 -25   3     897    1603
   3 -25  -3     524    1231
   4 -24  -3     602    1281
   4 -24   3      32    1206
   5 -23   3     630    1610
   5 -23  -3     189    1064
   6 -22   3    1676    1328
   6 -22  -3    1065    1106
   7 -21  -3     992    1151
   7 -21   3     522    1055
   8 -20   3    1043    1026
   8 -20  -3     920    1600
   9 -19  -3    3034    1800
   9 -19   3    1457    1327
  10 -18  -3    1114    1282
  10 -18   3     238     926
  11 -17  -3    1955    1258
  11 -17   3    1397    1139
  12 -16   3     958    1250
  12 -16  -3     425    1247
  13 -15  -3     168    1135
  13 -15   3     369    1068
  14 -14   3     158    1068
  14 -14  -3     897    1260
 -14  14   3     870     951
  15 -13  -3      74    1152
 -15  13   3    1000     858
  15 -13   3      58     944
  16 -12   3      44    1110
  16 -12  -3      39     956
 -16  12   3      39     798
  17 -11  -3      35    1210
  17 -11   3      71    1247
 -17  11   3      76     933
  18 -10   3     250    1257
  18 -10  -3     171    1116
 -18  10   3     587     968
 -19   9   3      64     931
  19  -9   3      59    1105
  20  -8   3    1902    1404
  21  -7   3     198    1299
 -21   7  -3     408     810
 -22   6  -3       1     620
 -23   5  -3     160     805
   2 -26  -4    3679    1558
   3 -25   4    2290    1526
   3 -25  -4    2745    1376
   4 -24   4    5303    2380
   4 -24  -4    3978    1525
   5 -23   4    2799    1429
   5 -23  -4    3723    1386
   6 -22  -4    5555    1587
   6 -22   4    6809    1758
   7 -21   4    5620    1722
   7 -21  -4    6476    2062
   8 -20   4    4600    1468
   8 -20  -4    5312    1946
   9 -19   4    4626    1358
   9 -19  -4    3096    1491
  10 -18   4    6635    1822
  10 -18  -4    8684    2157
  11 -17   4    3269    1481
  11 -17  -4    3736    1657
  12 -16  -4    4662    1606
  12 -16   4    3442    1367
 -13  15   4    3950    1472
  13 -15   4    4568    1895
  13 -15  -4    2462    1213
  14 -14   4    3505    1624
 -14  14   4    3305    1302
  14 -14  -4    2933    1387
  15 -13   4    4388    1676
 -15  13   4    2811    1207
  15 -13  -4    3430    1388
 -16  12   4    1026    1086
  16 -12   4    3015    1822
  16 -12  -4    1954    1394
  17 -11   4    2626    1569
  17 -11  -4    3330    1477
 -17  11   4    2249    1138
  18 -10   4    3035    1771
 -18  10   4    4360    1657
  19  -9   4     918    1416
 -19   9   4    2364    1305
  20  -8   4    2584    1610
 -20   8   4    4631    1503
  21  -7   4    1521    1529
 -22   6  -4     506     736
  22  -6   4    2714    1803
   3 -25  -5     268    1113
   4 -24  -5     465    1066
   4 -24   5     288    1154
   5 -23  -5     497    1123
   5 -23   5     102    1068
   6 -22  -5     587    1160
   6 -22   5     717    1038
   7 -21  -5    1923    1452
   7 -21   5      30    1099
   8 -20  -5    1218    1243
   8 -20   5      90     836
   8 -20   5     984    1422
   9 -19   5     148     973
   9 -19  -5      50    1195
  10 -18   5     279     993
  10 -18  -5    1118    1272
  11 -17  -5    2998    1529
  11 -17   5     885    1155
  12 -16   5     569    1127
  12 -16  -5     171    1157
 -12  16   5     333     859
  13 -15  -5      21    1094
 -13  15   5     891    1030
  13 -15   5    1194    1236
  14 -14   5      73    1141
  14 -14  -5    1000    1127
 -14  14   5    2493    1174
  15 -13   5     299    1271
 -15  13   5    1896    1075
  15 -13  -5    2173    1271
 -16  12   5     408    1038
  16 -12  -5     511    1095
  16 -12   5    1342    1514
 -17  11   5     366    1075
  17 -11   5     308    1483
  18 -10   5     545    1486
 -18  10   5     357     928
  19  -9   5     757    1395
 -19   9   5     210    1073
 -20   8   5     116    1114
  20  -8   5      20    1262
  21  -7   5     518    1464
  22  -6   5      15    1824
   4 -24   6     771    1320
   4 -24  -6    1607    1147
   5 -23  -6    1212    1166
   5 -23   6    3964    1511
   6 -22   6     868    1254
   6 -22   6    1176    1328
   6 -22  -6    2636    1416
   7 -21  -6    2603    1703
   7 -21   6    1791    1284
   7 -21   6    7572    1999
   8 -20   6    5161    2301
   8 -20   6    3354    1736
   8 -20  -6   10434    2567
   9 -19  -6    7065    1851
   9 -19   6    3299    1316
  10 -18  -6     287    1234
  10 -18   6     354     947
  11 -17  -6    1493    1312
  11 -17   6    1576    1448
 -11  17   6    2052    1339
  12 -16  -6     453    1040
 -12  16   6    2776    1386
  12 -16   6     865    1200
 -13  15   6    4041    1452
  13 -15   6    1864    1253
  13 -15  -6    2986    1402
  14 -14  -6    3254    1282
 -14  14   6    2155    1264
  14 -14   6    1617    1455
  15 -13  -6    3077    1418
 -15  13   6    3468    1578
  15 -13   6    3848    1981
 -16  12   6    1131    1078
  16 -12   6    5224    1902
  16 -12  -6    4379    1559
 -17  11   6     887    1157
  17 -11   6    3277    1738
  18 -10   6      96    1368
 -18  10   6    2103    1356
  19  -9   6    2822    1904
 -19   9   6    1600    1238
  20  -8   6    1032    1678
 -20   8   6    1284    1192
 -21   7   6     739    1444
  21  -7   6    2017    2165
  22  -6   6    1934    2548
   4 -24  -7     478     972
   4 -24   7    1660    2008
   5 -23   7     740    1171
   5 -23   7     740    1233
   5 -23  -7     571    1424
   6 -22  -7       7    1239
   6 -22   7     202    1274
   6 -22   7     558    1331
   7 -21   7     224    1142
   7 -21  -7    2024    1521
   7 -21   7    1208    1160
   8 -20   7    2465    1688
   8 -20   7     353    1088
   8 -20  -7     245    1313
   9 -19  -7    1526    1254
   9 -19   7    1896    1211
  10 -18   7     152    1021
  10 -18  -7    1897    1270
 -10  18   7     317     827
 -11  17   7    3543    1230
  11 -17  -7    2421    1373
  11 -17   7     983    1151
  12 -16   7     133    1108
  12 -16  -7    1382    1151
 -12  16   7     352     899
  13 -15  -7    2767    1374
  13 -15   7    1049    1097
 -13  15   7    1068    1112
  14 -14   7    1343    1200
  14 -14  -7      60     991
 -14  14   7      60    1057
  15 -13  -7    1374    1146
  15 -13   7     768    1537
 -15  13   7    1142    1160
  16 -12   7    1184    1621
 -16  12   7     166     969
 -17  11   7     233    1195
  17 -11   7      11    1416
 -18  10   7     101    1102
  18 -10   7     540    1586
  19  -9   7     117    1536
 -19   9   7     245    1342
  20  -8   7     909    2023
 -20   8   7     175    1265
 -21   7   7     118    1415
  21  -7   7       2    2138
   3 -25   8    4965    3136
   4 -24   8    2999    2235
   5 -23   8     562    1451
   5 -23  -8     865    1518
   6 -22  -8     776    1279
   6 -22   8     860    1274
   6 -22   8    3783    1745
   7 -21   8    6564    2311
   7 -21   8    4643    1632
   7 -21  -8      42    1466
   8 -20  -8    1515    1606
   8 -20   8     816    1241
   8 -20   8    2413    1645
   9 -19   8    3141    1331
  -9  19   8    3125    1171
   9 -19  -8    1871    1470
  10 -18   8    3134    1473
 -10  18   8    3160    1235
  10 -18  -8    3900    1499
  11 -17   8    1102    1147
 -11  17   8    1553    1020
  11 -17  -8    3102    1378
 -12  16   8    3915    1465
  12 -16  -8    4614    1421
  12 -16   8    2588    1438
  13 -15  -8    2513    1246
  13 -15   8    1094    1206
 -13  15   8    7522    1854
 -14  14   8    1793    1523
  14 -14  -8    3746    1561
  14 -14   8    2002    1606
  15 -13   8     912    1474
 -15  13   8    2087    1299
  16 -12   8      54    1528
 -16  12   8     391    1233
 -17  11   8    2097    1551
  17 -11   8       3    1478
 -18  10   8    2786    1649
  18 -10   8      62    1735
  19  -9   8      84    1970
 -19   9   8    1213    1744
 -20   8   8      85    1489
  20  -8   8     971    2806
 -21   7   8    2366    2410
   4 -24   9     201    2020
   5 -23   9      45    1794
   6 -22   9     126    1504
   6 -22  -9     345    1610
   6 -22   9     913    1669
   7 -21   9     358    1365
   7 -21   9    2439    1581
   7 -21  -9     587    1241
   8 -20   9      27    1458
   8 -20   9    3141    1308
   8 -20  -9      28    1141
   9 -19  -9      42    1171
   9 -19   9      48    1084
  -9  19   9    1269    1010
  10 -18   9     660    1283
  10 -18  -9     269    1124
 -10  18   9     165     895
 -11  17   9      27     916
  11 -17   9     486    1223
  11 -17  -9    1404    1182
  12 -16  -9    4164    1410
 -12  16   9     562     795
  12 -16   9     125    1287
  13 -15  -9      19     869
 -13  15   9      19     702
  13 -15   9      21    1179
 -14  14   9      44    1248
  14 -14   9      44    1181
  15 -13   9       1    1085
 -15  13   9      56    1180
  16 -12   9     864    1643
 -16  12   9     546    1268
 -17  11   9     249    1346
  17 -11   9     204    1713
  18 -10   9      40    2107
 -18  10   9     462    1577
 -19   9   9     474    1938
   5 -23  10    4214    3117
   6 -22  10    4131    2745
   7 -21  10    3010    2011
   7 -21 -10    1283    1736
   7 -21  10    1968    1559
   8 -20 -10    1251    1471
   8 -20  10    3372    1441
  -8  20  10    4024    1325
   8 -20  10    4313    2195
   9 -19 -10    7268    1820
   9 -19  10    3765    1563
  -9  19  10    4645    1351
 -10  18  10    5651    1693
  10 -18 -10    5922    1732
  10 -18  10    3040    1596
 -11  17  10    4509    1396
  11 -17 -10    7318    1814
  11 -17  10    5050    1675
  12 -16 -10    4688    1553
 -12  16  10    1746    1111
  12 -16  10    5060    1932
  13 -15 -10    2091    1158
 -13  15  10    1511    1232
  13 -15  10     453    1292
  14 -14  10     560    1313
 -14  14  10     185    1205
 -15  13  10     697    1443
  15 -13  10    1641    1566
  16 -12  10    2339    1761
 -16  12  10     368    1445
 -17  11  10      20    1371
  17 -11  10     263    2074
   7 -21  11       3    2195
  -8  20  11      24    1030
   8 -20 -11      23    1615
   8 -20  11      24    2315
   8 -20  11      24    1354
  -9  19  11    1756    1044
   9 -19  11      41    1165
   9 -19 -11    1673    1703
  10 -18  11    2899    1543
  10 -18 -11     853    1171
 -10  18  11    2670    1165
  11 -17 -11    1913    1117
 -11  17  11    3829    1288
  11 -17  11     303    1230
  12 -16 -11     630    1156
 -12  16  11     101     917
  12 -16  11     627    1409
 -13  15  11     645    1071
  13 -15  11     188    1327
 -14  14  11     359    1161
  14 -14  11     120    1292
 -15  13  11      57    1590
  15 -13  11     317    1293
   9 -19 -12    1708    1894
   9 -19  12    1977    1939
  10 -18 -12     678    1520
  10 -18  12     321    1478
  11 -17  12    2569    1802
  11 -17 -12    5539    1778
  12 -16  12     589    1193
  13 -15  12    4414    1995
   3 -27   0    1948    1481
   4 -26   0    4181    1546
   5 -25   0    3833    1602
   6 -24   0     385    1191
   7 -23   0    4600    1522
   8 -22   0    2137    1470
   9 -21   0    3366    1360
  10 -20   0    2669    1437
  11 -19   0     297    1184
  12 -18   0     984    1432
  13 -17   0    2754    1607
  14 -16   0     788    1464
  15 -15   0    3635    1901
  16 -14   0    1190    1020
  17 -13   0    2340    1576
  18 -12   0     385    1111
  19 -11   0    2225    1255
  20 -10   0     104    1164
   3 -27   1     426    1655
   4 -26   1    1416    1500
   4 -26  -1     380    1080
   5 -25   1     264    1205
   5 -25  -1     851    1155
   6 -24  -1      36    1125
   6 -24   1     124    1097
   7 -23  -1    1519    1306
   7 -23   1      40    1057
   8 -22   1    1114    1010
   8 -22  -1      35    1194
   9 -21   1     332     992
   9 -21  -1     998    1157
  10 -20   1    2898    1097
  10 -20  -1     484    1374
  11 -19   1    3192    1445
  11 -19  -1    4286    1741
  12 -18   1    2322    1629
  12 -18  -1    3544    1732
  13 -17  -1    3120    1462
  13 -17   1    3121    1709
  14 -16  -1    1297    1413
  14 -16   1    2112    1393
  15 -15   1    1540    1339
  15 -15  -1     281    1313
  16 -14   1       7    1094
  16 -14  -1     225    1248
  17 -13   1     835    1248
  17 -13  -1     216    1064
  18 -12   1       2    1068
  18 -12  -1     734    1160
  19 -11   1     181     994
  19 -11  -1     142    1060
  20 -10  -1      10    1167
  20 -10   1      42    1005
  21  -9   1      66    1334
   3 -27   2    2813    2084
   4 -26   2    2220    1668
   4 -26  -2     976    1204
   5 -25  -2    2971    1433
   5 -25   2    1035    1518
   6 -24  -2    4003    1583
   7 -23   2    1745    1232
   7 -23  -2    1671    1516
   8 -22   2    1115    1212
   8 -22  -2    4868    1785
   9 -21  -2    5830    1702
   9 -21   2    3979    1462
  10 -20  -2    3958    1688
  10 -20   2    4819    1570
  11 -19   2    4036    1772
  11 -19  -2    3239    1858
  12 -18  -2    2552    1415
  12 -18   2    5767    1773
  13 -17  -2    3292    1684
  13 -17   2    4119    1902
  14 -16   2    3804    1782
  14 -16  -2    2981    1609
  15 -15   2    1211    1214
  15 -15  -2    4835    1632
  16 -14   2    2342    1342
  16 -14  -2    3839    1549
  17 -13  -2    1656    1276
  17 -13   2    4256    1627
  18 -12  -2    1950    1612
  18 -12   2     446    1310
  19 -11  -2     921    1222
  19 -11   2    1711    1365
 -19  11   2    1341     998
  20 -10   2    1790    1479
  21  -9   2      21    1317
 -23   7  -2      88    1845
   3 -27   3      23    2519
   4 -26   3     527    1742
   5 -25   3     455    1316
   5 -25  -3     165    1253
   6 -24  -3      45    1122
   6 -24   3     156    1122
   7 -23  -3     361    1170
   7 -23   3    1026    1263
   8 -22  -3     232    1213
   8 -22   3     675    1080
   9 -21  -3     686    1655
   9 -21   3      34    1024
  10 -20  -3      52    1304
  10 -20   3      56     878
  11 -19  -3      10    1299
  11 -19   3    1417    1152
  12 -18  -3    2155    1448
  12 -18   3     168    1052
  13 -17   3     356    1473
  13 -17  -3     513    1463
  14 -16  -3     146    1124
  14 -16   3     567    1330
  15 -15  -3     133    1115
  15 -15   3     390    1425
  16 -14  -3      82    1135
  16 -14   3      86    1298
 -16  14   3     181     968
  17 -13   3    2682    1388
 -17  13   3       5     921
  17 -13  -3       5    1072
  18 -12   3     130    1175
 -18  12   3     137     933
  18 -12  -3     137    1143
 -19  11   3      51     994
  19 -11   3     286    1417
 -20  10   3     652    1312
  20 -10   3     478    1407
  21  -9   3      59    1313
  22  -8   3      50    1457
   4 -26   4      32    1848
   5 -25  -4    3051    1454
   5 -25   4    1491    1383
   6 -24  -4    1584    1350
   6 -24   4     147    1101
   7 -23   4    2802    1456
   7 -23  -4    2959    1437
   8 -22   4    3076    1353
   8 -22  -4    2921    1656
   9 -21  -4    3633    2000
   9 -21   4    2297    1417
  10 -20   4    1291    1046
  10 -20  -4    1924    1665
  11 -19   4    5042    1605
  11 -19  -4    5101    1950
  12 -18   4     159     976
  12 -18  -4     745    1315
  13 -17  -4    1944    1458
  13 -17   4     241    1152
  14 -16  -4    3472    1396
  14 -16   4    1061    1265
 -15  15   4     975    1048
  15 -15   4    1431    1516
  15 -15  -4     266    1331
  16 -14  -4     755    1340
  16 -14   4    1443    1460
 -16  14   4     879     946
 -17  13   4    1307     899
  17 -13   4      66    1468
  17 -13  -4    1808    1336
 -18  12   4    2745    1375
  18 -12  -4    1855    1263
  18 -12   4     767    1453
  19 -11   4     806    1489
 -19  11   4     171    1107
  20 -10   4     369    1381
 -20  10   4     357    1038
  21  -9   4      23    1618
  22  -8   4      64    1911
   4 -26   5      78    2499
   5 -25   5    1422    1663
   6 -24   5      73    1155
   6 -24  -5      70    1033
   7 -23  -5    1155    1521
   7 -23   5     440    1355
   8 -22  -5     162    1411
   9 -21   5    1866    1216
   9 -21  -5    2627    1652
  10 -20   5     151     990
  10 -20  -5     117    1347
  11 -19  -5      56    1318
  11 -19   5     130    1249
  12 -18  -5     365    1195
  12 -18   5     455    1234
  13 -17   5     380    1086
  13 -17  -5      60    1200
  14 -16  -5    3079    1554
 -14  16   5     179     910
  14 -16   5     608    1405
 -15  15   5    1646    2132
  15 -15  -5     841    1226
  15 -15   5    1440    1512
  16 -14   5     680    1604
  16 -14  -5     461    1219
 -16  14   5     257    1007
 -17  13   5     728    1092
  17 -13   5     131    1363
  17 -13  -5     744    1102
 -18  12   5     178    1274
  18 -12   5     623    1760
  19 -11   5      74    1731
 -19  11   5     545    1006
 -20  10   5     450    1245
  20 -10   5     401    1848
 -21   9   5     208    1247
  21  -9   5    1814    2265
  22  -8   5     821    2390
   5 -25   6    1677    1971
   6 -24   6     490    1441
   6 -24  -6    3976    1502
   7 -23   6    2763    1439
   7 -23  -6     918    1448
   8 -22   6    2067    1546
   8 -22  -6      35    1320
   9 -21   6    3363    1608
   9 -21  -6    3417    1722
  10 -20  -6    4627    1947
  10 -20   6       8    1022
  11 -19  -6    1452    1507
  11 -19   6    1437    1257
  12 -18   6    2187    1372
  12 -18  -6    3650    1689
 -13  17   6    2196    1321
  13 -17   6     211    1167
  13 -17  -6    3187    1320
  14 -16  -6    3630    1531
  14 -16   6    2596    1601
 -14  16   6    3408    1577
  15 -15   6      26    1528
  15 -15  -6    3191    1498
 -15  15   6    1633    1426
 -16  14   6    1349    1204
  16 -14   6     719    1624
  16 -14  -6    1457    1250
 -17  13   6    2817    1355
  17 -13   6      17    1704
  18 -12   6     295    1688
 -18  12   6    1112    1210
  19 -11   6     376    1797
  20 -10   6      13    2004
 -20  10   6    1581    1522
 -21   9   6      71    1806
  21  -9   6    1631    2429
   6 -24   7     184    1492
   7 -23   7    1723    1409
   7 -23  -7      34    1541
   8 -22   7     723    1233
   8 -22  -7     899    1410
   8 -22   7      14    1463
   9 -21   7      40    1109
   9 -21   7      40    1487
   9 -21  -7     217    1506
  10 -20   7    2290    1216
  10 -20  -7      33    1398
  11 -19  -7      41    1103
  11 -19   7      38    1031
  12 -18   7     590    1278
 -12  18   7     272    1006
  12 -18  -7    1009    1324
  13 -17   7     686    1251
 -13  17   7      71    1071
  13 -17  -7      71    1148
  14 -16   7      45    1092
  14 -16  -7    1211    1109
 -14  16   7      44    1151
  15 -15  -7    1330    1178
  15 -15   7     122    1062
 -15  15   7     116    1203
 -16  14   7    1038    1240
  16 -14   7      43    1649
 -17  13   7      21    1057
  17 -13   7     269    1430
 -18  12   7     124    1422
  18 -12   7     279    1784
 -19  11   7      35    1605
  19 -11   7    2640    2314
 -20  10   7     754    1671
 -21   9   7    1012    2356
   6 -24   8    3129    2590
   7 -23   8    6384    2672
   7 -23   8    1208    1549
   8 -22   8    4899    1803
   8 -22  -8      94    1598
   8 -22   8    4391    1908
   9 -21  -8    1387    1385
   9 -21   8     842    1725
   9 -21   8    3052    1549
  10 -20  -8    2885    1547
  10 -20   8    2027    1281
 -11  19   8    2223    1260
  11 -19   8    2183    1345
  11 -19  -8    4213    1576
  12 -18  -8    1957    1378
  12 -18   8    2579    1408
 -12  18   8    1310    1180
 -13  17   8    3891    1585
  13 -17  -8    4652    1518
  13 -17   8    1279    1306
  14 -16   8    3776    1620
  14 -16  -8    5791    1587
 -14  16   8     611    1300
  15 -15   8    2332    1552
 -15  15   8     697    1223
  15 -15  -8    2546    1271
 -16  14   8     143    1251
  16 -14   8     147    1534
  17 -13   8     119    1808
 -17  13   8     207    1507
 -18  12   8     187    1591
  18 -12   8     181    2113
 -19  11   8      30    2012
   7 -23   9       4    2181
   7 -23   9       4    2142
   8 -22   9     173    1504
   8 -22   9    1157    2235
   9 -21   9    2289    1453
   9 -21   9    2888    2160
   9 -21  -9     314    1758
  10 -20  -9    1395    1770
  10 -20   9      64    1073
  11 -19   9      61    1214
  11 -19  -9    1884    1474
 -11  19   9     675    1051
 -12  18   9     145     846
  12 -18   9      70    1166
  12 -18  -9     937    1307
  13 -17   9     132    1349
 -13  17   9      59     924
  13 -17  -9     253    1061
  14 -16  -9     309    1167
 -14  16   9      29    1403
  14 -16   9     256    1509
 -15  15   9      82    1478
  15 -15   9     209    1349
  16 -14   9      61    1298
 -16  14   9     313    1599
 -17  13   9      75    1665
   8 -22  10    1495    2229
   9 -21  10    4930    2012
   9 -21  10    1065    2556
  10 -20  10    1990    1337
  10 -20 -10    3282    1994
  11 -19  10    2447    1426
 -11  19  10    3158    1645
  11 -19 -10    3138    1870
  12 -18 -10    2264    1311
  12 -18  10    1649    1534
 -12  18  10    4881    1738
 -13  17  10    1587    1295
  13 -17 -10    2504    1498
  13 -17  10    2532    1520
  14 -16  10     270    1500
  11 -19 -11     554    1719
  12 -18 -11    2266    1828
   7 -25   0    2204    1551
   8 -24   0    5860    1809
   9 -23   0    3181    1414
  10 -22   0    2163    1346
  11 -21   0    3851    1607
  12 -20   0    7154    2421
  13 -19   0    8281    2526
  14 -18   0    5622    2328
  15 -17   0    5715    2314
  16 -16   0    4698    2134
  17 -15   0     144    1337
  18 -14   0    8217    2108
  19 -13   0    1537    1355
  20 -12   0    1093    1397
  21 -11   0     159    1490
   7 -25  -1     226    1437
   7 -25   1     359    1281
   8 -24  -1      21    1515
   8 -24   1      21    1357
   9 -23  -1     324    1207
   9 -23   1      85     973
  10 -22   1       9    1100
  10 -22  -1       8     965
  11 -21   1       1    1212
  11 -21  -1       2    1281
  12 -20   1     129    1311
  12 -20  -1    1165    1560
  13 -19  -1     125    1458
  13 -19   1     159    1412
  14 -18  -1     101    1246
  14 -18   1     210    1570
  15 -17  -1     390    1459
  15 -17   1    1596    1579
  16 -16   1     166    1345
  16 -16  -1       4    1413
  17 -15  -1    1025    1656
  17 -15   1      42    1371
  18 -14  -1    2221    1540
  18 -14   1      32    1149
  19 -13   1      83    1352
  19 -13  -1      47    1539
  20 -12  -1     498    1458
  20 -12   1      39    1295
  21 -11   1      64    1252
   6 -26   2     614    1448
   7 -25  -2    3742    1665
   7 -25   2    2701    1535
   8 -24  -2    1448    1379
   8 -24   2     565    1141
   9 -23  -2    2718    1681
   9 -23   2    2944    1551
  10 -22  -2      45    1358
  10 -22   2    4601    1558
  11 -21  -2      10    1412
  11 -21   2    1601    1308
  12 -20   2       3    1192
  12 -20  -2    1200    1558
  13 -19  -2    3531    1878
  13 -19   2    1900    1732
  14 -18  -2    1959    1850
  14 -18   2    1189    1541
  15 -17  -2     955    1488
  15 -17   2    2838    1979
  16 -16   2     897    1679
  16 -16  -2    3327    1732
  17 -15  -2     655    1483
  17 -15   2    2491    1688
  18 -14   2    2438    1637
  18 -14  -2    1773    1642
  19 -13   2    2206    1596
  19 -13  -2     581    1383
  20 -12   2      27    1464
  21 -11   2     726    1873
  22 -10   2     505    2109
   6 -26   3      15    1477
   7 -25   3     132    1074
   8 -24  -3    2011    1608
   8 -24   3     601    1043
   9 -23   3     247    1330
   9 -23  -3     263    1530
  10 -22  -3     152    1350
  10 -22   3     149    1098
  11 -21  -3     851    1690
  11 -21   3     366    1264
  12 -20   3    1095    1122
  12 -20  -3      53    1383
  13 -19  -3    1570    1574
  13 -19   3     378    1179
  14 -18   3      57    1273
  14 -18  -3    1905    1674
  15 -17   3    1848    1603
  15 -17  -3    2513    1568
  16 -16   3     202    1535
  16 -16  -3    1565    1622
  17 -15   3    1317    1668
  17 -15  -3      55    1146
  18 -14  -3      18    1188
  18 -14   3      13    2142
 -19  13   3     275    1214
  19 -13   3       6    1566
  19 -13  -3    1947    1559
  20 -12   3      49    1593
 -20  12   3      71    1080
  21 -11   3     950    2497
  22 -10   3      95    2321
   7 -25   4     243    1184
   8 -24   4     766    1194
   8 -24  -4    2873    1419
   9 -23   4    4583    1631
   9 -23  -4     250    1575
  10 -22   4    2473    1382
  10 -22  -4     155    1362
  11 -21   4    3989    1449
  11 -21  -4     543    1539
  12 -20   4    2507    1638
  12 -20  -4    1946    1769
  13 -19   4       4    1059
  13 -19  -4     728    1537
  14 -18   4      56    1390
  14 -18  -4    2468    1693
  15 -17   4     119    1423
  15 -17  -4    2124    1499
  16 -16  -4     192    1139
  16 -16   4    1352    1674
 -17  15   4     352    1335
  17 -15   4       9    1648
  17 -15  -4    2090    1523
  18 -14  -4    1592    1494
  18 -14   4       1    1450
 -18  14   4       2    1204
 -19  13   4    3787    1429
  19 -13   4      10    1745
 -20  12   4    1744    1513
  20 -12   4     647    2154
  21 -11   4    3567    2788
 -21  11   4    1092    1843
   7 -25   5      17    1217
   8 -24   5     756    1238
   9 -23   5       1    1149
   9 -23  -5       2    1512
  10 -22   5    1906    1204
  10 -22  -5      49    1533
  11 -21   5    1651    1476
  11 -21  -5     384    1465
  12 -20   5      31    1167
  12 -20  -5      32    1413
  13 -19  -5      12    1466
  13 -19   5      11    1222
  14 -18   5     168     990
  14 -18  -5    2444    1586
  15 -17   5     575    1436
  15 -17  -5     805    1236
 -16  16   5      23    1135
  16 -16  -5    1117    1357
  16 -16   5      24    1336
 -17  15   5      68    1141
  17 -15   5      75    1586
  17 -15  -5    1542    1428
 -18  14   5       1    1320
  18 -14   5     139    1991
  19 -13   5      30    1964
 -19  13   5     393    1489
  20 -12   5       2    2581
 -20  12   5     657    1918
 -21  11   5       5    1719
   8 -24   6    1927    1564
   9 -23   6      82    1213
  10 -22   6    2962    1413
  10 -22  -6     263    1665
  11 -21   6    1017    1389
  11 -21  -6     350    1393
  12 -20   6    1090    1385
  12 -20  -6     621    1516
  13 -19   6    2751    1579
  13 -19  -6    2666    1858
  14 -18   6    1308    1434
  14 -18  -6    1449    1511
  15 -17   6    2752    1722
  15 -17  -6    2387    1506
 -15  17   6     383    1365
  16 -16   6     161    1495
 -16  16   6      37    1165
  16 -16  -6    1323    1567
  17 -15   6      66    1781
  17 -15  -6    3302    1565
 -17  15   6      24    1316
  18 -14   6      23    2198
 -18  14   6     643    1650
 -19  13   6     615    1814
 -20  12   6     791    2117
   9 -23   7      10    1312
  10 -22   7       0     991
  10 -22  -7     687    1996
  11 -21  -7      60    1752
  11 -21   7    1541    1362
  12 -20  -7       8    1774
  12 -20   7     503    1213
  13 -19   7     888    1105
  13 -19  -7    1313    1512
  14 -18  -7    1409    1445
 -14  18   7     704    1524
  14 -18   7     199     985
 -15  17   7     192    1513
  15 -17  -7    1045    1259
  15 -17   7     194    1108
  16 -16   7     881    1963
 -16  16   7      81    1507
  16 -16  -7      81    1226
 -17  15   7      44    1600
 -18  14   7     695    2147
  10 -22   8    3490    2830
  11 -21   8    1955    1679
  12 -20  -8    2071    2120
  12 -20   8    3633    1910
  13 -19  -8    4635    1967
  13 -19   8      15    1191
  14 -18   8      23    1287
  14 -18  -8    1456    1359
  15 -17  -8    1377    1404
  10 -22   9     235    2457
  13 -19  -9    1694    1870
  14 -18  -9     189    1708
  11 -23   0       4    1221
  12 -22   0       3    1537
  13 -21   0     222    1538
  14 -20   0       7    1492
  15 -19   0      42    1438
  16 -18   0     161    1600
  17 -17   0    1455    1706
  18 -16   0    1685    2091
  19 -15   0    2423    2243
  20 -14   0     830    2123
  21 -13   0     363    1961
  11 -23  -1      48    1370
  11 -23   1    1594    1279
  12 -22  -1     575    1604
  12 -22   1     395    1321
  13 -21   1     715    1484
  13 -21  -1     104    1333
  14 -20   1     410    1547
  14 -20  -1     389    1475
  15 -19   1     198    1676
  15 -19  -1    2077    1627
  16 -18   1      36    1534
  16 -18  -1      30    1497
  17 -17   1     160    1633
  17 -17  -1    2153    1938
  18 -16  -1      90    1731
  18 -16   1     355    1905
  19 -15   1      15    1888
  19 -15  -1    2678    1924
  20 -14  -1     660    2076
  20 -14   1      68    1963
  21 -13   1      24    2209
  21 -13  -1      19    2148
  11 -23  -2      76    1854
  11 -23   2     253    1302
  12 -22   2    1775    1349
  12 -22  -2     535    1683
  13 -21  -2      15    1465
  13 -21   2    1635    1493
  14 -20  -2     255    1456
  14 -20   2     246    1600
  15 -19   2     603    1641
  15 -19  -2     243    1525
  16 -18   2      75    1673
  16 -18  -2      73    1916
  17 -17  -2    1984    1954
  17 -17   2      35    1654
  18 -16  -2    1223    1829
  18 -16   2     101    2029
  19 -15  -2     785    2001
  19 -15   2    1698    2377
  20 -14   2     862    2233
  20 -14  -2     567    2200
  12 -22   3      61    1132
  12 -22  -3      62    1894
  13 -21   3     273    1116
  13 -21  -3      51    1702
  14 -20  -3     733    1732
  14 -20   3      17    1613
  15 -19   3     352    1571
  15 -19  -3      18    1622
  16 -18  -3    1783    2053
  16 -18   3     732    1861
  17 -17   3     117    1940
  18 -16  -3      62    1668
  18 -16   3      59    2024
  19 -15  -3     161    1591
  19 -15   3     711    2136
  13 -21   4    1597    1288
  13 -21  -4    1800    2039
  14 -20   4     527    1277
  14 -20  -4      33    1859
  15 -19  -4    3171    2136
  15 -19   4     592    1766
  16 -18  -4    1433    1876
  16 -18   4      64    1824
  17 -17  -4    1373    1857
  17 -17   4     178    1995
  18 -16  -4    1005    1836
  13 -21  -5     102    1914
  14 -20  -5      32    1826
  15 -19  -5      71    2058
  16 -18  -5     578    1745
  17 -17  -5       9    1715
  18 -16  -5      34    1830
  14 -20  -6     217    2145
  15 -19  -6     885    2128
  16 -18  -6     652    1832
  17 -17  -6    1633    2022
  15 -19  -7    1312    2488
  16 -18  -7     706    2132
   0   0   0      99       0
;
_shelx_hkl_checksum              22377
loop_
_space_group_symop_operation_xyz
'x, y, z'
'-x, -y, z'
'-x, y, z+1/2'
'x, -y, z+1/2'
'x+1/2, y+1/2, z'
'-x+1/2, -y+1/2, z'
'-x+1/2, y+1/2, z+1/2'
'x+1/2, -y+1/2, z+1/2'
loop_
_atom_site_label
_atom_site_type_symbol
_atom_site_fract_x
_atom_site_fract_y
_atom_site_fract_z
_atom_site_U_iso_or_equiv
_atom_site_adp_type
_atom_site_occupancy
_atom_site_site_symmetry_order
_atom_site_calc_flag
_atom_site_refinement_flags_posn
_atom_site_refinement_flags_adp
_atom_site_refinement_flags_occupancy
Cd1 Cd 0.0000 0.0000 0.25812(8) 0.0494(2) Uani 1 2 d S T P
C1 C 0.0321(5) -0.0917(3) 1.1324(4) 0.0435(17) Uani 1 1 d . . .
O1 O 0.0796(4) -0.0504(3) 1.1416(3) 0.0652(18) Uani 1 1 d . . .
N1 N -0.2305(4) -0.0413(3) 0.4398(4) 0.0600(17) Uani 1 1 d . . .
C4 C -0.1849(4) -0.2355(3) 0.9297(4) 0.0460(17) Uani 1 1 d . . .
O4 O -0.1024(3) -0.0463(3) 0.3481(4) 0.0674(17) Uani 1 1 d . . .
N4 N -0.0200(3) -0.1811(3) 1.0424(4) 0.0526(16) Uani 1 1 d . . .
C10 C -0.2523(3) -0.1916(3) 0.6486(4) 0.0395(15) Uani 1 1 d . . .
C9 C -0.2500 -0.2500 0.6928(6) 0.054(3) Uani 1 2 d S T P
C8 C -0.2500 -0.2500 0.7962(5) 0.039(2) Uani 1 2 d S T P
C7 C -0.1134(4) -0.2267(4) 0.7873(4) 0.057(2) Uani 1 1 d . . .
H7A H -0.1220 -0.2343 0.7260 0.085 Uiso 1 1 calc R U .
H7B H -0.0765 -0.2563 0.8083 0.085 Uiso 1 1 calc R U .
H7C H -0.0963 -0.1833 0.7956 0.085 Uiso 1 1 calc R U .
C14 C -0.2508(4) -0.1342(3) 0.5000(5) 0.0502(16) Uani 1 1 d . . .
C13 C -0.2500 -0.2500 0.5126(7) 0.042(2) Uani 1 2 d S T P
H13 H -0.2500 -0.2500 0.4516 0.051 Uiso 1 2 calc R U P
C12 C -0.2506(4) -0.1909(4) 0.5556(4) 0.0463(16) Uani 1 1 d . . .
C11 C -0.2575(4) -0.1274(4) 0.7001(4) 0.0522(18) Uani 1 1 d . . .
H11A H -0.2856 -0.0967 0.6667 0.078 Uiso 1 1 calc R U .
H11B H -0.2086 -0.1108 0.7102 0.078 Uiso 1 1 calc R U .
H11C H -0.2815 -0.1349 0.7554 0.078 Uiso 1 1 calc R U .
C3 C -0.1204(4) -0.2195(3) 0.9835(4) 0.0459(18) Uani 1 1 d . . .
N3 N -0.2829(3) -0.1343(3) 0.4201(4) 0.0600(16) Uani 1 1 d . . .
O3 O -0.0884(3) 0.0576(3) 0.3445(3) 0.0596(15) Uani 1 1 d . . .
N6 N -0.1060(4) -0.2490(3) 1.0627(3) 0.0575(17) Uani 1 1 d . . .
C6 C -0.1844(4) -0.2366(3) 0.8376(4) 0.0476(17) Uani 1 1 d . . .
N2 N -0.2702(4) -0.0765(3) 0.3825(4) 0.0678(19) Uani 1 1 d . . .
C2 C -0.0628(4) -0.1743(4) 0.9703(5) 0.0474(18) Uani 1 1 d . . .
H2 H -0.0560 -0.1465 0.9231 0.057 Uiso 1 1 calc R U .
O2 O -0.0279(3) -0.0914(3) 1.1738(3) 0.0603(15) Uani 1 1 d . . .
N5 N -0.0472(4) -0.2254(3) 1.0989(4) 0.0606(17) Uani 1 1 d . . .
C5 C -0.2500 -0.2500 0.9731(5) 0.040(2) Uani 1 2 d S T P
H5 H -0.2500 -0.2500 1.0341 0.048 Uiso 1 2 calc R U P
C036 C 0.0454(4) -0.1416(4) 1.0620(5) 0.058(2) Uani 1 1 d . . .
H03A H 0.0610 -0.1199 1.0088 0.070 Uiso 1 1 calc R U .
H03B H 0.0854 -0.1696 1.0805 0.070 Uiso 1 1 calc R U .
C17 C -0.1224(5) 0.0100(3) 0.3653(4) 0.053(2) Uani 1 1 d . . .
C16 C -0.1965(5) 0.0184(4) 0.4108(5) 0.068(2) Uani 1 1 d . . .
H16A H -0.1897 0.0462 0.4614 0.081 Uiso 1 1 calc R U .
H16B H -0.2301 0.0401 0.3709 0.081 Uiso 1 1 calc R U .
C15 C -0.2171(4) -0.0742(3) 0.5100(6) 0.0526(16) Uani 1 1 d . . .
H15 H -0.1899 -0.0604 0.5583 0.063 Uiso 1 1 calc R U .
loop_
_atom_site_aniso_label
_atom_site_aniso_U_11
_atom_site_aniso_U_22
_atom_site_aniso_U_33
_atom_site_aniso_U_23
_atom_site_aniso_U_13
_atom_site_aniso_U_12
Cd1 0.0781(4) 0.0439(3) 0.0260(3) 0.000 0.000 -0.0146(4)
C1 0.063(4) 0.052(4) 0.015(3) -0.004(3) -0.007(3) -0.018(4)
O1 0.081(4) 0.083(5) 0.032(3) -0.012(3) -0.005(3) 0.001(4)
N1 0.091(5) 0.051(4) 0.038(4) 0.005(3) 0.012(3) 0.010(4)
C4 0.063(4) 0.043(4) 0.032(4) -0.002(3) -0.007(3) -0.009(3)
O4 0.082(4) 0.055(4) 0.065(4) -0.014(3) 0.024(3) -0.012(3)
N4 0.069(4) 0.058(4) 0.031(3) 0.001(3) -0.010(3) 0.001(3)
C10 0.049(4) 0.046(4) 0.024(3) -0.003(3) 0.000(3) -0.011(3)
C9 0.083(8) 0.067(8) 0.013(5) 0.000 0.000 -0.003(6)
C8 0.061(6) 0.040(5) 0.015(4) 0.000 0.000 -0.015(5)
C7 0.072(5) 0.075(5) 0.024(3) -0.011(3) -0.014(3) 0.009(4)
C14 0.067(4) 0.050(4) 0.033(4) -0.003(4) 0.000(4) 0.006(3)
C13 0.068(6) 0.047(5) 0.012(4) 0.000 0.000 -0.009(4)
C12 0.053(4) 0.053(4) 0.033(4) 0.005(3) 0.009(3) 0.003(4)
C11 0.073(5) 0.053(5) 0.031(4) -0.001(3) 0.004(3) -0.002(4)
C3 0.061(4) 0.050(4) 0.027(4) -0.004(3) -0.004(3) -0.001(4)
N3 0.068(4) 0.071(4) 0.040(3) 0.007(3) -0.001(3) -0.007(3)
O3 0.082(4) 0.054(3) 0.044(3) -0.001(2) 0.009(3) -0.017(3)
N6 0.084(5) 0.064(4) 0.025(3) 0.011(3) -0.013(3) -0.017(4)
C6 0.059(4) 0.047(4) 0.037(4) 0.006(3) -0.003(3) -0.009(4)
N2 0.113(6) 0.060(4) 0.030(3) 0.004(3) -0.008(4) 0.004(4)
C2 0.063(5) 0.048(4) 0.031(3) -0.011(3) -0.012(3) 0.003(4)
O2 0.068(3) 0.069(4) 0.043(3) -0.019(3) 0.011(3) -0.019(3)
N5 0.077(5) 0.063(4) 0.042(4) 0.014(3) -0.009(3) -0.004(4)
C5 0.058(6) 0.058(6) 0.004(3) 0.000 0.000 -0.009(5)
C036 0.056(5) 0.068(6) 0.051(5) 0.002(4) -0.003(4) -0.008(4)
C17 0.100(6) 0.034(5) 0.025(3) -0.006(3) -0.002(4) -0.012(4)
C16 0.108(7) 0.052(5) 0.042(5) 0.001(3) 0.017(5) -0.006(5)
C15 0.070(4) 0.053(4) 0.035(3) 0.006(4) 0.006(4) 0.000(3)
loop_
_atom_type_symbol
_atom_type_description
_atom_type_scat_dispersion_real
_atom_type_scat_dispersion_imag
_atom_type_scat_source
C C 0.0033 0.0016 'International Tables Vol C Tables 4.2.6.8 and 6.1.1.4'
Cd Cd -0.8075 1.2024 'International Tables Vol C Tables 4.2.6.8 and 6.1.1.4'
O O 0.0106 0.0060 'International Tables Vol C Tables 4.2.6.8 and 6.1.1.4'
N N 0.0061 0.0033 'International Tables Vol C Tables 4.2.6.8 and 6.1.1.4'
H H 0.0000 0.0000 'International Tables Vol C Tables 4.2.6.8 and 6.1.1.4'
loop_
_geom_angle_atom_site_label_1
_geom_angle_atom_site_label_2
_geom_angle_atom_site_label_3
_geom_angle
_geom_angle_site_symmetry_1
_geom_angle_site_symmetry_3
O2 Cd1 O2 113.6(3) 1_554 2_554
O2 Cd1 O3 124.2(2) 1_554 .
O2 Cd1 O3 92.4(2) 2_554 .
O2 Cd1 O3 92.4(2) 1_554 2
O2 Cd1 O3 124.2(2) 2_554 2
O3 Cd1 O3 113.1(3) . 2
O2 Cd1 O4 140.5(2) 1_554 2
O2 Cd1 O4 80.22(18) 2_554 2
O3 Cd1 O4 90.0(2) . 2
O3 Cd1 O4 52.7(2) 2 2
O2 Cd1 O4 80.22(18) 1_554 .
O2 Cd1 O4 140.5(2) 2_554 .
O3 Cd1 O4 52.7(2) . .
O3 Cd1 O4 90.0(2) 2 .
O4 Cd1 O4 113.4(3) 2 .
O2 Cd1 O1 80.0(2) 1_554 2_554
O2 Cd1 O1 53.09(19) 2_554 2_554
O3 Cd1 O1 78.41(19) . 2_554
O3 Cd1 O1 168.44(19) 2 2_554
O4 Cd1 O1 130.71(19) 2 2_554
O4 Cd1 O1 97.1(2) . 2_554
O2 Cd1 O1 53.09(19) 1_554 1_554
O2 Cd1 O1 80.0(2) 2_554 1_554
O3 Cd1 O1 168.44(19) . 1_554
O3 Cd1 O1 78.41(19) 2 1_554
O4 Cd1 O1 97.1(2) 2 1_554
O4 Cd1 O1 130.71(19) . 1_554
O1 Cd1 O1 90.0(3) 2_554 1_554
O2 Cd1 C17 102.31(19) 1_554 .
O2 Cd1 C17 115.9(2) 2_554 .
O3 Cd1 C17 25.85(17) . .
O3 Cd1 C17 104.3(2) 2 .
O4 Cd1 C17 103.9(2) 2 .
O4 Cd1 C17 26.97(17) . .
O1 Cd1 C17 85.9(2) 2_554 .
O1 Cd1 C17 155.4(2) 1_554 .
O2 Cd1 C17 115.9(2) 1_554 2
O2 Cd1 C17 102.31(19) 2_554 2
O3 Cd1 C17 104.3(2) . 2
O3 Cd1 C17 25.85(17) 2 2
O4 Cd1 C17 26.97(17) 2 2
O4 Cd1 C17 103.9(2) . 2
O1 Cd1 C17 155.4(2) 2_554 2
O1 Cd1 C17 85.9(2) 1_554 2
C17 Cd1 C17 107.3(3) . 2
O1 C1 O2 123.1(7) . .
O1 C1 C036 116.8(7) . .
O2 C1 C036 119.8(7) . .
C1 O1 Cd1 88.3(5) . 1_556
C15 N1 N2 110.5(6) . .
C15 N1 C16 128.5(7) . .
N2 N1 C16 119.5(6) . .
C5 C4 C6 118.8(6) . .
C5 C4 C3 117.3(6) . .
C6 C4 C3 123.9(6) . .
C17 O4 Cd1 88.3(5) . .
C2 N4 N5 112.3(6) . .
C2 N4 C036 124.6(7) . .
N5 N4 C036 122.9(6) . .
C9 C10 C12 119.6(6) . .
C9 C10 C11 120.5(5) . .
C12 C10 C11 119.9(6) . .
C10 C9 C10 121.9(8) 6_445 .
C10 C9 C8 119.0(4) 6_445 .
C10 C9 C8 119.0(4) . .
C6 C8 C6 125.2(9) 6_445 .
C6 C8 C9 117.4(4) 6_445 .
C6 C8 C9 117.4(4) . .
N3 C14 C15 106.7(7) . .
N3 C14 C12 121.8(7) . .
C15 C14 C12 131.3(7) . .
C12 C13 C12 123.8(9) . 6_445
C13 C12 C10 117.5(7) . .
C13 C12 C14 116.2(6) . .
C10 C12 C14 126.3(7) . .
N6 C3 C2 106.3(6) . .
N6 C3 C4 122.7(6) . .
C2 C3 C4 131.0(6) . .
C14 N3 N2 108.1(6) . .
C17 O3 Cd1 94.4(5) . .
N5 N6 C3 111.1(6) . .
C8 C6 C4 117.2(7) . .
C8 C6 C7 121.9(6) . .
C4 C6 C7 120.8(6) . .
N1 N2 N3 107.3(6) . .
N4 C2 C3 103.7(6) . .
C1 O2 Cd1 95.4(4) . 1_556
N6 N5 N4 106.6(6) . .
C4 C5 C4 122.8(8) . 6_445
N4 C036 C1 113.6(6) . .
O3 C17 O4 124.2(8) . .
O3 C17 C16 118.4(7) . .
O4 C17 C16 117.3(7) . .
O3 C17 Cd1 59.8(4) . .
O4 C17 Cd1 64.8(4) . .
C16 C17 Cd1 170.7(5) . .
N1 C16 C17 114.4(7) . .
N1 C15 C14 107.4(8) . .
loop_
_geom_bond_atom_site_label_1
_geom_bond_atom_site_label_2
_geom_bond_distance
_geom_bond_site_symmetry_2
Cd1 O2 2.346(5) 1_554
Cd1 O2 2.346(5) 2_554
Cd1 O3 2.390(6) .
Cd1 O3 2.390(6) 2
Cd1 O4 2.496(5) 2
Cd1 O4 2.496(5) .
Cd1 O1 2.513(6) 2_554
Cd1 O1 2.513(6) 1_554
Cd1 C17 2.758(9) .
Cd1 C17 2.758(9) 2
C1 O1 1.221(8) .
C1 O2 1.254(8) .
C1 C036 1.511(10) .
O1 Cd1 2.513(6) 1_556
N1 C15 1.292(9) .
N1 N2 1.347(9) .
N1 C16 1.453(10) .
C4 C5 1.382(8) .
C4 C6 1.403(8) .
C4 C3 1.464(9) .
O4 C17 1.251(8) .
N4 C2 1.351(8) .
N4 N5 1.352(8) .
N4 C036 1.469(10) .
C10 C9 1.388(7) .
C10 C12 1.418(8) .
C10 C11 1.550(9) .
C9 C10 1.388(7) 6_445
C9 C8 1.576(12) .
C8 C6 1.372(8) 6_445
C8 C6 1.372(8) .
C7 C6 1.509(10) .
C14 N3 1.348(9) .
C14 C15 1.395(9) .
C14 C12 1.451(10) .
C13 C12 1.391(8) .
C13 C12 1.391(8) 6_445
C3 N6 1.379(8) .
C3 C2 1.415(10) .
N3 N2 1.348(9) .
O3 C17 1.206(8) .
N6 N5 1.293(8) .
O2 Cd1 2.346(5) 1_556
C5 C4 1.382(8) 6_445
C17 C16 1.517(12) .
loop_
_geom_torsion_atom_site_label_1
_geom_torsion_atom_site_label_2
_geom_torsion_atom_site_label_3
_geom_torsion_atom_site_label_4
_geom_torsion
_geom_torsion_site_symmetry_1
_geom_torsion_site_symmetry_4
O2 C1 O1 Cd1 2.9(7) . 1_556
C036 C1 O1 Cd1 177.6(6) . 1_556
C12 C10 C9 C10 -1.4(4) . 6_445
C11 C10 C9 C10 177.9(7) . 6_445
C12 C10 C9 C8 178.6(4) . .
C11 C10 C9 C8 -2.1(7) . .
C10 C9 C8 C6 -78.7(5) 6_445 6_445
C10 C9 C8 C6 101.3(5) . 6_445
C10 C9 C8 C6 101.3(5) 6_445 .
C10 C9 C8 C6 -78.7(5) . .
C12 C13 C12 C10 -1.4(4) 6_445 .
C12 C13 C12 C14 179.7(7) 6_445 .
C9 C10 C12 C13 2.8(9) . .
C11 C10 C12 C13 -176.5(5) . .
C9 C10 C12 C14 -178.5(6) . .
C11 C10 C12 C14 2.3(11) . .
N3 C14 C12 C13 30.7(9) . .
C15 C14 C12 C13 -143.9(7) . .
N3 C14 C12 C10 -148.0(7) . .
C15 C14 C12 C10 37.3(12) . .
C5 C4 C3 N6 36.2(9) . .
C6 C4 C3 N6 -144.1(7) . .
C5 C4 C3 C2 -143.2(7) . .
C6 C4 C3 C2 36.6(12) . .
C15 C14 N3 N2 -0.5(8) . .
C12 C14 N3 N2 -176.3(6) . .
C2 C3 N6 N5 1.4(8) . .
C4 C3 N6 N5 -178.0(7) . .
C6 C8 C6 C4 -1.2(5) 6_445 .
C9 C8 C6 C4 178.8(5) . .
C6 C8 C6 C7 175.9(8) 6_445 .
C9 C8 C6 C7 -4.1(8) . .
C5 C4 C6 C8 2.3(9) . .
C3 C4 C6 C8 -177.5(6) . .
C5 C4 C6 C7 -174.8(6) . .
C3 C4 C6 C7 5.5(11) . .
C15 N1 N2 N3 0.9(8) . .
C16 N1 N2 N3 168.1(7) . .
C14 N3 N2 N1 -0.2(8) . .
N5 N4 C2 C3 -1.3(8) . .
C036 N4 C2 C3 -176.3(7) . .
N6 C3 C2 N4 -0.1(7) . .
C4 C3 C2 N4 179.3(7) . .
O1 C1 O2 Cd1 -3.1(8) . 1_556
C036 C1 O2 Cd1 -177.7(6) . 1_556
C3 N6 N5 N4 -2.2(8) . .
C2 N4 N5 N6 2.2(8) . .
C036 N4 N5 N6 177.4(7) . .
C6 C4 C5 C4 -1.2(5) . 6_445
C3 C4 C5 C4 178.6(7) . 6_445
C2 N4 C036 C1 104.4(8) . .
N5 N4 C036 C1 -70.1(9) . .
O1 C1 C036 N4 -168.0(7) . .
O2 C1 C036 N4 6.9(10) . .
Cd1 O3 C17 O4 6.8(8) . .
Cd1 O3 C17 C16 -169.5(6) . .
Cd1 O4 C17 O3 -6.5(8) . .
Cd1 O4 C17 C16 169.9(6) . .
C15 N1 C16 C17 81.4(10) . .
N2 N1 C16 C17 -83.2(9) . .
O3 C17 C16 N1 -175.2(7) . .
O4 C17 C16 N1 8.2(10) . .
N2 N1 C15 C14 -1.3(8) . .
C16 N1 C15 C14 -167.0(7) . .
N3 C14 C15 N1 1.1(8) . .
C12 C14 C15 N1 176.4(7) . .
