#------------------------------------------------------------------------------
#$Date: 2016-02-04 03:23:23 +0200 (Thu, 04 Feb 2016) $
#$Revision: 175668 $
#$URL: svn://www.crystallography.net/cod/cif/4/34/48/4344842.cif $
#------------------------------------------------------------------------------
#
# This file is available in the Crystallography Open Database (COD),
# http://www.crystallography.net/
#
# All data on this site have been placed in the public domain by the
# contributors.
#
data_4344842
loop_
_publ_author_name
'Ye, Yingxiang'
'Xiong, Shunshun'
'Wu, Xiaonan'
'Zhang, Liuqin'
'Li, Ziyin'
'Wang, Lihua'
'Ma, Xiuling'
'Chen, Qian-Huo'
'Zhang, Zhangjing'
'Xiang, Shengchang'
_publ_section_title
;
 Microporous Metal-Organic Framework Stabilized by Balanced Multiple
 Host-Couteranion Hydrogen-Bonding Interactions for High-Density CO2
 Capture at Ambient Conditions.
;
_journal_issue                   1
_journal_name_full               'Inorganic chemistry'
_journal_page_first              292
_journal_paper_doi               10.1021/acs.inorgchem.5b02316
_journal_volume                  55
_journal_year                    2015
_chemical_formula_moiety
'0.5(C72 H48 Cl2 Cu8 N24 O16), 4(B0.75 F3), 4(O)'
_chemical_formula_sum            'C36 H24 B3 Cl Cu4 F12 N12 O12'
_chemical_formula_weight         1366.71
_chemical_name_systematic
;
 ?
;
_space_group_crystal_system      tetragonal
_space_group_IT_number           139
_space_group_name_Hall           '-I 4 2'
_space_group_name_H-M_alt        'I 4/m m m'
_symmetry_space_group_name_Hall  '-I 4 2'
_symmetry_space_group_name_H-M   'I 4/m m m'
_atom_sites_solution_hydrogens   geom
_audit_creation_date             2015-11-20
_audit_creation_method
;
Olex2 1.2
(compiled 2015.09.30 svn.r3233 for OlexSys, GUI svn.r5103)
;
_cell_angle_alpha                90
_cell_angle_beta                 90
_cell_angle_gamma                90
_cell_formula_units_Z            2
_cell_length_a                   14.1245(7)
_cell_length_b                   14.1245(7)
_cell_length_c                   19.9049(10)
_cell_measurement_reflns_used    5844
_cell_measurement_temperature    221(100)
_cell_measurement_theta_max      73.8340
_cell_measurement_theta_min      3.7760
_cell_volume                     3971.1(3)
_computing_cell_refinement
;
CrysAlisPro, Agilent Technologies,
Version 1.171.37.35 (release 13-08-2014 CrysAlis171 .NET)
(compiled Aug 13 2014,18:06:01)
;
_computing_data_collection
;
CrysAlisPro, Agilent Technologies,
Version 1.171.37.35 (release 13-08-2014 CrysAlis171 .NET)
(compiled Aug 13 2014,18:06:01)
;
_computing_data_reduction
;
CrysAlisPro, Agilent Technologies,
Version 1.171.37.35 (release 13-08-2014 CrysAlis171 .NET)
(compiled Aug 13 2014,18:06:01)
;
_computing_molecular_graphics    'Olex2 (Dolomanov et al., 2009)'
_computing_publication_material  'Olex2 (Dolomanov et al., 2009)'
_computing_structure_refinement  'ShelXL (Sheldrick, 2015)'
_computing_structure_solution    'ShelXS (Sheldrick, 2008)'
_diffrn_ambient_environment      N~2~
_diffrn_ambient_temperature      221(100)
_diffrn_detector                 'CCD plate'
_diffrn_detector_area_resol_mean 10.5148
_diffrn_detector_type            Atlas
_diffrn_measured_fraction_theta_full 0.992
_diffrn_measured_fraction_theta_max 0.988
_diffrn_measurement_details
;
  1 omega  -50.00   33.00   1.0000    2.5000
omega____ theta____ kappa____ phi______ frames
    -      -40.8249   38.0000 -150.0000 83

  2 omega  -69.00   32.00   1.0000    2.5000
omega____ theta____ kappa____ phi______ frames
    -      -40.8249   57.0000  -90.0000 101

  3 omega  -82.00   39.00   1.0000    2.5000
omega____ theta____ kappa____ phi______ frames
    -      -40.8249   19.0000 -180.0000 121

  4 omega   33.00   99.00   1.0000   15.0000
omega____ theta____ kappa____ phi______ frames
    -      106.3615  -45.0000  -60.0000 66

  5 omega   98.00  178.00   1.0000   15.0000
omega____ theta____ kappa____ phi______ frames
    -      106.3615   86.0000  -64.0000 80

  6 omega   81.00  178.00   1.0000   15.0000
omega____ theta____ kappa____ phi______ frames
    -      106.3615   45.0000 -150.0000 97

  7 omega   30.00   91.00   1.0000   15.0000
omega____ theta____ kappa____ phi______ frames
    -      106.3615  -30.0000 -120.0000 61

  8 omega   33.00   99.00   1.0000   15.0000
omega____ theta____ kappa____ phi______ frames
    -      106.3615  -45.0000 -180.0000 66

  9 omega -113.00  -81.00   1.0000    2.5000
omega____ theta____ kappa____ phi______ frames
    -      -40.8249  -57.0000   30.0000 32

 10 omega -117.00   -8.00   1.0000    2.5000
omega____ theta____ kappa____ phi______ frames
    -      -40.8249  -77.0000  150.0000 109

 11 omega -113.00  -31.00   1.0000    2.5000
omega____ theta____ kappa____ phi______ frames
    -      -41.3249  -57.0000 -120.0000 82

 12 omega   36.00   62.00   1.0000    2.5000
omega____ theta____ kappa____ phi______ frames
    -       41.3249 -125.0000  -30.0000 26

 13 omega   48.00   88.00   1.0000   15.0000
omega____ theta____ kappa____ phi______ frames
    -      106.3615  -45.0000   30.0000 40

 14 omega   74.00  103.00   1.0000   15.0000
omega____ theta____ kappa____ phi______ frames
    -      106.3615  -94.0000 -150.0000 29

 15 omega   62.00   88.00   1.0000   15.0000
omega____ theta____ kappa____ phi______ frames
    -      106.3615  -45.0000   60.0000 26

 16 omega  145.00  170.00   1.0000   15.0000
omega____ theta____ kappa____ phi______ frames
    -      106.3615   15.0000 -180.0000 25

 17 omega   67.00   98.00   1.0000   15.0000
omega____ theta____ kappa____ phi______ frames
    -      106.3615   15.0000 -180.0000 31

 18 omega -117.00   -9.00   1.0000    2.5000
omega____ theta____ kappa____ phi______ frames
    -      -41.3249  -77.0000  -30.0000 108

 19 omega -113.00  -13.00   1.0000    2.5000
omega____ theta____ kappa____ phi______ frames
    -      -41.3249  -57.0000 -150.0000 100

 20 omega -113.00  -13.00   1.0000    2.5000
omega____ theta____ kappa____ phi______ frames
    -      -41.3249  -57.0000   30.0000 100

 21 omega    9.00  117.00   1.0000    2.5000
omega____ theta____ kappa____ phi______ frames
    -       41.3249   77.0000  150.0000 108

 22 omega   23.00   97.00   1.0000    2.5000
omega____ theta____ kappa____ phi______ frames
    -       41.3249 -125.0000  150.0000 74

 23 omega    9.00  117.00   1.0000    2.5000
omega____ theta____ kappa____ phi______ frames
    -       41.3249   77.0000   30.0000 108

 24 omega    1.00   82.00   1.0000    2.5000
omega____ theta____ kappa____ phi______ frames
    -       41.3249  -99.0000    0.0000 81

 25 omega   54.00   79.00   1.0000   15.0000
omega____ theta____ kappa____ phi______ frames
    -      106.3615   15.0000   60.0000 25
;
_diffrn_measurement_device       'four-circle diffractometer'
_diffrn_measurement_device_type  'SuperNova, Dual, Cu at zero, Atlas'
_diffrn_measurement_method       '\w scans'
_diffrn_orient_matrix_UB_11      -0.0944492500
_diffrn_orient_matrix_UB_12      -0.0190753500
_diffrn_orient_matrix_UB_13      -0.0362184500
_diffrn_orient_matrix_UB_21      -0.0516475500
_diffrn_orient_matrix_UB_22      0.0631843500
_diffrn_orient_matrix_UB_23      0.0512402500
_diffrn_orient_matrix_UB_31      0.0170166500
_diffrn_orient_matrix_UB_32      0.0868825500
_diffrn_orient_matrix_UB_33      -0.0454027500
_diffrn_radiation_monochromator  mirror
_diffrn_radiation_probe          x-ray
_diffrn_radiation_type           CuK\a
_diffrn_radiation_wavelength     1.54184
_diffrn_reflns_av_R_equivalents  0.1213
_diffrn_reflns_av_unetI/netI     0.0342
_diffrn_reflns_laue_measured_fraction_full 0.992
_diffrn_reflns_laue_measured_fraction_max 0.988
_diffrn_reflns_limit_h_max       17
_diffrn_reflns_limit_h_min       -17
_diffrn_reflns_limit_k_max       17
_diffrn_reflns_limit_k_min       -15
_diffrn_reflns_limit_l_max       24
_diffrn_reflns_limit_l_min       -24
_diffrn_reflns_number            19070
_diffrn_reflns_point_group_measured_fraction_full 0.992
_diffrn_reflns_point_group_measured_fraction_max 0.988
_diffrn_reflns_theta_full        67.684
_diffrn_reflns_theta_max         74.166
_diffrn_reflns_theta_min         3.837
_diffrn_source                   'sealed X-ray tube'
_diffrn_source_type              'SuperNova (Cu) X-ray Source'
_exptl_absorpt_coefficient_mu    2.176
_exptl_absorpt_correction_T_max  1.00000
_exptl_absorpt_correction_T_min  0.25308
_exptl_absorpt_correction_type   multi-scan
_exptl_absorpt_process_details
;
CrysAlisPro, Agilent Technologies,
Version 1.171.37.35 (release 13-08-2014 CrysAlis171 .NET)
(compiled Aug 13 2014,18:06:01)
Empirical absorption correction using spherical harmonics,
 implemented in SCALE3 ABSPACK scaling algorithm.
;
_exptl_crystal_colour            green
_exptl_crystal_density_diffrn    1.143
_exptl_crystal_description
;
;
_exptl_crystal_F_000             1352
_exptl_crystal_size_max          0.2
_exptl_crystal_size_mid          0.15
_exptl_crystal_size_min          0.15
_refine_diff_density_max         1.419
_refine_diff_density_min         -2.154
_refine_diff_density_rms         0.289
_refine_ls_extinction_method     none
_refine_ls_goodness_of_fit_ref   1.061
_refine_ls_hydrogen_treatment    constr
_refine_ls_matrix_type           full
_refine_ls_number_parameters     86
_refine_ls_number_reflns         1191
_refine_ls_number_restraints     0
_refine_ls_restrained_S_all      1.061
_refine_ls_R_factor_all          0.1215
_refine_ls_R_factor_gt           0.1123
_refine_ls_shift/su_max          0.001
_refine_ls_shift/su_mean         0.000
_refine_ls_structure_factor_coef Fsqd
_refine_ls_weighting_details
;
 w=1/[\s^2^(Fo^2^)+(0.3200P)^2^]
 where P=(Fo^2^+2Fc^2^)/3
;
_refine_ls_weighting_scheme      calc
_refine_ls_wR_factor_gt          0.3262
_refine_ls_wR_factor_ref         0.3538
_reflns_Friedel_coverage         0.000
_reflns_number_gt                1008
_reflns_number_total             1191
_reflns_threshold_expression     'I > 2\s(I)'
_cod_data_source_file            ic5b02316_si_002.cif
_cod_data_source_block           FJU-14-BF4-a
_cod_original_cell_volume        3971.1(4)
_cod_database_code               4344842
_shelxl_version_number           2013-2
_chemical_oxdiff_formula         'C H N O B F Cu Cl'
_shelx_space_group_comment
;
The symmetry employed for this shelxl refinement is uniquely defined
by the following loop, which should always be used as a source of
symmetry information in preference to the above space-group names.
They are only intended as comments.
;
_reflns_odcompleteness_completeness 100.00
_reflns_odcompleteness_iscentric 1
_reflns_odcompleteness_theta     66.97
_olex2_refinement_description
;
1. Fixed Uiso
 At 1.2 times of:
  All C(H) groups
2. Shared sites
{N2, C4}
3. Uiso/Uaniso restraints and constraints
Uanis(N2) = Uanis(C4)
4. Others
 Fixed Sof: O1(0.5) N1(0.5) N2(0.25) C3(0.5) H3(0.5) C4(0.25) C2(0.25) C5(0.5)
 H5(0.5) C6(0.25) F1(0.375) F2(0.375) B1(0.1875)
5.a Aromatic/amide H refined with riding coordinates:
 C3(H3), C1(H1), C5(H5)
;
_shelx_res_file
;
TITL FJU-14-BF4-a in I4/mmm #139
REM reset to I4/mmm #139
CELL 1.54184 14.124494 14.124494 19.904948 90 90 90
ZERR 2 0.00072 0.00072 0.000978 0 0 0
LATT 2
SYMM -Y,+X,+Z
SYMM -X,-Y,+Z
SYMM +Y,-X,+Z
SYMM +X,-Y,-Z
SYMM -X,+Y,-Z
SYMM +Y,+X,-Z
SYMM -Y,-X,-Z
SFAC C H B Cl Cu F N O
UNIT 72 48 6 2 8 24 24 24
EADP N2 C4
EXYZ N2 C4

L.S. 4
PLAN  5
BOND
fmap 2
acta
OMIT 1 3 2
OMIT 0 0 2
OMIT 1 1 4
OMIT 1 2 7
OMIT 1 4 1
OMIT 0 4 2
OMIT 1 2 5
REM <olex2.extras>
REM <HklSrc "%.\\FJU-14-BF4-a.hkl">
REM </olex2.extras>

WGHT    0.320000
FVAR       2.68256
CU1   5    0.179526    0.000000    0.000000    10.25000    0.03512    0.03428 =
         0.00691    0.00000    0.00000    0.00000
CL1   4    0.000000    0.000000    0.000000    10.06250    0.03424    0.03424 =
         0.07257    0.00000    0.00000    0.00000
PART 1
O1    8    0.201738   -0.089521   -0.074390    10.50000    0.05744    0.04105 =
         0.01053    0.00241    0.01503   -0.00089
PART 0
PART 2
N1    7    0.173150   -0.105313   -0.068152    10.50000    0.04680    0.04490 =
         0.01530   -0.00522    0.01920   -0.01820
N2    7    0.195526   -0.195526   -0.159676    10.25000    0.05909    0.05909 =
         0.01963   -0.01261    0.01261   -0.01168
PART 0
PART 1
C3    1    0.278362   -0.161243   -0.188483    10.50000    0.10109    0.15750 =
         0.08161   -0.09799    0.05278   -0.08151
AFIX  43
H3    2    0.314368   -0.116498   -0.165634    10.50000   -1.20000
AFIX   0
PART 0
C1    1    0.307362   -0.192638   -0.250000    10.50000    0.14858    0.14858 =
         0.10284   -0.09717    0.09717   -0.09518
PART 2
AFIX  43
H1    2    0.353919   -0.146079   -0.250000    10.50000   -1.20000
AFIX   0
PART 0
PART 1
C4    1    0.195526   -0.195526   -0.159676    10.25000    0.05909    0.05909 =
         0.01963   -0.01261    0.01261   -0.01168
PART 0
PART 2
C2    1    0.227447   -0.227447   -0.221746    10.25000    0.06513    0.06513 =
         0.01577   -0.01907    0.01907   -0.01000
C5    1    0.221493   -0.114078   -0.124589    10.50000    0.04771    0.04599 =
         0.02188   -0.00605    0.01685   -0.00192
AFIX  43
H5    2    0.267151   -0.071291   -0.139130    10.50000   -1.20000
AFIX   0
PART 0
PART 1
C6    1    0.162314   -0.162314   -0.096386    10.25000    0.04892    0.04892 =
         0.00764   -0.00309    0.00309    0.01643

PART 0
F1    6    0.420164    0.000000   -0.155365    10.37500    0.07208    0.18609 =
         0.30761    0.00000    0.01868    0.00000
F2    6    0.500000   -0.066136   -0.243320    10.37500    0.18829    0.22012 =
         0.28969   -0.07990    0.00000    0.00000
B1    3    0.500000    0.000000   -0.179898    10.18750    0.07164    0.18752 =
         0.08888    0.00000    0.00000    0.00000

PART 1
OW    8    0.357061    0.000000    0.000000    10.25000    0.11669    0.46393 =
         0.04064    0.00000    0.00000    0.00000
HKLF 4

REM  FJU-14-BF4-a in I4/mmm #139
REM R1 =  0.1123 for    1008 Fo > 4sig(Fo)  and  0.1215 for all    1191 data
REM     86 parameters refined using      0 restraints

END

WGHT      0.2000      0.0000

REM Highest difference peak  1.419,  deepest hole -2.154,  1-sigma level  0.289
Q1    1   0.4175  0.0000  0.0000  10.25000  0.05    1.41
Q2    1   0.5000  0.0000  0.0000  10.12500  0.05    1.38
Q3    1   0.0000  0.0000 -0.2362  10.12500  0.05    1.17
Q4    1   0.4845 -0.1385  0.0000  10.50000  0.05    1.14
Q5    1   0.4705 -0.0404 -0.0671  11.00000  0.05    1.02
;
_shelx_res_checksum              99339
_shelx_hkl_file
;
   0   0   2 626907. 5860.75   3
   0   0   2 589752. 4905.37  20
   0   0   2 649594. 5230.53   1
   0   0  -2 588940. 13445.5  10
   0   0   2 624050. 7167.88  18
   0   0   4 430012. 8389.06  18
   0   0   4 409038. 6911.19   3
   0   0   4 413433. 6404.54   1
   0   0  -4 418595. 10475.9  21
   0   0   6 126762. 5672.62  18
   0   0  -6 140640. 11268.7  10
   0   0   6 144672. 5205.47   3
   0   0   8 211030. 7546.15   3
   0   0   8 185893. 8221.39  18
   0   0  -8 214490. 16010.3  10
   0   0  10 74826.4 5297.16   3
   0   0 -10 78176.1 9335.93  24
   0   0  10 74262.5 5990.61  18
   0   0 -10 66276.1 6378.37   2
   0   0 -12 559112. 28016.3  24
   0   0  12 566201. 18569.4  18
   0   0 -12 600773. 21007.1   2
   0   0 -14 443204. 7263.45   7
   0   0  14 402355. 17424.2  18
   0   0 -14 463544. 7230.76   8
   0   0 -14 426294. 18618.8   2
   0   0 -16 235722. 5617.96   7
   0   0  16 210551. 13606.9  18
   0   0 -16 225121. 5424.96   8
   0   0 -16 182677. 18341.0  24
   0   0 -16 175338. 13394.1  12
   0   0 -18 74830.8 3244.09   7
   0   0 -20 14641.4 1359.74   7
   0   0 -22 8842.47 940.441   7
   0   0 -24 27601.1 1210.50   7
   0   1   1 289222. 4749.89   3
   1   0   1 342734. 4854.69  18
   0   1   1 300652. 4171.40  18
  -1   0   1 309186. 4704.00  21
   1   0   1 299846. 3668.15   2
   1   0   1 319331. 6662.21  20
   0   1   1 295466. 4967.01   1
   0  -1  -1 277352. 7149.01  10
  -1   0   1 269410. 5911.57   3
  -1   0   1 285721. 2634.84  18
   0  -1  -1 302649. 2763.65  23
  -1   0   1 298201. 3817.83  19
  -1   0  -1 308227. 4577.71  19
   1   0  -1 329490. 5946.80   2
  -1   0   3 88344.7 3009.20  18
   0  -1   3 88916.2 2041.82   3
   1   0  -3 106113. 7184.83  10
   0  -1  -3 74611.1 5950.91  10
   1   0   3 88994.5 4586.82   9
   0  -1   3 89840.9 3662.89  18
   0   1   3 88025.0 3324.17  18
   1   0   3 94586.3 3808.83  18
  -1   0   3 101966. 3559.39   3
   1   0   3 85640.9 2790.11   1
   0   1  -3 103831. 3779.87   2
  -1   0  -3 70367.6 5385.91  10
   0  -1  -3 89264.1 3356.86  21
   0   1   3 88674.5 3344.19   1
   0  -1   3 81444.4 3991.75  20
   1   0   3 94498.6 3815.24  20
   1   0  -3 102436. 4772.51   2
   0   1   3 87678.8 3394.45   3
   0   1   5 74819.4 3808.89   1
   0  -1   5 68431.0 3293.72   9
   1   0   5 61576.3 4513.08   9
  -1   0  -5 64791.1 7158.41  10
   0  -1   5 68550.5 2662.04  20
   0  -1   5 73967.4 4225.63  18
   0   1  -5 87413.9 4846.44   2
   0   1   5 73383.9 3908.17   3
   0   1  -5 74490.2 6787.28  24
  -1   0   5 82933.4 3934.52   3
   1   0   5 65056.4 4047.77  18
   0  -1  -5 65302.2 4122.21  21
   1   0   5 72146.1 2992.85   1
  -1   0  -5 63788.2 5751.97  21
   0  -1  -5 59869.8 7183.24  10
   0   1   5 69047.0 3905.82  18
  -1   0   5 68748.8 3656.93  18
   1   0   5 65010.1 3451.59  20
   1   0  -5 86509.4 5583.49   2
   1   0  -5 81438.0 8375.40  10
   1   0   5 74167.2 3568.57   3
   0  -1   5 72787.2 2866.26   3
   0   1  -7 56117.4 4634.58   2
   1   0   7 47891.8 2776.50   1
   0  -1   7 48253.1 3981.54  18
   0   1   7 50253.6 3766.41   3
   0  -1   7 49452.8 2970.64   3
  -1   0   7 47112.4 3672.98  18
   0  -1  -7 45232.1 4322.74  21
   0   1  -7 55791.7 6700.82  24
   0   1   7 52762.3 4055.67  18
   1   0  -7 54242.8 5096.29   2
   1   0   7 48147.6 4036.25  18
  -1   0  -7 40671.1 5097.05  21
  -1   0  -7 42347.5 6813.31  10
   1   0   7 47083.8 3335.37   3
  -1   0   7 55217.0 3845.34   3
   0  -1  -7 41988.7 7094.27  10
   0   1   9 56426.2 4624.32   3
  -1   0   9 67211.9 4925.67   3
  -1   0   9 54613.3 4632.40  18
  -1   0  -9 49348.2 8037.76  10
   1   0  -9 64631.8 6101.45   2
   0  -1   9 65460.2 4153.18   3
   0  -1   9 58117.8 4921.58  18
   0   1   9 57376.3 4943.76  18
   0   1  -9 62582.2 5524.84   2
   0   1  -9 57405.3 7670.73  24
   0  -1  -9 41211.8 4756.84  21
   1   0   9 59088.0 5065.03  18
  -1   0  -9 43509.8 5805.31  21
   1   0   9 54706.0 4186.85   3
   1   0  -9 61000.6 7475.32  24
   0  -1  -9 41947.7 7909.62  10
   0   1 -11 133418. 8873.49   2
   1   0 -11 136330. 9740.01   2
   1   0  11 132287. 8661.66  18
  -1   0  11 161140. 8826.86   3
  -1   0  11 135948. 8345.00  18
   0  -1 -11 129140. 9724.39   2
   1   0 -11 136825. 12595.9  24
  -1   0 -11 135180. 13259.6  24
   1   0  11 136087. 7525.67   3
   0   1  11 137904. 8672.49  18
   0  -1  11 133073. 8577.56  18
   0   1  11 147083. 8533.07   3
   0   1 -11 133600. 13258.3  24
  -1   0 -11 134428. 9257.37   2
   0  -1 -11 122624. 14299.7  10
   0   1 -13 150508. 15354.2  24
  -1   0  13 161614. 10271.6  18
   0  -1 -13 155620. 11594.8   2
  -1   0 -13 152094. 15648.6  24
   0  -1  13 160660. 10453.3  18
   0   1  13 162491. 10605.2  18
   1   0  13 157513. 10587.8  18
  -1   0 -13 159746. 10833.8   2
   1   0 -13 148271. 14479.0  24
   0  -1 -13 145661. 14743.3  24
   1   0 -13 158865. 11291.5   2
   0   1 -13 170084. 10636.7   2
   0   1 -13 143724. 10958.8  12
   0  -1 -15 120021. 3973.85   7
   1   0 -15 121188. 3807.23   8
  -1   0 -15 110139. 3756.92   8
   0   1 -15 111111. 3619.41   8
   1   0  15 118566. 10083.5  18
   0  -1  15 105530. 9262.93  18
   0  -1 -15 101164. 9736.91   2
  -1   0  15 109948. 9283.68  18
  -1   0 -15 119053. 3952.89   7
   0   1  15 109236. 9454.51  18
  -1   0 -15 93343.2 9232.68  12
   1   0 -15 105252. 9486.45   2
  -1   0 -15 97685.9 13475.7  24
   1   0 -15 88731.2 12065.0  24
   0  -1 -15 98801.8 13044.1  24
   0  -1 -15 112765. 3868.39   8
   1   0 -15 98238.6 9971.04  12
   0   1 -15 113785. 3796.82   7
   0   1 -15 95824.1 13104.9  24
   0   1 -15 92260.3 9557.34  12
   1   0 -17 38672.4 6645.46  12
  -1   0  17 46230.1 6323.96  18
   0   1 -17 39851.0 6522.49  12
   0   1  17 50295.1 6717.63  18
   0  -1 -17 55229.1 2821.51   7
   1   0 -17 52886.1 2627.85   8
  -1   0 -17 35811.0 8455.49  24
   0  -1 -17 36825.7 6230.37  12
   1   0 -17 53664.8 2726.51   7
  -1   0 -17 54972.9 2812.32   7
   0  -1 -17 41288.0 8938.32  24
   0  -1  17 50492.9 6852.33  18
  -1   0 -17 39957.7 6401.97  12
   0  -1 -17 50719.4 2711.64   8
   0   1 -17 40621.5 8923.05  24
   1   0  17 52897.5 7059.44  18
   0   1 -17 53122.6 2671.22   7
   0   1 -17 50191.2 2535.34   8
   0   1 -19 17023.4 1480.39   7
   0  -1 -19 18506.1 1610.18   7
   1   0 -19 17554.0 1503.15   7
  -1   0 -19 17994.9 1587.89   7
   0  -1 -21 4541.57 732.178   7
   1   0 -21 4320.26 696.046   7
  -1   0 -21 4646.68 763.064   7
   0   1 -21 4520.26 705.999   7
  -1   0 -23 9383.54 865.633   7
   0   1 -23 9500.38 812.552   7
   1   0 -23 9201.42 818.218   7
   0  -1 -23 9485.69 877.835   7
   1   1   0 37473.1 1128.89  18
  -1   1   0 32476.8 2125.66  24
   1  -1   0 32779.2 3291.14  20
  -1   1   0 30705.3 2282.15   3
  -1   1   0 38083.6 1244.04  19
   1  -1   0 22253.0 1664.42  10
   1   1   0 32537.7 1625.58   1
   1   1   0 33801.4 1705.14   2
  -1  -1   0 34868.3 1288.20  19
   1   1   2 32991.9 1823.60  18
  -1   1   2 33750.0 2250.56   3
   1   1  -2 35810.2 2685.07  24
  -1  -1  -2 28598.8 2904.98  10
  -1   1  -2 36478.5 2139.03  22
   1   1   2 30455.2 1846.84   1
  -1  -1  -2 32269.5 1897.96  19
  -1   1   2 32463.2 1627.38  18
  -1   1  -2 33683.6 1998.19  12
   1   1  -2 34893.4 2146.57   2
   1  -1   2 31751.5 3203.67  20
  -1  -1   4 63631.6 2559.91   3
   1   1  -4 65540.1 3917.03   2
   1   1   4 49327.8 3028.99  18
   1  -1  -4 51269.5 2145.89  21
   1   1   4 51744.0 2823.94   1
  -1   1   4 50839.7 2782.52  18
   1  -1  -4 47010.7 5728.22  10
   1  -1   4 54249.6 3691.78  20
  -1   1  -4 47800.4 4965.18  21
  -1  -1  -4 46850.1 5335.69  10
  -1  -1  -4 51331.0 3884.15  21
  -1   1  -4 55358.8 3472.23  12
   1  -1   4 52957.3 3401.98  18
  -1   1   4 58080.1 3405.52   3
   1   1  -4 57896.5 4732.09  24
  -1   1  -4 57852.0 5436.90  10
   1  -1   4 51700.9 1838.11   1
   1   1   4 53530.7 2997.39   3
  -1   1  -4 65045.4 3808.40  22
  -1  -1   4 52545.0 2924.33  18
  -1  -1   6 8510.60 1174.83   3
   1   1   6 7169.30 1217.65   1
   1   1   6 6647.13 1309.55   3
  -1  -1   6 5501.07 1166.91  18
   1  -1   6 5665.81 1094.73  20
   1   1  -6 8380.75 1796.97   2
  -1   1  -6 5135.01 1923.41  24
  -1   1   6 6933.14 1367.98   3
   1  -1   6 5798.68 689.679   1
   1  -1   6 5374.06 1280.93  18
   1  -1  -6 7358.19 2927.39  10
  -1  -1  -6 5403.90 1654.47  21
   1   1   6 5254.69 1226.69  18
   1  -1  -6 3934.24 896.778  21
  -1   1   6 4560.85 1067.23  18
   1   1  -6 5399.54 1937.22  24
  -1   1  -6 3576.66 1636.81  21
  -1   1  -6 7816.92 2423.29  10
  -1  -1  -6 5940.53 2035.60  10
   1  -1   6 6601.61 1471.83   9
   1  -1   6 7189.74 1110.71   3
   1  -1  -8 1135.29 594.246  21
   1  -1  -8 2099.10 2416.77  10
   1   1  -8 1341.34 913.793   2
   1   1  -8 2030.13 1454.27  24
  -1  -1  -8 1391.03 2224.11  10
   1  -1   8 1955.80 1026.41  18
  -1   1   8 1688.85 812.740  18
   1  -1   8 1889.19 844.759   9
  -1  -1   8 1736.72 824.557  18
  -1   1   8 1175.93 770.699   3
  -1   1  -8 628.799 1649.80  24
   1   1   8 1679.86 627.160   1
   1  -1   8 1028.42 570.499  20
  -1  -1  -8 1480.33 1120.91  21
   1  -1   8 1353.57 670.212   3
   1   1   8 678.254 486.270   3
  -1   1  -8 1834.08 1130.81   2
  -1  -1   8 1719.45 605.692   3
   1   1   8 2094.74 969.225  18
  -1   1  10 48901.9 4762.61  18
   1  -1 -10 45860.1 8454.01  10
   1  -1  10 48593.5 4984.97  18
  -1   1 -10 50824.2 5059.41   2
  -1  -1 -10 34718.5 7302.71  10
  -1   1 -10 44651.3 4996.68  12
  -1   1 -10 55618.8 8232.86  24
   1   1 -10 45978.2 6966.84  24
  -1  -1 -10 36434.3 5319.88  21
   1   1  10 45967.6 4405.01   3
   1   1  10 52403.2 5141.46  18
   1  -1  10 47583.8 3860.25   3
  -1   1  10 57671.3 5258.27   3
   1  -1 -10 45668.2 5583.26   2
   1   1 -10 42168.6 4855.12   2
  -1  -1  10 48172.1 4672.99  18
  -1  -1  12 24267.7 3723.89  18
   1  -1 -12 18550.2 3837.21   2
  -1   1  12 23188.2 3758.83   3
   1   1  12 22765.4 3823.19  18
  -1   1 -12 22337.9 4068.81  12
  -1  -1 -12 16844.1 3685.83   2
  -1   1 -12 21663.0 5741.00  24
  -1   1 -12 18430.2 3266.41   2
  -1   1  12 27419.1 4007.52  18
   1   1 -12 23377.8 5656.12  24
   1  -1  12 22832.9 3904.66  18
   1   1  12 22706.3 3444.51   3
  -1  -1 -12 17450.8 6027.74  10
   1   1 -12 19451.7 3596.47   2
   1  -1 -12 23209.0 5561.86  24
  -1  -1 -14 15238.6 1393.17   8
   1  -1 -14 18572.8 5395.64  24
   1   1 -14 12256.9 3028.67   2
  -1   1 -14 17160.9 5286.25  24
   1  -1  14 19526.3 3923.22  18
   1   1 -14 18536.7 4183.35  12
  -1  -1 -14 17101.4 1473.87   7
   1  -1 -14 18791.8 1515.64   8
  -1   1 -14 15948.8 1406.61   7
  -1  -1 -14 18868.9 5740.98  24
  -1  -1  14 20221.6 3747.75  18
  -1   1 -14 15658.9 1319.99   8
   1   1  14 21877.6 4182.14  18
  -1   1 -14 16792.3 3799.50  12
  -1  -1 -14 14390.0 3709.19   2
  -1   1  14 21028.6 3936.55  18
   1   1 -14 17009.3 5241.13  24
   1   1 -14 17764.1 1406.04   8
   1  -1 -14 12752.3 3566.23   2
   1   1 -14 28990.2 2038.32  14
   1  -1 -16 10751.0 1213.22   8
   1  -1 -16 10664.0 3600.34   2
  -1  -1 -16 9044.54 4368.80  24
  -1  -1 -16 12329.2 1310.45   7
   1  -1  16 8523.02 2764.35  18
  -1   1 -16 11115.4 3358.28  12
   1   1  16 16680.0 3853.96  18
   1   1 -16 11106.1 1154.91   8
  -1  -1  16 15512.0 3582.39  18
   1   1 -16 11673.7 1204.45   7
  -1   1  16 8049.12 2595.35  18
  -1  -1 -16 8173.73 2790.91  12
  -1   1 -16 3952.51 2987.84  24
   1   1 -16 8977.33 3361.91  12
  -1   1 -16 10356.2 1194.58   7
   1  -1 -18 10397.7 1217.27   7
  -1  -1 -18 10778.6 1272.13   7
  -1   1 -18 9764.55 1179.51   7
   1   1 -18 10533.5 1179.54   7
   1  -1 -18 10389.2 1201.68   8
   1   1 -18 9624.26 1076.27   8
  -1   1 -20 1670.05 524.543   7
   1   1 -20 1147.84 411.429   7
  -1  -1 -20 1717.80 540.405   7
   1  -1 -20 1531.06 478.446   7
  -1  -1 -22 1552.37 440.015   7
   1  -1 -22 1508.75 396.335   7
  -1   1 -22 1261.40 383.002   7
   1   1 -22 1236.76 347.906   7
  -1  -1 -24 3496.37 456.874   7
   1  -1 -24 3177.25 426.471   7
  -1  -1 -24 4301.78 581.403   4
   0  -2   0 40174.7 2695.83  10
  -2   0   0 45438.7 3552.26  21
   2   0   0 49693.1 3417.18  20
   0   2   0 42886.6 2294.15   1
  -2   0   0 37995.2 1977.36  11
   0   2   0 44688.8 2127.80   3
  -2   0   0 41444.3 1966.76  19
   2   0   0 42465.5 2173.85   2
   0  -2   0 43769.5 1510.10  23
  -2   0   2 78230.7 2815.51  19
   0   2   2 75854.2 3487.51   1
   0  -2  -2 79892.1 2046.66  23
   0   2  -2 61031.9 2383.93   3
   2   0  -2 84098.6 4099.88   2
  -2   0  -2 80733.3 3365.63  19
   2   0   2 77802.2 2618.58   2
   2   0  -2 91983.7 4122.12  20
   2   0   2 87391.7 3418.23  18
   2   0   2 87730.9 4657.81  20
  -2   0   2 76815.4 1906.05  18
   0   2  -2 80033.9 2595.96   2
   0  -2  -2 69626.1 5105.35  10
   0   2   2 78676.4 3031.45  18
  -2   0  -2 82992.9 2188.32  12
  -2   0   2 79822.1 3567.37  21
  -2   0  -2 71279.6 3851.70  10
   0   2  -2 71505.5 2429.91   1
   0   2   2 74226.4 3329.86   3
  -2   0   2 62576.9 4376.70   3
   2   0   4 81010.7 4263.38  18
   0   2   4 78448.0 4127.48   1
   2   0  -4 81748.2 2900.20  20
   0   2   4 72598.0 3968.74   3
   0  -2  -4 76476.8 3864.16  21
   0   2  -4 83481.3 3511.06   2
  -2   0   4 83769.9 4888.68   3
   2   0   4 85763.4 4769.03  20
   0  -2  -4 62482.8 6558.81  10
  -2   0  -4 67035.2 5920.12  10
   0  -2   4 61457.7 4832.63  20
   2   0   4 78735.8 5637.75   9
   2   0  -4 85139.7 5287.58   2
  -2   0   4 75946.7 3079.13  18
   2   0   4 75185.1 3376.14   1
   0   2   4 80040.6 3797.08  18
   2   0  -4 91053.3 5012.22  24
   2   0   6 61869.8 4223.30  20
   2   0   6 69881.3 3452.86   1
   0   2  -6 71517.0 5192.96  12
   0   2  -6 71306.1 7331.21  24
   2   0  -6 72068.5 5929.38  24
  -2   0  -6 58343.4 6903.29  10
   0   2  -6 76691.6 4356.01   2
   0  -2   6 69920.6 4572.74  18
   0  -2   6 69205.4 2476.85   3
   0   2   6 62691.5 4121.21  18
  -2   0   6 79750.5 5069.38   3
   0  -2  -6 50012.3 7067.64  10
   2   0  -6 78132.5 5837.21   2
  -2   0   6 63022.3 3643.75  18
   2   0   6 66821.1 4497.96  18
   0   2   6 66674.0 4394.02   3
   0   2   6 68843.9 4465.94   1
   0  -2  -6 58200.8 4110.29  21
  -2   0  -6 53976.4 6179.76  21
   0  -2   6 64839.3 3759.41  20
   0   2  -6 77638.6 5377.59  22
   2   0   6 68800.8 5540.04   9
   2   0   8 41869.5 4136.63  18
   2   0   8 37366.0 3473.32  20
   0   2   8 39546.7 3847.61  18
  -2   0  -8 31197.5 5268.01  21
   2   0  -8 42301.5 5477.30  24
  -2   0   8 38520.1 3479.80  18
   2   0   8 45496.7 3673.98   3
  -2   0   8 57076.2 4864.20   3
   0  -2   8 37127.5 3801.12  18
   2   0  -8 46930.1 5108.18   2
  -2   0  -8 39836.9 6734.44  10
   2   0   8 38539.0 4410.43   9
   0   2   8 47013.4 4237.76   3
   0  -2   8 52296.1 2824.52   3
   0   2  -8 38381.9 4423.77  12
   2   0   8 44489.2 2986.60   1
   0  -2  -8 35327.5 6901.34  10
   0   2  -8 38749.1 6133.71  24
   0  -2  -8 32229.8 3778.45  21
   0   2  -8 49004.3 4136.87   2
   0   2  10 26294.3 3582.57   3
   2   0  10 24189.2 3013.98   3
   0   2 -10 27753.8 4259.11  12
   0   2 -10 27456.2 3551.45   2
  -2   0 -10 20275.6 5658.87  10
   2   0 -10 22318.6 4582.91  24
   0   2 -10 21566.3 5110.85  24
  -2   0  10 25910.5 3330.51  18
   0  -2 -10 19792.1 5658.96  10
  -2   0 -10 17824.8 4275.94  21
  -2   0  10 29291.8 4045.20   3
   0  -2  10 24553.4 3498.90  18
   0   2  10 26402.1 3628.73  18
   2   0  10 28422.2 3899.07  18
   2   0 -10 24060.7 4000.34   2
  -2   0  12 6899.51 2016.74  18
   0   2  12 8012.90 2219.34   3
   2   0  12 6456.13 2073.95  18
   0   2 -12 6458.42 3254.37  24
   0  -2 -12 4943.05 3783.91  10
   2   0 -12 7559.67 2512.28   2
   2   0  12 5833.83 1690.94   3
   0  -2  12 5174.19 1840.07  18
   0   2  12 5364.62 1986.84  18
   2   0 -12 5021.12 2655.24  24
  -2   0 -12 4121.63 1886.39  12
  -2   0 -12 3904.70 1688.99   2
   0   2 -12 4651.25 1941.50  12
  -2   0 -12 7026.75 3369.86  24
   0  -2 -14 12121.0 4390.95  24
  -2   0  14 12284.1 2923.55  18
   2   0  14 10147.0 2876.30  18
  -2   0 -14 9832.49 2969.66  12
   0   2 -14 16644.4 1578.91  14
  -2   0 -14 5241.95 3334.95  24
   2   0 -14 15002.4 3593.77   2
   2   0 -14 18534.7 1466.07   8
   0  -2 -14 14422.7 3637.58   2
   0  -2  14 11582.0 3092.67  18
   0   2 -14 10874.4 4509.95  24
   0   2 -14 15951.5 1265.96   8
   0  -2 -14 14694.0 1497.93   8
   0   2 -14 8862.53 2951.11  12
   0   2  14 12857.6 3150.71  18
  -2   0 -14 16127.2 1460.47   7
   0   2 -16 13708.7 1318.77   7
   2   0 -16 10674.4 3478.26  12
   0  -2 -16 13991.8 1444.74   7
   0  -2 -16 15442.4 3986.97   2
  -2   0 -16 10171.7 2925.97  12
  -2   0  16 11406.5 3195.16  11
   0  -2 -16 12708.7 4772.62  24
   0   2 -16 8071.54 4133.59  24
   0   2 -16 12150.1 1205.74   8
   0   2  16 9253.87 2607.55  18
   0  -2  16 11556.9 3159.33  18
   2   0 -16 15778.4 1384.32   8
  -2   0 -16 10223.8 4290.63  24
  -2   0 -16 14173.2 1438.55   7
   2   0  16 12657.5 3427.04  18
   0   2 -16 7817.67 2907.07  12
   0  -2 -16 12911.3 1415.87   8
   2   0 -16 12739.2 3410.13   2
  -2   0  16 10816.5 2705.70  18
  -2   0 -18 373.841 325.177   7
   0  -2 -18 879.278 395.693   7
   0   2 -18 675.720 417.921   7
   2   0 -18 850.466 346.708   7
   2   0 -18 484.833 320.222   8
   2   0 -20 7251.65 921.376   7
   0   2 -20 6955.29 896.005   7
  -2   0 -20 7201.01 988.155   7
   0  -2 -20 7413.05 1002.30   7
   2   0 -22 5451.44 690.531   7
   0  -2 -22 5446.91 746.588   7
   0   2 -22 5700.43 677.889   7
  -2   0 -22 5462.53 733.291   7
  -2   0 -24 498.438 172.524   7
   0  -2 -24 690.671 237.124   7
  -2   0 -24 650.321 270.413   4
   2   1   1 11008.3 1337.42   1
   2  -1  -1 12611.8 1507.66   2
   2   1   1 8012.39 876.870  22
   2   1  -1 10556.8 866.791  23
   2   1  -1 12612.3 1239.35  12
   1   2   1 11570.7 1283.01   1
   2  -1  -1 10098.4 2114.10  20
  -2   1   1 6701.15 921.679  24
   1  -2  -1 10337.4 869.483  23
  -1  -2   1 10163.0 782.153  19
  -2  -1   1 10051.5 991.359  19
  -1  -2  -1 9812.79 868.266  19
  -1   2  -1 9608.20 1503.37   3
   2   1   1 10432.7 724.076  23
   2   1  -1 10877.2 1238.10  22
   1   2   1 9294.60 940.103  18
   1  -2   1 11038.9 1036.65  10
  -1   2   1 9341.45 602.020  19
  -2   1   1 9563.40 1802.98   3
   2   1  -1 10644.3 1602.76   9
  -2   1  -1 19246.2 1638.96  11
   2   1   1 11218.0 1176.00   2
  -2  -1  -1 19584.0 1437.39  11
  -2  -1   1 19930.1 1368.74  11
  -2   1  -1 7550.90 1637.53   3
  -2  -1  -1 11591.6 1657.58  10
   1  -2   1 6832.05 1902.93  20
   1  -2  -1 9022.46 1742.45  10
   1   2  -1 11404.2 1199.46   2
   1   2  -1 10452.6 817.867   3
   1   2   1 10955.4 1131.85   3
  -2   1   1 20558.3 1534.28  11
  -2   1  -1 11631.4 1764.94  24
  -2   1   1 9402.56 896.197  19
   2   1   1 9325.52 1372.26  20
  -1   2   1 9219.40 1051.84  18
   2   1  -1 10734.4 1257.53  20
   1   2  -1 11445.7 1108.93   1
   2   1  -1 11747.2 1310.80   2
   2   1   1 9921.53 865.850  18
   2  -1   1 11174.3 844.362   2
  -1   2   1 13184.2 1544.83   3
  -2   1  -1 9358.59 1039.97  19
  -1   2   1 20360.1 1255.07  11
   2   1   1 11202.3 1939.04   9
  -2  -1  -1 9328.54 1009.82  19
   2  -1   1 8445.35 1952.92  20
  -1  -2  -1 11431.8 1814.49  10
  -2  -1   1 10869.5 1297.92  21
  -2  -1   3 13861.1 2107.30   3
   1  -2   3 21503.8 3243.03  20
  -1   2  -3 19872.6 891.678   2
  -2  -1  -3 22355.0 3073.65  10
   1   2   3 21844.8 1963.65   3
  -1   2   3 24027.2 2319.73   3
  -2   1   3 24362.7 2792.17   3
  -2  -1   3 24328.4 1461.94  18
  -1   2  -3 25481.6 2560.88  22
   2   1   3 22770.8 2018.19   1
   2  -1  -3 24905.8 2747.50   2
  -2   1   3 25368.3 1814.58  19
  -2   1  -3 20848.5 2633.20  10
  -2  -1   3 26569.3 1920.13  11
  -2  -1   3 26529.8 1954.47  19
   1   2   3 26095.4 2009.29  18
   2   1   3 26186.7 2057.72  18
   1   2  -3 23369.5 3174.86  24
  -2   1   3 24911.9 1666.43  18
   2  -1  -3 21893.3 3013.70  20
  -2   1  -3 31194.5 4058.98  24
  -2   1  -3 29474.0 2106.16  22
  -1  -2  -3 25128.9 2532.05  21
   2  -1   3 27665.0 3333.86  20
   2   1  -3 29044.9 2732.17  22
   2   1  -3 22064.4 2234.93  24
  -2   1  -3 25317.5 2237.42  19
   1   2   3 20450.7 2031.11   1
  -2  -1   3 25133.2 1651.34  21
  -2  -1  -3 23265.3 2165.53  19
  -2   1   3 24289.2 1882.78  11
   1   2  -3 23131.2 1960.25   2
  -2   1  -3 23555.7 1915.03  12
   2  -1  -3 21382.5 3586.90  10
   1  -2  -3 23697.7 1602.65  23
   2   1  -3 24225.4 2416.65   2
  -1  -2  -3 19411.2 3276.22  10
   1   2  -3 21014.5 1218.39   1
  -1   2   3 23584.7 1668.27  11
   2   1   3 23721.7 2477.75  20
   2   1   3 22000.5 2941.33   9
   2   1   3 24351.5 1563.34  23
   1  -2  -3 16188.5 3053.99  10
  -1   2   3 24214.3 1907.66  18
  -1   2  -5 19092.3 2522.95  12
  -1   2   5 18389.3 2059.35  18
   2  -1   5 19461.6 2694.86  20
   1   2   5 18537.8 2218.00   3
   2   1   5 19712.1 2302.39  18
   2   1   5 17606.9 2326.53  20
  -2  -1  -5 17215.2 3883.92  10
  -1  -2   5 12644.8 1745.23  20
   2   1  -5 16943.7 2848.19  24
   2  -1  -5 19741.3 4197.37  10
  -1   2   5 20911.4 2529.52   3
   2  -1  -5 14097.7 2361.84  20
   1  -2   5 17471.8 2730.90  20
   2   1   5 19012.9 2028.82   1
   1   2  -5 16301.8 3309.86  24
   1   2  -5 21330.8 2424.85   2
  -1  -2  -5 17034.0 2592.23  21
   1   2   5 18981.1 2307.19  18
   2  -1   5 21399.9 2569.42  18
   1  -2   5 11309.6 740.374   1
   1  -2   5 19394.6 2433.97  18
   2  -1   5 17120.8 1610.07   1
   2  -1  -5 16909.5 1771.51  23
  -2   1  -5 19075.4 3694.88  10
  -2  -1   5 14729.9 2057.11   3
  -2   1  -5 16217.0 3704.43  21
   2   1  -5 22548.1 2823.74   2
  -2   1   5 16230.5 1781.00  18
   2  -1  -5 17791.3 3110.56   2
   1   2   5 19349.2 2194.25   1
  -1   2  -5 21117.2 2754.58  22
   2   1   5 17164.4 2854.26   9
  -2   1  -5 19048.0 2272.82  12
   1  -2  -5 16267.6 1684.49  21
  -2   1   5 20968.5 2715.90   3
  -1  -2  -5 15870.8 3851.38  10
  -1  -2   5 21193.4 2297.87  18
  -2  -1   5 13896.9 999.113  21
  -2  -1  -5 15470.9 2924.17  21
  -2  -1   5 18472.1 1812.00  18
  -1   2  -5 19821.4 1663.24   2
   1  -2  -5 12549.9 3635.17  10
  -1   2  -7 5566.51 1275.06   2
   1  -2  -7 3580.93 1018.00  21
   2  -1   7 4299.65 820.155   1
  -2   1  -7 3998.14 2365.49  21
   2   1  -7 5429.61 1641.43   2
   2   1  -7 5368.09 1986.04  24
  -1   2   7 4341.71 1256.71  18
  -2  -1   7 4453.90 1320.15   3
   2   1   7 5074.88 1192.08   1
   1   2  -7 4448.49 1373.81   2
   2  -1  -7 6540.35 2892.03  10
   1   2   7 5412.73 1381.20   1
   1  -2  -7 3340.27 2871.53  10
   1  -2   7 4477.82 859.711   3
  -2   1   7 4641.16 1192.12  18
   1   2   7 4715.28 1314.60  18
   1   2  -7 4471.83 1543.41  12
   2  -1   7 5178.77 1839.46   9
  -2   1  -7 3701.08 1968.16  24
  -1  -2  -7 2558.33 2213.19  10
   2  -1   7 5010.41 1482.53  18
   2  -1  -7 6185.39 2165.05   2
  -2  -1  -7 2582.68 2156.29  10
   2  -1   7 4547.03 1357.60  20
   1  -2   7 3855.04 1162.08  20
  -2  -1   7 4800.99 1173.63  18
  -2   1  -7 3408.90 1261.58  12
   2  -1  -7 3576.16 947.893  20
  -1   2  -7 5375.95 2598.59  24
  -1  -2  -7 3845.98 1522.20  21
   1  -2   7 3423.22 1266.42  18
   1   2   7 5556.45 1438.51   3
  -1   2  -7 3805.71 1411.19  12
   1   2  -7 3638.54 2258.45  24
  -1   2   7 6304.00 1627.84   3
   2   1   7 5960.38 1448.80   3
  -2   1   7 5592.09 1640.03   3
  -2   1  -7 4698.08 2550.06  10
   2   1   7 5027.44 1467.67  18
  -1  -2   7 5011.16 1347.68  18
  -2  -1  -7 2187.68 1231.35  21
  -2   1  -9 870.600 1377.24  24
   2  -1   9 1682.18 782.366  20
  -1   2  -9 1794.56 1750.32  24
   1   2  -9 1949.72 2279.50  24
   2   1   9 2250.48 1008.19   3
   1  -2  -9 991.740 2248.54  10
   1  -2   9 2164.59 1091.70  18
   2  -1   9 1037.49 805.987  18
   1   2  -9 1639.09 1003.65  12
  -1   2   9 1770.27 949.082  18
  -1   2   9 3070.66 1453.32   3
   2   1  -9 1458.60 1159.84   2
  -2   1   9 1699.34 881.269  18
  -2  -1  -9 1659.57 1390.50  21
   2   1   9 1855.20 793.006   1
  -1  -2  -9 2323.59 2301.38  10
   1   2   9 2602.75 1256.36  18
  -2   1  -9 1150.01 883.948  12
  -1   2  -9 1405.57 1053.62  12
   1   2   9 1919.13 843.376   1
   2   1   9 1157.50 883.799  18
  -1  -2   9 1564.56 792.263  18
  -2  -1  -9 2567.42 2792.70  10
   1  -2   9 2473.10 693.931   3
  -1   2  -9 3184.97 1163.39   2
   2  -1   9 1804.47 814.153   9
   1   2   9 1826.53 926.404   3
   2   1  -9 3255.92 1888.80  24
   2  -1  -9 2912.67 1880.05   2
  -2   1  -9 2788.59 1409.97   2
  -2   1   9 2183.85 1240.18   3
  -1  -2  -9 752.518 847.830  21
   2  -1   9 2689.50 1013.35   3
  -2  -1   9 2381.20 1000.05  18
   1   2  -9 2787.72 1288.79   2
   1   2 -11 861.571 918.540  24
  -1  -2 -11 2348.52 2648.55  10
  -2  -1 -11-1678.03 2110.85  10
  -1   2  11 1538.96 1039.07   3
   2   1  11 1892.35 1129.62  18
  -1   2 -11 1899.65 1466.75  12
   1  -2 -11 1522.08 1863.93  10
  -2   1 -11 1818.47 2103.99  24
  -2   1  11 805.167 850.460   3
  -1  -2  11 1512.49 918.279  18
  -2   1 -11 916.076 1201.25  12
   2  -1 -11 561.123 980.340  24
   2   1 -11 2164.15 1455.92  24
   2   1  11 1158.88 868.130   3
  -2   1  11 1347.87 941.415  18
   1   2  11 2488.27 1406.76  18
  -1   2 -11 1767.20 1613.79  24
   2   1 -11 1050.59 1073.26   2
   1  -2  11 1093.30 849.010  18
  -2  -1  11 1029.72 663.818  18
   1   2 -11 872.726 1077.68  12
   2  -1  11 1110.46 976.049  18
  -1   2  11 1063.43 681.526  18
   2  -1  11 1439.16 770.815   3
   1   2 -11 1182.54 1079.47   2
   1  -2 -11 1197.97 1021.02   2
  -2  -1 -11 1277.71 1483.06  21
   1   2  11 1611.30 1118.08   3
   2  -1 -11 1420.35 1152.36   2
   2  -1 -13 1678.14 1129.56   2
   1   2  13 1620.43 1343.45  18
   1  -2 -13 3326.10 1968.92   2
   2   1 -13 1162.35 1280.96  12
   1   2 -13 3047.11 2009.28  12
   2   1 -13 1827.10 1658.72  24
  -2  -1 -13 5847.73 3539.90  10
  -1   2 -13 1246.08 1444.28  12
   2   1 -13 586.283 784.955   2
  -1   2  13 2436.81 1435.05   3
   2   1  13 1039.52 945.404  18
  -1   2 -13 2339.31 1302.09  24
  -1  -2 -13-1527.02 2216.65  10
  -1  -2  13 3549.59 1665.41  18
  -1   2  13 1000.19 888.718  18
   1   2  13 1579.53 1075.28   3
   1  -2 -13 4062.06 2434.96  24
   1   2 -13 928.406 1727.55  24
  -2  -1 -13 2518.46 1471.71   2
  -2   1 -13 3046.99 2450.71  24
  -2   1  13 1085.19 930.213  18
   2  -1  13 2973.30 1761.75  18
   2   1  13 2189.62 1187.83   3
  -2   1 -13 1594.45 1148.26  12
   1  -2  13 2073.01 1272.58  18
   2  -1 -13 3357.67 2159.56  24
  -2  -1  13 2535.77 1258.96  18
  -2  -1 -13 577.147 1406.21  24
   1   2 -13 3030.88 1412.65   2
   1  -2 -15 7174.85 4182.48  24
  -2  -1 -15 6932.29 1041.51   7
  -1   2  15 5747.01 2287.20  18
  -1  -2 -15 5348.58 2353.97   2
  -2  -1  15 5622.03 2046.60  18
  -2  -1 -15 1221.58 774.423  12
  -1   2 -15 5962.95 840.218   8
   2   1 -15 7336.17 2245.41   2
   1   2 -15 6025.40 954.666  14
   1  -2 -15 6372.82 2731.06   2
  -2   1 -15 3091.83 1963.08  12
   2   1 -15 5214.74 2436.05  12
  -1  -2 -15 7234.97 1035.75   7
  -1   2 -15 4068.54 2134.55  12
  -2   1 -15 5592.62 3428.53  24
  -1   2 -15 7750.58 3852.65  24
  -2  -1 -15 6545.48 3698.01  24
   1   2 -15 5458.55 2278.59  12
  -1  -2  15 4107.69 1781.11  18
   1   2 -15-1152.83 1739.41  24
  -2   1  15 3404.28 1593.68  11
  -2   1  15 4050.08 1743.91  18
  -2   1 -15 6680.04 966.251   7
   1  -2 -15 6539.73 984.262   8
   1   2 -15 6703.22 871.814   8
   2  -1 -15 8232.58 1030.01   8
  -1  -2 -15 6839.71 3775.83  24
  -1   2 -15 5517.67 825.781   7
   2   1  15 4622.47 2088.59  18
   2  -1  15 5637.16 2245.72  18
   1  -2  15 3665.03 1809.33  18
   1   2  15 4838.69 2055.39  18
   2   1 -15 5751.26 904.696  14
   1   2 -15 6818.25 905.050   7
   2  -1 -15 5300.60 2316.22   2
   2   1 -15 7264.83 938.556   8
   1  -2 -17 803.882 411.804   8
   2  -1 -17 574.734 363.621   8
  -1   2 -17 828.412 358.097   7
   2   1 -17 780.608 316.515   7
   1   2 -17 460.727 328.227   8
  -1  -2 -17-1501.10 1956.21  24
   2   1 -17 680.189 363.310   8
  -1  -2 -17 1069.32 480.747   7
  -1   2 -17 1809.22 1703.96  12
  -2   1 -17 766.278 433.618   7
   1  -2 -17 691.668 396.318   7
   1   2 -17 526.155 291.491   7
  -2  -1 -17 842.658 361.948   7
  -1  -2 -19 245.108 288.874   7
   2   1 -19 269.754 274.017   8
   1  -2 -19 391.919 277.109   7
   2  -1 -19 133.478 326.308   8
  -2   1 -19 434.077 365.252   7
   2   1 -19 224.806 317.956   7
   1   2 -19 26.6642 284.708   7
  -1   2 -19 218.108 237.898   7
   2  -1 -19 520.492 389.359   7
  -2  -1 -19 831.029 413.222   7
   1  -2 -21 779.444 327.080   7
  -2   1 -21 419.919 268.747   7
   1   2 -21 529.643 260.848   7
   2   1 -21 628.407 298.020   7
  -1  -2 -21 584.144 363.349   7
   2  -1 -21 548.535 297.437   7
  -2  -1 -21 522.633 393.017   7
  -1   2 -21 629.116 300.488   7
  -2   1 -23 253.639 245.998   4
   2  -1 -23 202.712 191.822   7
   1  -2 -23 288.405 189.140   7
  -1  -2 -23 75.4301 155.808   7
  -2   1 -23 115.810 172.718   7
  -1   2 -23 220.401 150.154   7
  -2  -1 -23-9.16317 144.357   7
   2   1 -23 95.2825 122.998   7
   2   2   0 116814. 2880.85  18
  -2   2   0 103878. 5667.23  24
   2  -2   0 110437. 7943.14  20
   2   2   0 109288. 4641.75  22
  -2   2   0 157993. 4608.51  11
  -2  -2   0 132943. 6344.70  10
  -2   2   0 106820. 6129.57   3
  -2   2   0 120526. 3253.17  19
  -2  -2   0 119256. 3507.73  19
   2   2   0 119575. 4506.54   2
   2  -2   0 82017.9 4247.76  10
   2   2   0 115617. 4457.90   1
   2  -2   2 560132. 18077.3  20
  -2  -2   2 564657. 7917.36  11
  -2   2   2 554634. 8655.44  11
  -2   2   2 583151. 7204.57  19
   2   2  -2 664154. 11280.3   2
  -2  -2  -2 622523. 9668.92  19
  -2   2   2 609773. 9256.94  18
   2  -2  -2 486393. 15554.5  10
   2   2  -2 598283. 9209.82   1
  -2  -2   2 623084. 10816.6  21
  -2   2  -2 586809. 11400.8  22
   2   2   2 613365. 10892.5   1
  -2  -2  -2 596478. 15032.3  10
   2   2   2 629797. 8792.81  18
   2  -2  -2 621444. 8373.93  23
  -2  -2   2 631895. 8594.74  19
   2   2  -2 683345. 11774.1  12
  -2   2  -2 689486. 17417.7  24
  -2   2  -2 610112. 10056.2  19
   2   2   2 622626. 4489.17  23
  -2   2   2 697680. 14796.4   3
   2  -2  -2 531610. 16926.3  20
   2   2  -2 612777. 11991.8  22
  -2  -2  -4 2575.41 1100.11  21
   2   2   4 2191.98 747.115   1
  -2  -2   4 1344.58 533.106  21
   2   2  -4 1783.75 1149.42  24
  -2   2   4 1122.15 472.686  18
   2  -2  -4 1924.74 539.538  23
  -2   2   4 702.430 437.856  11
   2   2   4 2154.69 843.352   3
  -2  -2  -4 1450.59 1149.73  10
   2   2  -4 1604.30 453.908   1
  -2   2  -4 1274.47 524.521  22
   2  -2  -4 1214.12 1290.76  20
   2  -2  -4 1891.93 1965.01  10
  -2   2   4 2010.74 934.169   3
  -2   2  -4 2178.95 1586.68  24
   2   2  -4 2207.34 814.203   2
  -2  -2   4 1496.54 576.272  18
   2   2  -4 2072.98 981.766  12
   2   2   4 1480.29 622.532  18
   2  -2   4 1473.46 736.133  20
   2   2  -6 11275.2 2738.01  24
  -2   2   6 11172.6 1650.32  18
   2   2   6 11759.8 1808.41   1
   2   2   6 12262.1 1938.25  18
   2  -2  -6 10044.3 1103.13  21
  -2   2   6 14775.4 2482.90   3
   2  -2  -6 6775.49 2198.08  20
   2  -2   6 9796.84 1898.01  18
  -2   2  -6 8964.08 1847.91  12
   2   2  -6 11746.8 2379.90  12
   2   2   6 11669.5 1887.20   3
   2  -2  -6 12558.7 3865.77  10
  -2  -2   6 11853.4 1691.64  18
   2   2  -6 13088.5 2184.18   2
  -2   2  -6 15498.9 2384.65  22
  -2   2  -6 13040.6 1267.85   2
   2   2  -6 9439.03 890.838   1
  -2   2   6 10941.1 1657.16  11
  -2   2  -6 11706.9 3235.51  24
  -2  -2  -6 9538.17 2265.64  21
   2  -2   6 11965.0 1153.31   1
   2  -2   6 10668.3 2239.89  20
  -2  -2  -6 9551.79 3126.63  10
  -2  -2   8 26334.6 2951.56  18
   2  -2   8 24272.0 3296.45  18
  -2   2   8 24900.7 2877.26  18
   2   2   8 25618.6 2901.49   1
   2   2   8 26223.5 3164.66   3
   2   2  -8 31112.9 3767.28   2
   2  -2  -8 16879.2 2865.25  20
  -2   2   8 31320.0 3956.74   3
   2  -2  -8 17995.3 5181.50  10
  -2   2  -8 32116.1 2666.06   2
  -2   2  -8 21802.8 3219.28  12
  -2  -2  -8 18693.5 4638.12  10
   2   2  -8 24855.7 4347.80  24
   2   2   8 23861.7 3160.62  18
   2   2  -8 25796.2 3902.18  12
   2  -2   8 27059.6 2578.85   3
  -2   2  -8 23216.5 5244.21  24
  -2  -2  -8 21152.0 3905.89  21
   2  -2   8 24005.3 2975.86  20
   2  -2   8 26041.4 3789.62   9
  -2   2 -10 72578.4 6517.25  12
  -2  -2 -10 62768.7 10055.9  10
   2  -2 -10 91912.3 12337.8  10
   2   2 -10 74495.9 8772.87  24
   2   2  10 90372.6 6677.12   3
   2   2 -10 82926.0 7747.74  12
  -2   2  10 82180.6 6083.88  18
  -2  -2 -10 65396.7 7673.82  21
   2  -2  10 89773.2 5144.30   3
   2   2  10 84391.4 5751.69   1
  -2   2  10 105066. 8342.38   3
  -2   2 -10 83163.6 10812.2  24
  -2  -2  10 87780.4 6188.49  18
   2   2  10 90718.5 6964.71  18
   2  -2 -10 85242.9 8113.30   2
   2  -2  10 80221.1 6638.57  18
   2   2 -10 96420.2 7350.41   2
   2   2 -12 12968.6 4109.47  24
  -2   2 -12 12178.4 2860.18  12
   2  -2  12 14212.9 3091.99  18
  -2   2  12 14383.3 2892.61  18
  -2   2  12 14931.0 3640.16   3
  -2  -2  12 13506.3 2723.87  18
   2   2 -12 12854.2 3005.12   2
   2  -2 -12 16956.3 4714.30  24
  -2   2  12 10896.3 2521.83  11
   2   2  12 15652.6 3224.87  18
  -2   2 -12 15890.7 5175.18  24
   2   2 -12 14841.8 3626.97  12
  -2  -2 -12 9845.16 4904.69  10
   2   2  12 11746.6 2663.21   3
   2  -2 -12 13626.3 3486.83   2
  -2   2 -14 51987.4 2554.25   7
  -2   2  14 54139.5 6269.47  11
   2   2 -14 65697.1 3142.81  14
  -2   2  14 45442.5 5734.69  18
  -2  -2 -14 56885.1 2800.16   7
   2   2 -14 49452.6 8747.54  24
   2  -2 -14 43279.4 6561.41   2
  -2  -2 -14 47852.5 9366.75  24
   2  -2  14 42749.4 5920.45  18
   2  -2 -14 57983.6 2689.85   8
  -2   2 -14 40400.0 8863.74  24
   2   2  14 50860.2 6036.46   3
  -2  -2  14 49771.7 5827.49  18
  -2  -2 -14 40943.0 9390.89  10
   2   2  14 52756.9 6578.75  18
   2   2 -14 49141.2 5939.48   2
   2   2 -14 56609.0 2423.41   8
  -2   2 -14 39537.5 5851.85  12
   2   2 -14 45998.5 6849.45  12
  -2  -2 -16 42646.3 9750.33  24
  -2   2  16 44760.3 6174.70  18
  -2   2 -16 48719.6 2574.60   7
   2  -2 -16 51724.1 2677.13   8
   2  -2 -16 45049.9 7002.77   2
   2   2 -16 49861.5 2421.47   7
  -2  -2  16 54495.3 7093.94  11
  -2   2 -16 32082.3 5641.62  12
   2  -2  16 46408.3 6607.78  18
   2   2 -16 58675.1 3017.70  14
   2   2 -16 41826.1 6993.62  12
  -2   2  16 49231.9 6491.10  11
   2   2 -16 51357.7 2404.25   8
  -2  -2 -16 52926.0 2869.18   7
   2   2  16 49625.9 6866.29  18
   2  -2  16 42970.8 5708.92  23
  -2   2 -16 34699.5 8613.82  24
   2   2 -18 8455.83 993.133   7
  -2   2 -18 8855.04 1119.55   7
   2  -2 -18 8135.05 1082.62   8
   2  -2 -18 9004.15 1154.70   7
  -2  -2 -18 9444.24 1205.07   7
   2   2 -18 8665.62 1007.67   8
   2   2 -20 9275.53 966.768   7
   2  -2 -20 9054.12 1080.66   7
  -2  -2 -20 9777.15 1184.84   7
  -2   2 -20 8246.65 1022.66   7
  -2   2 -22 8605.72 1000.63   4
  -2  -2 -22 9591.22 1006.92   7
  -2   2 -22 8512.90 862.247   7
   2  -2 -22 8686.29 902.549   7
   2  -2 -24 9265.32 692.384   7
  -2  -2 -24 9434.17 757.003   7
  -3   0  -1 99904.5 4202.34  11
  -3   0  -1 83039.7 3592.39  19
  -3   0  -1 78528.3 3822.20  10
   0  -3  -1 66716.2 4957.52  10
  -3   0   1 82507.9 5513.43  21
   3   0   1 95906.3 5760.61  20
  -3   0   1 58261.8 5687.42   3
   3   0  -1 93164.1 5414.29  20
  -3   0  -1 77237.4 6164.29  21
   0   3   1 77984.8 3426.26  18
  -3   0   1 77493.6 3254.10  19
   0  -3   1 76714.0 4390.95  10
   0   3  -1 74050.7 3165.81   3
   0  -3  -1 83046.4 2183.52  23
  -3   0   1 105189. 4084.78  11
   3   0  -1 78729.8 3876.02   2
   0   3   1 76299.9 3674.24   3
   3   0   1 87899.5 3251.38  18
   3   0   1 83787.7 2977.75  23
   0  -3   1 79596.2 2891.97  23
   0   3  -1 71051.2 3409.62   1
   3   0   1 72066.9 3083.55   2
   0   3   1 75311.3 3894.63   1
   0   3   1 97132.0 1933.87  11
  -3   0   3 196615. 6066.39  11
   3   0  -3 240735. 8398.05   2
  -3   0   3 218330. 7469.93  21
   0   3   3 228094. 7311.27   3
   0   3   3 228106. 7628.40   1
   3   0   3 242288. 7091.26   1
  -3   0   3 194826. 10253.9   3
   3   0   3 252874. 7123.27  18
   0   3   3 240111. 6598.59  18
   0  -3  -3 235280. 4315.11  23
   3   0  -3 255674. 7811.40  20
  -3   0  -3 233724. 7275.00  19
   3   0   3 245596. 11255.1   9
  -3   0  -3 209792. 8448.49  10
   3   0   3 261756. 9617.14  20
  -3   0   3 234844. 4079.57  18
   0  -3  -3 222913. 7245.57  21
  -3   0   3 228120. 6103.53  19
   0  -3  -3 203219. 10887.0  10
   3   0   3 235175. 5822.88  23
   0   3  -3 226083. 5367.14   2
   3   0   5 175779. 7081.24  18
  -3   0  -5 138656. 9456.40  10
  -3   0   5 155710. 6131.13  11
   0  -3  -5 124375. 10421.9  10
   0   3  -5 153654. 7612.51  12
   3   0   5 168075. 9788.77   9
   0   3   5 158215. 6988.43   3
   0   3  -5 168532. 7828.65  22
   0   3   5 161764. 6305.16  18
  -3   0   5 145085. 8879.69   3
   3   0  -5 158289. 5550.29  23
   0   3   5 163044. 7198.27   1
   3   0   5 154537. 5478.56  23
   0   3  -5 166733. 10995.1  24
   3   0  -5 162315. 4733.04  20
  -3   0   5 162859. 4814.01  18
  -3   0  -5 152457. 10803.8  21
   3   0   5 177429. 8120.89  20
   3   0  -5 164912. 6529.79  24
  -3   0  -5 180161. 5913.96  12
   0  -3  -5 160224. 6596.60  21
  -3   0   5 174789. 6141.48  19
   0  -3   5 132049. 8147.81  20
   0   3  -5 166353. 5262.70   2
   3   0  -5 180654. 8633.24   2
   3   0   5 154486. 5797.86   1
   0  -3   7 106348. 6404.51  18
   3   0   7 104799. 8130.52   9
   0   3  -7 103014. 9816.88  24
   0  -3  -7 80645.0 9951.52  10
  -3   0   7 105991. 4969.41  18
   0  -3  -7 89471.1 5784.26  21
   0   3  -7 124674. 5467.99   2
  -3   0   7 84545.4 5272.55  11
   3   0   7 97015.1 6270.08  20
   0   3   7 117441. 6846.87   3
  -3   0  -7 98444.0 9708.90  10
   0  -3   7 94666.3 5800.90  20
   0   3  -7 117403. 7416.77  22
   3   0   7 111484. 5140.71   1
   3   0   7 107391. 6405.58  18
   0   3   7 104268. 5998.69  18
   3   0  -7 106432. 7110.07  24
  -3   0  -7 89855.1 9311.12  21
   0   3  -7 94737.3 6815.40  12
   3   0  -7 126581. 8238.33   2
  -3   0   7 116351. 8348.84   3
   3   0   9 45111.0 5641.51   9
  -3   0  -9 55508.2 8281.72  10
   3   0   9 54447.1 3709.05   1
  -3   0  -9 35367.6 6284.11  21
   3   0  -9 56744.7 6079.66   2
   0   3  -9 37053.7 6555.43  24
  -3   0   9 53542.9 4237.36  18
   3   0   9 50166.7 4713.29  20
   3   0   9 47379.1 4161.11   3
  -3   0   9 44311.9 4362.44  11
   0   3  -9 61307.0 4436.95   2
  -3   0  -9 54894.1 4835.46  12
   3   0  -9 45877.0 5585.37  24
   0   3   9 51923.4 4850.54  18
   0   3  -9 46386.7 5344.73  12
   0  -3   9 53101.3 5056.04  18
   3   0   9 52145.9 5048.61  18
   0  -3  -9 43973.2 4708.11  21
   0   3   9 57203.1 5388.99   3
  -3   0   9 55332.2 6288.77   3
   0  -3  -9 31666.7 7081.60  10
  -3   0 -11 1163.13 1535.70  24
   0   3 -11 1135.35 828.925  12
   0   3  11 2390.05 1252.14   3
  -3   0 -11 2528.58 1407.98  12
   3   0 -11 1653.82 1369.27   2
   0   3 -11 2346.55 1866.33  24
  -3   0 -11 5393.46 3035.50  10
   0  -3  11 1966.63 1087.75  18
   3   0  11 3081.33 1209.24   3
   3   0  11 2257.13 1285.26  18
  -3   0  11 1191.06 989.894  11
   3   0 -11 606.610 1442.75  24
   0  -3 -11-1419.79 2364.47  10
  -3   0  11 1838.85 1115.36  18
   0   3  11 2201.02 1364.77  18
  -3   0 -11 1371.36 1485.69  21
  -3   0 -13 6975.42 3898.90  24
  -3   0  13 7134.42 2302.72  11
   0  -3  13 7245.00 2309.93  18
   0   3  13 6950.35 2319.88  18
   0   3 -13 5250.38 2441.23  12
  -3   0 -13 4176.60 2036.83  12
   0   3 -13 5676.28 3526.98  24
   0  -3 -13 5808.90 4256.60  10
   3   0 -13 6816.35 2460.84   2
  -3   0  13 6629.89 2022.85  18
   3   0  13 5149.33 2015.86  18
   0   3  13 7439.13 2440.24   3
   3   0  15-254.300 527.877  23
   3   0 -15 1353.46 1218.55   2
   0  -3 -15 490.503 370.988   8
  -3   0  15-444.850 580.470  19
   0   3  15 897.047 936.470  18
   0  -3 -15 986.634 1479.69  24
  -3   0 -15 1736.77 2105.10  24
   0   3 -15 596.948 358.987  14
  -3   0 -15 1286.68 493.089   7
   0   3 -15 371.851 1228.12  24
   0  -3 -15 3489.78 2025.34   2
   3   0 -15 1527.99 559.656   8
   0   3 -15 1298.51 506.445   8
   3   0 -15 980.249 432.762  14
   0  -3  15-1024.88 1033.11  18
   3   0  15 355.225 919.225  18
   0   3 -15-569.130 1104.79  12
  -3   0  15-1513.64 1234.60  11
   0   3 -15 1011.98 419.274   7
   3   0 -17 2332.54 607.432   8
   0   3 -17 1534.00 489.878   7
   0  -3 -17 1472.45 513.148   7
  -3   0 -17 1587.92 563.525   7
   3   0 -19 1066.52 406.002   8
   3   0 -19 1516.27 504.292   7
   0  -3 -19 1303.02 523.645   7
   0   3 -19 1026.77 399.350   7
  -3   0 -19 1295.02 437.004   7
  -3   0 -21 10669.2 1136.23   7
   3   0 -21 10076.1 1001.66   7
   0  -3 -21 10558.6 1140.45   7
   3   0 -23 1295.96 274.315   7
  -3   0 -23 1825.04 460.097   4
  -3   0 -23 1712.96 370.982   7
   0  -3 -23 1514.14 377.467   7
   1   3   0 238955. 8775.97  22
  -3   1   0 326091. 8259.96  24
   3   1   0 292432. 3409.31  18
  -1   3   0 320413. 8415.75   3
   1   3   0 288044. 7095.50   1
   1  -3   0 303710. 5567.52  23
  -3   1   0 294453. 6321.27  19
  -1   3   0 231743. 10404.1  24
  -1  -3   0 296656. 9893.43  10
   1   3   0 331041. 7577.29   2
   3   1   0 334201. 9174.74  20
   1   3   0 274394. 6093.91   3
   3   1   0 286746. 4557.73  12
  -3   1   0 336425. 7571.00  11
  -3  -1   0 306959. 10301.0  21
   3  -1   0 315492. 12527.0  20
  -3  -1   0 334069. 6948.18  11
  -3  -1   0 289530. 6531.52  19
   3   1   0 314632. 5242.62  23
  -1   3   0 311792. 5764.72  11
  -3   1   0 235242. 11438.2   3
  -1  -3   0 299407. 4221.47  19
  -3   1   0 265840. 12719.3  21
   3   1   0 292879. 7140.86   2
   3   1   0 325221. 11187.1   9
   3  -1   0 301285. 6752.27   2
   1  -3   0 271517. 8569.16  10
   3   1   0 325599. 5922.47  22
  -1  -3   0 307406. 3997.46  23
  -1   3   2 120094. 5524.44   3
  -3   1  -2 112294. 3268.30  22
  -1  -3   2 118280. 3325.98  19
  -3   1   2 98375.6 7045.24   3
   3   1   2 118820. 6028.40  20
  -3   1  -2 137993. 8042.18  24
   3  -1  -2 109362. 7245.11  20
  -1   3   2 110986. 3356.94  11
   3  -1  -2 115872. 5613.65   2
  -3  -1   2 115035. 4290.97  11
  -1  -3  -2 102096. 6973.51  10
   1  -3   2 106915. 4095.37  23
   1   3  -2 106954. 3796.38   1
   3   1   2 114981. 7296.21   9
   1  -3  -2 96469.5 7233.84  10
  -3  -1   2 115256. 5344.29  21
   1   3  -2 108161. 2905.17   3
   3   1  -2 115326. 3733.56  23
   1   3   2 107629. 4149.19  18
   1  -3  -2 108686. 3233.97  23
  -1   3  -2 100529. 5796.04  22
   3  -1   2 106580. 3020.04   2
   3   1   2 106734. 4222.58   2
   3   1  -2 114047. 4775.44  20
  -3   1   2 108093. 3882.04  19
   1   3  -2 120007. 4548.57   2
  -3   1  -2 113700. 4640.78  19
  -3  -1   2 110439. 4143.27  19
   3   1  -2 115340. 5952.40   9
   3   1  -2 118894. 5263.98   2
  -1   3   2 104968. 2326.70  19
  -3   1  -2 97892.1 3975.41  10
  -3   1   2 114363. 4538.66  11
   1  -3   2 89177.4 7193.66  20
  -3  -1  -2 109533. 4555.55  19
  -3  -1  -2 106400. 5938.83  10
  -1   3  -2 84448.5 4800.87   3
   1  -3   2 118449. 4603.66  10
   1   3   2 106547. 4635.96   3
   3   1   2 116412. 3263.94  23
   3   1   2 116853. 5054.08   1
  -1   3   2 106219. 4332.69  18
   1   3   2 116745. 4982.31   1
   3  -1   2 121273. 7694.91  20
   3   1   2 114373. 3894.21  18
  -3   1  -2 87803.5 4474.19  11
   1   3  -4 44679.2 5150.97  24
   1   3   4 50865.7 3667.33   3
   3  -1  -4 46726.6 4510.69  20
  -3   1   4 46809.0 2925.20  19
  -3  -1   4 45882.7 2046.02  18
   3   1   4 46757.5 5246.73   9
  -1   3  -4 48173.7 4063.62  22
  -3  -1   4 33201.3 4336.91   3
  -1  -3  -4 45075.5 3816.74  21
   1  -3   4 39456.1 5079.71  20
   1   3   4 48703.0 3241.67  18
   1  -3  -4 37109.7 5838.02  10
   3  -1   4 50802.5 3714.78  18
  -1   3  -4 50299.3 1902.51   2
   3   1  -4 42721.4 3045.80   9
   3   1   4 49983.1 3347.18  18
   3   1   4 49342.4 2638.06  23
  -3  -1   4 50260.3 2933.14  21
   1   3   4 48847.4 3615.68   1
   3  -1   4 46199.3 3017.95  23
  -3   1  -4 46505.2 4502.90  10
  -3  -1   4 48286.4 3133.23  19
  -3   1  -4 59184.3 6421.78  24
   1  -3  -4 43777.1 3101.34  21
  -3   1   4 46764.0 2550.42  18
   3  -1  -4 56306.8 4632.74   2
  -1   3   4 43419.0 3080.87  18
   3   1  -4 44532.4 2474.35  20
   3   1  -4 39033.9 3138.85  24
  -3  -1  -4 44614.1 3560.32  19
   3  -1   4 52309.6 5013.46  20
   3   1  -4 57892.3 4365.32   2
  -3  -1  -4 48839.8 5106.31  10
  -1   3   4 53380.9 4063.32   3
   3   1   4 49505.0 3487.09   1
   1   3  -4 47970.9 2075.40   1
  -1  -3  -4 43427.3 5576.85  10
  -3   1   4 47101.3 5228.17   3
   1   3  -4 54442.6 3338.13   2
  -3   1  -4 46840.9 3703.06  19
   3   1   4 48253.4 4099.00  20
   1  -3  -4 43337.1 2424.34  23
   1   3   6 6150.12 1450.13   3
  -3  -1  -6 4678.15 2047.43  21
   3  -1   6 6672.14 1528.12  18
   3  -1  -6 6828.50 1271.89  23
   3   1   6 6552.06 1355.57   1
  -3  -1   6 6272.81 1392.64  11
  -3   1  -6 5185.38 1215.60  12
  -1   3  -6 6912.55 1769.12  12
  -3   1   6 5757.71 1301.02  11
   1  -3  -6 5184.74 1145.66  21
   3  -1  -6 6272.24 1403.85  20
   3  -1   6 5999.73 1977.55   9
  -1  -3  -6 6001.06 1655.10  21
   3  -1  -6 7746.39 2221.23   2
  -3   1  -6 6614.59 2885.54  21
   3  -1   6 6552.57 1126.33   1
  -3   1  -6 5868.19 2452.50  24
   1  -3   6 6350.78 1725.80  20
  -3  -1   6 5905.80 1068.34  18
  -1   3  -6 7249.17 939.370   2
   1  -3  -6 4051.46 1381.04  10
  -1   3   6 6984.41 1639.46   3
   3   1   6 6542.09 1644.85  20
   1   3  -6 5911.22 1684.01  12
  -3  -1  -6 4631.39 2100.91  10
   3  -1   6 5638.49 1218.04  23
   1   3   6 6729.38 1444.21  18
  -1   3  -6 6895.12 2776.23  24
  -1  -3  -6 6223.58 3192.39  10
  -1   3  -6 7963.68 1763.28  22
  -3   1   6 6385.74 1939.84   3
   3   1  -6 5585.31 1548.71  24
   3   1   6 5133.74 2052.64   9
   1   3  -6 6578.44 1343.39   2
  -3   1  -6 5472.84 2130.60  10
   1  -3   6 5906.85 1533.67  18
  -1  -3   6 5303.81 1428.94  20
   1   3  -6 5280.64 2306.82  24
   3   1   6 7985.29 1648.34  18
   1   3  -6 7255.20 1928.99  22
  -3  -1   6 3377.52 1546.03   3
   3   1  -6 7407.00 1847.02   2
  -1   3   6 6184.19 1324.04  18
   3  -1   6 8856.92 1989.03  20
  -3   1   6 7066.33 1223.85  18
   1   3   6 6608.94 1521.25   1
  -1  -3   6 6823.47 1464.57  18
  -3  -1   8 2935.87 929.540  18
   1   3   8 2956.56 1149.92  18
  -1  -3  -8 1533.85 1065.04  21
   3   1   8 3657.86 1086.94   1
   1   3   8 2744.64 1188.37   1
   3  -1   8 3347.13 1649.55   9
   1   3  -8 2366.46 1400.77  12
   3   1  -8 2730.16 1455.04   2
  -3   1   8 3184.45 1451.37   3
   1  -3  -8 1380.85 724.501  21
  -3  -1  -8 2926.35 1830.36  21
   3  -1  -8 2183.64 1194.55  24
  -1   3   8 1747.36 971.301   3
  -3  -1  -8 5208.63 2413.82  10
   3  -1   8 3048.82 1159.60  20
  -1   3  -8 3056.37 1201.29  12
  -3   1  -8 3312.72 2232.14  24
   1   3  -8 3861.67 1208.54   2
   1   3  -8 1381.08 1835.20  24
   3  -1  -8 1188.61 1181.18   2
   1   3   8 2838.40 1189.67   3
  -3  -1   8 2387.59 1072.01   3
  -1   3   8 2902.76 1108.12  18
   3   1  -8 2583.36 1330.95  24
   3   1   8 2390.73 1229.90  18
  -3   1  -8 5422.42 2588.70  10
  -3   1   8 2638.79 947.808  18
  -1  -3   8 3190.55 1132.80  18
  -3   1   8 3474.20 1168.54  11
  -3   1  -8 3705.73 2287.00  21
   1  -3  -8 2752.87 2860.73  10
   3  -1   8 1721.57 1042.34  18
  -1   3  -8 3988.92 1592.55  22
  -1   3  -8 3733.60 2514.63  24
   3   1   8 3366.11 1179.99   3
   1  -3   8 2761.30 1075.19  20
   3  -1   8 2756.22 772.754   1
   1  -3   8 1985.40 1078.80  18
  -1   3  -8 3776.74 832.322   2
  -3   1  -8 2177.35 908.205  12
  -1  -3  -8 157.505 1397.60  10
   3  -1  10 266.428 406.160   3
  -1  -3 -10 538.190 942.770  21
  -1   3 -10 113.761 1145.74  24
  -3   1  10 442.052 485.337  18
  -3   1 -10-295.827 1088.77  24
  -1   3 -10-153.964 544.056  12
   3   1  10 403.503 515.200   1
   3  -1 -10 571.348 672.020   2
  -3  -1  10 615.571 544.587  18
   1   3  10-1844.92 1052.67   3
  -1   3  10 723.680 773.104   3
   3   1 -10-311.156 1390.31  24
  -3   1  10 163.265 557.868  11
   3  -1 -10-1619.83 1283.01  24
   1   3 -10-24.3250 627.143  12
   1  -3  10 383.469 693.185  18
   1   3 -10 715.918 905.868   2
   3   1  10 252.425 627.806   3
  -1  -3  10 432.614 361.737  18
   3  -1  10-1653.59 1025.04  18
   3  -1  10 1098.63 736.635  20
   3  -1  10 649.809 900.753   9
  -1  -3 -10 280.191 1813.05  10
  -3  -1 -10 1628.36 2669.36  10
   1  -3 -10 151.661 1343.72  10
   3   1 -10-450.581 725.110   2
   3   1  10-80.7454 670.144  18
   1   3 -10 579.817 1529.42  24
  -3   1 -10 935.217 892.966  12
  -3   1  10-829.373 950.435   3
  -1   3  10 174.215 563.621  18
  -3  -1 -10-555.636 1306.49  21
   1   3  10-103.794 485.282  18
  -3   1 -12 17247.0 5245.05  24
  -3   1  12 23770.4 3521.64  18
   3  -1 -12 18677.0 3921.17   2
   3   1  12 22443.1 3496.46   3
  -1   3  12 23048.5 4207.50   3
  -1   3 -12 18373.3 3873.16  12
   1   3  12 22683.3 3846.53  18
   3  -1  12 20977.2 3799.48  18
   3   1  12 23786.7 4122.80  18
  -1  -3 -12 14608.5 5497.91  10
   1   3 -12 15848.7 4866.38  24
   1  -3  12 20790.0 3746.68  18
  -3  -1  12 24829.9 4013.32  11
  -3  -1  12 20148.9 3219.02  18
  -1   3 -12 17376.7 5625.25  24
  -1  -3  12 22353.7 3677.14  18
  -3   1 -12 16878.5 3331.56  12
  -3  -1 -12 14687.8 4433.37  21
   1  -3 -12 18748.1 6025.01  10
  -3   1  12 26706.0 4100.17  11
   3   1 -12 20262.1 3871.77   2
  -3  -1 -12 22512.5 6489.16  10
   1   3  12 22655.1 3891.04   3
  -1   3  12 20945.5 3675.23  18
   1   3 -12 17646.9 3942.72  12
  -1  -3 -14 28537.8 1840.91  17
  -1   3 -14 22677.1 4728.99  12
   1   3 -14 25261.3 6887.68  24
   1   3  14 38010.2 5702.59   3
   3  -1  14 26697.1 4083.81  23
  -1  -3 -14 35660.2 2255.37   7
   3   1 -14 26985.5 5242.69  12
   1   3  14 30400.9 4969.69  18
  -3   1 -14 27366.3 7802.09  24
   1   3 -14 37408.4 2410.47  14
   3   1 -14 29521.2 5018.37   2
   1  -3 -14 29530.5 5567.36   2
  -3  -1 -14 23254.9 6643.72  24
  -1  -3  14 29908.7 4717.34  18
   3   1 -14 33760.8 1990.45   8
   1  -3 -14 34438.5 2176.00   8
  -3   1  14 31567.6 4908.19  11
  -1   3 -14 39989.6 2480.24  14
  -3  -1  14 32759.4 5215.17  11
   1   3 -14 25296.3 5147.62  12
  -1  -3 -14 28847.3 8093.20  10
  -3   1  14 30925.5 4472.48  18
  -1   3  14 28952.7 4677.38  18
  -3   1 -14 34039.5 2193.09   7
  -1   3  14 35693.5 5905.92   3
  -3   1 -14 20259.1 4023.47  12
   1   3 -14 34745.9 1844.67   8
  -1   3 -14 34177.6 1947.08   7
   3  -1  14 28677.4 4964.48  18
  -3  -1 -14 34468.6 2204.83   7
   3  -1 -14 27802.4 5179.07   2
   3  -1 -14 38321.3 2109.90   8
   3   1 -14 38712.2 2378.92  14
   3   1  14 31299.9 5153.57  18
  -1   3 -14 22041.6 6551.81  24
   1  -3  14 25691.3 4561.66  18
  -1   3  14 26201.1 4230.86  11
   3  -1 -16 7889.95 1093.84   8
  -1  -3 -16 7647.75 3922.17  24
  -1   3 -16 6072.46 880.775   7
  -3   1 -16 5851.85 962.515   7
   3  -1 -16 4646.93 2218.97   2
   1  -3  16 3262.97 1179.39  18
  -1  -3 -16 7954.24 3840.11   2
   1  -3 -16 6079.97 1054.28   8
  -1   3  16 7013.43 2523.86  18
  -1   3 -16 5279.93 3459.09  24
   1   3 -16 5314.42 777.923   8
   1   3  16 5879.23 2118.76  18
  -1   3  16 4415.80 1951.86  11
   1   3 -16 6511.81 1060.43  14
   1  -3 -16 5600.00 2603.17   2
   3  -1  16 3776.91 1910.30  18
   3   1 -16 6524.93 913.142   8
   3   1 -16 6090.68 2729.56  12
  -3  -1  16 5728.09 2276.14  19
   3   1  16 7022.55 2594.54  18
  -3  -1  16 7749.69 2755.22  11
  -3   1  16 4618.57 1989.82  19
  -3  -1 -16 3782.85 3353.67  24
   3   1 -16 7037.09 1038.63  14
  -3   1 -16 3868.91 3100.66  24
  -1  -3  16 7132.20 2487.93  18
   1   3 -16 4048.14 2069.04  12
  -3  -1 -16 6762.15 1047.54   7
  -1   3 -16 4791.02 2415.31  12
  -1  -3 -16 7551.32 1125.23   7
  -3   1  16 5951.91 2438.62  11
   3  -1  16 3425.26 1583.34  23
  -3   1 -18 2891.85 709.767   7
   1  -3 -18 3284.70 718.781   7
   3  -1 -18 3203.10 643.755   8
  -1  -3 -18 2930.62 721.900   7
  -3  -1 -18 2383.45 658.779   7
  -1   3 -18 2097.58 524.933   7
   1   3 -18 2002.11 454.420   8
   3   1 -18 2887.97 626.403   8
   3   1 -18 2695.94 621.518   7
   3   1 -20 378.162 305.544   8
   3  -1 -20 95.9740 254.273   8
  -1  -3 -20-22.3740 317.440   7
   1  -3 -20 164.082 317.216   7
  -1   3 -20 388.330 315.878   7
  -3   1 -20-118.044 239.319   7
   3   1 -20 295.289 228.081   7
   3  -1 -20-172.570 265.213   7
  -3  -1 -20 128.070 304.356   7
  -3   1 -22-48.4442 254.497   4
   3  -1 -22-20.7094 167.712   7
   3   1 -22 21.6777 121.992   7
  -3  -1 -22 24.5550 179.245   7
   1  -3 -22-222.941 258.601   7
  -3   1 -22 122.899 179.245   7
  -1  -3 -22 197.372 256.395   7
  -3  -1 -24 1793.39 392.159   4
  -3  -1 -24 1514.90 326.719   7
   3   1  24 1858.70 406.844   5
  -1  -3 -24 1014.79 252.292   7
   1  -3 -24 1382.90 301.237   7
  -3   2  -1 29876.4 2190.99  19
   3   2   1 28885.7 2486.03   2
   2  -3   1 30147.2 2131.65  23
   2   3   1 28268.2 1948.94  18
   3  -2   1 27118.9 4293.29  20
   3   2  -1 28713.7 2606.75   2
   3   2  -1 31735.0 1780.33  23
  -2   3   1 29167.0 3209.89   3
   2   3  -1 28306.8 2957.29  22
   2   3   1 24054.3 2847.82  22
  -3   2  -1 32909.9 3651.32  24
   3   2   1 27845.7 2243.04  22
  -2   3  -1 22667.7 3049.62   3
  -3  -2  -1 29821.8 2275.28  19
   3   2   1 27079.0 2631.89   1
  -3  -2   1 28609.7 2135.80  19
  -2  -3   1 31023.0 2977.62  21
  -3  -2  -1 29542.7 3450.59  10
   2  -3   1 22608.4 2093.20  10
  -2   3   1 28946.5 2070.48  11
   3   2  -1 27600.9 2507.76  22
  -3   2   1 23611.7 3707.98   3
  -2   3  -1 27468.5 3847.06  24
   2  -3  -1 30224.8 1983.54  23
  -2  -3  -1 28811.0 3657.75  10
  -2   3  -1 25111.1 2188.59  11
   2   3  -1 26495.8 2305.26   1
   3   2  -1 29595.7 2604.40   1
  -3  -2  -1 27174.1 2093.52  11
   2   3  -1 25925.9 1804.44   3
   2  -3  -1 17258.5 2852.05  10
   3  -2  -1 24204.2 4295.32  20
   2   3   1 27781.8 2572.15   1
  -3   2  -1 21155.1 3805.01   3
  -2  -3  -1 30904.5 1988.14  19
   2   3   1 31467.3 2652.45   2
  -3   2   1 30988.4 2424.42  11
  -2  -3   1 30330.3 1536.50  11
  -2   3   1 18259.3 2988.16  24
   2  -3  -1 22657.8 4096.35  20
  -3   2   1 27031.6 1892.99  19
  -3  -2   1 32494.4 3071.50  21
   3  -2  -1 28470.6 2621.26   2
   3   2   1 26772.7 3588.10   9
   2  -3   1 21538.2 4063.72  20
   2   3  -1 30086.1 2562.80   2
  -2  -3   1 30422.0 1875.27  19
   3   2   1 31177.5 1432.60  23
  -2   3  -1 21414.6 2857.33  22
  -3   2   1 21905.7 2570.34  24
  -3  -2   1 32047.7 2154.48  11
   3  -2   1 26368.4 1672.35   2
  -2   3   1 27983.3 1490.90  19
  -3   2  -1 29510.8 2542.21  11
   3   2   1 29194.6 2994.88  20
   2   3   1 27474.8 2237.12   3
  -2   3  -1 30852.4 2000.67  19
   3   2   1 29633.7 1660.66  18
   3   2  -3 397953. 10515.2   2
   3  -2   3 336842. 14608.0  20
   3  -2  -3 360762. 7611.82  23
   2   3  -3 341605. 10223.1  12
  -3   2  -3 388818. 9110.92  22
   2  -3   3 364407. 6341.29  10
   3   2   3 353875. 11127.9  20
  -3   2   3 343267. 7119.44  19
  -2   3   3 330401. 5838.46  19
  -3   2  -3 418162. 16252.8  24
  -3  -2  -3 345542. 9112.31  19
  -3  -2   3 375812. 9476.23  21
   3   2   3 331732. 13445.1   9
  -2  -3  -3 339126. 14274.3  10
  -2   3  -3 338055. 10389.1  22
   3  -2  -3 359745. 15042.9  10
   2   3  -3 265979. 11784.9  24
   2   3  -3 365385. 11067.5  22
   3  -2  -3 331031. 14705.9  20
   2   3  -3 340929. 7279.42   1
  -3   2   3 376776. 13691.4   3
   2   3  -3 392023. 9741.65   2
  -2   3   3 313613. 7219.12  11
  -3   2   3 356307. 7811.08  18
  -3   2   3 323981. 8146.46  11
  -2  -3   3 388046. 7728.40  19
  -2  -3  -3 334324. 8216.97  19
  -3  -2  -3 345142. 13376.8  10
   2   3   3 381910. 9486.82   3
  -3   2  -3 362679. 9445.03  19
  -2   3   3 403673. 12190.9   3
   3   2   3 358306. 9826.93   1
  -3  -2   3 335290. 7747.63  11
  -2   3  -3 254104. 10862.5   3
   3   2   3 370001. 5435.69  23
   2  -3   3 303750. 14913.8  20
   2  -3  -3 260870. 13347.9  10
   3   2   3 372853. 8196.41  18
   2  -3   3 363060. 8532.29  23
   3   2  -3 408296. 10577.8  12
   3   2  -3 379407. 8735.25   1
   2   3   3 365130. 9771.28   1
   2  -3  -3 351500. 7083.00  23
   2   3   3 363033. 8236.80  18
  -3  -2   3 370863. 8268.37  19
  -2  -3   3 355803. 9979.20  21
  -2   3   3 350711. 8468.60  18
   3   2  -3 405554. 10645.9  22
  -2   3  -3 363994. 15360.6  24
  -3  -2   3 341403. 5098.02  18
   3  -2  -3 355927. 11651.0   2
  -3  -2  -5 45673.1 5198.05  21
  -3   2   5 48593.5 3190.26  18
   3   2   5 51197.2 2723.77  23
   3  -2  -5 43921.0 5300.49  20
   2  -3  -5 37245.5 6370.99  10
   3  -2  -5 52844.3 5145.50   2
  -3   2  -5 63929.4 4200.20  22
  -3  -2   5 51381.1 2804.81  18
   3  -2  -5 51765.3 7246.39  10
   2   3  -5 54862.4 4676.75  22
  -3  -2   5 58789.1 3824.19  11
   3   2  -5 60555.9 4652.54   2
   2   3   5 53013.0 3835.31  18
   3   2   5 57764.7 4183.10   3
  -2   3   5 49908.7 3552.84  18
   3  -2   5 53918.4 4298.49  18
   3   2   5 55581.7 3905.15  18
   2   3  -5 53599.2 4803.15  12
   2   3  -5 49617.4 2339.64   1
  -3  -2  -5 46215.3 5839.60  10
   3   2   5 56263.1 4107.22   1
   2   3  -5 62731.7 4282.62   2
  -2  -3   5 53439.8 3568.39  18
  -3   2  -5 58798.4 7081.96  24
  -3   2   5 60115.7 5521.39   3
  -3  -2   5 53086.0 3216.70  21
   3  -2   5 49695.2 3522.39  23
   2   3   5 51629.8 4041.03   3
   3   2  -5 56532.7 3200.27   1
  -3   2   5 49949.5 3156.68  19
   3   2  -5 41216.8 4380.85  24
  -2   3   5 61646.6 5137.03   3
  -3   2   5 52030.9 3632.12  11
   2  -3   5 47718.7 3549.64  23
   3  -2   5 50952.5 5543.82  20
   2   3  -5 43605.3 5415.42  24
  -3  -2   5 57824.7 3762.80  19
  -2   3  -5 56301.5 4472.28  22
  -2   3  -5 54686.6 6781.33  24
  -2  -3  -5 53649.6 6762.08  10
   2   3   5 54521.0 4089.34   1
   2  -3  -5 50044.1 3040.75  23
   2  -3   5 45185.2 5555.66  20
   2  -3  -5 44800.1 2956.41  21
   3  -2  -5 43029.3 2109.81  21
  -2  -3  -5 48128.9 4684.66  21
  -2   3   5 50719.6 3305.99  11
   3   2  -5 58497.4 4898.07  12
   3  -2  -5 49625.9 3180.15  23
   2  -3  -7 21327.1 2127.10  21
   2   3  -7 21432.9 4278.60  24
   3   2  -7 23321.0 3290.49   2
  -3   2  -7 28536.2 5626.49  24
   3  -2   7 19433.5 1854.55   1
  -2   3   7 27629.1 2839.40  11
  -2   3   7 25877.6 3665.04   3
  -3   2  -7 17642.7 2620.45  12
   3   2  -7 19910.4 3488.37  24
   3   2   7 19497.2 2704.08   3
  -2  -3   7 24034.5 2762.74  18
  -3  -2  -7 17881.3 3662.01  21
  -3   2   7 25764.1 4110.85   3
   2  -3   7 23087.9 3634.55  20
  -2   3   7 21025.4 2655.91  18
   2   3  -7 22101.5 3539.17  12
   3  -2   7 23409.2 3498.00  20
  -3  -2  -7 13746.0 4248.66  10
  -2   3  -7 27711.3 3488.80  22
   3  -2   7 21520.2 2647.81  23
  -2  -3  -7 19797.9 3468.37  21
   2  -3   7 20013.7 2895.50  18
   2   3   7 19310.7 2728.84   3
  -2  -3  -7 14070.9 4252.38  10
   3  -2   7 24604.6 3238.80  18
   3  -2  -7 16361.4 3157.97   2
   3  -2  -7 22419.8 5355.22  10
   3   2   7 20197.8 2606.24   1
  -3   2   7 26273.5 2927.97  11
   2   3   7 23665.7 2993.19  18
   3   2  -7 21087.6 1770.58   1
   2   3  -7 24292.7 3023.01   2
  -3  -2   7 24425.7 2411.63  18
   2  -3  -7 13102.3 4246.69  10
  -3   2   7 22400.2 2539.61  18
   2   3  -7 26325.9 3669.70  22
   2   3   7 19340.0 2658.18   1
  -2   3  -7 23676.6 5099.28  24
   3   2   7 24548.8 3058.09  18
   3  -2  -7 21117.2 3429.48  20
   2   3  -9 76825.4 6004.45   2
  -3  -2  -9 64157.4 7819.37  21
   2  -3   9 79931.0 6501.05  18
   2   3   9 78455.2 5757.15   1
  -3   2   9 83829.0 5670.78  18
  -2  -3   9 83080.1 5835.64  18
  -2   3   9 82883.1 5689.27  11
   2  -3  -9 67636.7 10235.6  10
   3   2  -9 89344.8 7118.98   2
   2   3   9 81173.3 6338.99   3
   2   3   9 86394.8 6476.84  18
  -3   2   9 99429.3 8771.66   3
  -3   2   9 87136.1 6104.06  11
   2   3  -9 82729.0 7447.82  12
   3   2  -9 76857.2 7922.80  24
   3  -2   9 80358.3 7518.40   9
   3   2  -9 93356.3 7922.78  12
  -3   2  -9 86423.3 10881.0  24
  -2   3   9 96194.8 7889.69   3
   3   2   9 87918.1 6651.58  18
  -2  -3  -9 67157.9 7218.21  21
   3   2   9 80468.2 6031.13   3
  -2  -3  -9 55515.1 9182.21  10
  -3  -2  -9 52436.7 8532.88  10
   3  -2   9 86646.7 6752.15  18
   3   2   9 80237.2 5509.80   1
   3  -2  -9 80144.0 7743.97   2
   2   3  -9 71285.1 8564.07  24
  -2   3   9 80972.9 5901.33  18
  -2   3  -9 93866.0 11304.3  24
   3  -2   9 84155.4 6269.59  20
  -3   2  -9 72110.6 5990.89  12
  -3  -2   9 86667.7 5470.12  18
  -2   3  -9 69273.7 6365.81  12
   2  -3   9 83540.8 5974.71  20
   2   3 -11 43450.9 4968.72   2
  -2  -3 -11 33744.6 5825.89  21
  -3   2  11 50259.4 6826.85   3
  -3  -2  11 48804.6 4707.16  18
  -2  -3  11 47068.4 4932.60  18
   2  -3  11 43453.1 5313.35  18
  -2  -3 -11 29829.3 7137.84  10
   3  -2  11 45134.3 5414.11  18
  -2   3  11 48506.4 4943.01  11
  -3   2  11 48002.2 4873.83  18
   2   3  11 40275.7 4988.48   3
   2   3 -11 44454.1 6074.75  12
  -2   3  11 48087.7 6219.95   3
  -3  -2 -11 38272.2 8402.88  10
   3  -2 -11 41950.3 6092.53   2
  -3   2 -11 49142.2 9034.22  24
   2   3  11 48637.9 5501.56  18
   2   3 -11 40014.9 7351.74  24
  -2   3 -11 37346.6 5214.45  12
  -2   3 -11 42867.0 8506.26  24
   3   2  11 41240.6 4870.38   3
   2   3  11 40878.1 4705.58   1
   3   2  11 42572.3 4364.82   1
   3   2 -11 50589.9 6459.32  12
  -2   3  11 45753.9 5032.25  18
   2  -3 -11 46021.9 6347.21   2
   3   2  11 50086.3 5676.75  18
  -3   2  11 50370.2 5233.44  11
  -3   2 -11 39207.8 5032.31  12
   3   2 -11 46971.2 5588.45   2
  -3  -2 -11 33854.9 6252.92  21
   2  -3 -11 34181.1 7855.07  10
   3   2 -11 39675.1 6476.85  24
   3  -2  13 40728.7 4914.73  23
   3  -2  13 46410.1 6003.42  18
  -2  -3 -13 31927.7 8591.51  10
  -3  -2 -13 51602.2 2664.67   7
   2   3  13 43944.5 5787.36   3
   2  -3 -13 52553.6 2517.90   8
   2   3 -13 41893.4 8294.36  24
  -3   2 -13 37815.3 8571.48  24
   2  -3 -13 39962.4 6494.52   2
  -2   3  13 45653.2 5640.15  18
  -2  -3 -13 50029.1 2619.38   7
   2   3 -13 62774.9 3125.73  14
  -3   2 -13 31536.4 4936.73  12
   2   3 -13 37862.3 6230.63  12
   2   3  13 49930.5 6196.54  18
   3  -2 -13 56017.8 2547.75   8
  -2   3  13 52416.9 7169.94   3
   3   2  13 43176.4 5509.20   3
  -3  -2  13 54569.2 6469.19  11
   3   2 -13 42820.0 6527.26  12
   2  -3  13 41950.8 5677.78  18
  -2   3  13 44418.7 5317.17  11
   3   2  13 48306.9 6121.00  18
  -3   2  13 49328.7 5865.86  11
   3  -2 -13 42081.3 6414.24   2
  -2   3 -13 41348.7 8902.48  24
  -3  -2 -13 29058.5 8141.55  10
  -2   3 -13 37114.7 5637.05  12
  -2  -3  13 45704.2 5426.74  18
   3   2 -13 46951.5 5986.62   2
  -3   2  13 48050.3 5529.49  18
  -3  -2 -15 66041.1 3172.50   7
   2  -3 -15 59791.1 8102.63   2
   2  -3  15 54630.1 6948.58  18
   3   2 -15 74743.3 3401.65  14
   2  -3  15 52696.9 6219.59  23
   2   3 -15 47368.8 7278.63  12
  -3  -2 -15 49660.0 10012.8  24
  -3   2  15 64191.2 7023.37  18
  -2   3 -15 61769.2 2786.13   7
   3  -2 -15 70999.1 3019.67   8
  -2  -3 -15 47962.8 10843.0  10
   3   2 -15 55495.0 7933.65  12
   3   2 -15 64487.3 2698.05   8
   2   3 -15 73783.3 3390.35  14
   2   3  15 60300.5 7361.11  18
  -3   2 -15 58883.3 2906.69   7
  -2   3  15 61254.8 6949.49  11
  -3   2  15 64426.4 6848.80  19
  -3   2  15 62377.9 7222.36  11
  -2  -3 -15 54281.5 2681.79  17
   2   3  15 61264.9 7416.51   3
  -2   3 -15 52317.5 10804.1  24
   2   3 -15 63292.2 2575.00   8
   2  -3 -15 65417.9 3045.39   8
   3   2  15 63134.8 7549.38  18
  -2  -3 -15 66977.5 3206.67   7
  -3  -2  15 71681.1 7837.28  19
   3  -2  15 56563.2 7203.39  18
  -2   3  15 63848.0 7315.79  18
  -3  -2 -15 52225.9 11000.9  10
   3  -2 -15 52646.5 7421.67   2
  -2  -3 -15 49512.8 7180.18   2
  -3   2 -15 55398.4 10899.6  24
  -3  -2  15 63333.1 7529.11  11
   3  -2  15 49041.3 5862.71  23
  -3  -2 -17 39557.6 2541.20   7
   2   3 -17 35691.0 1956.98   8
  -3   2 -17 36492.1 2314.01   7
   3   2 -17 40438.1 2475.74  14
   3  -2 -17 40255.8 2326.01   8
   2   3 -17 41872.9 2569.59  14
   2  -3 -17 35229.1 2292.52   8
  -2   3 -17 36873.5 2208.95   7
   3   2 -17 39490.9 2162.24   7
  -2  -3 -17 41750.4 2631.62   7
   3   2 -17 38416.1 2102.22   8
  -3  -2 -19 11714.0 1359.30   7
   3  -2 -19 11710.4 1244.12   8
  -2  -3 -19 13222.2 1416.07   7
   2  -3 -19 12477.5 1337.89   7
   3   2 -19 11331.3 1092.92   7
  -3   2 -19 10837.1 1223.71   7
  -2   3 -19 11643.9 1198.60   7
   3  -2 -19 11590.4 1251.65   7
   3   2 -19 10919.7 1073.35   8
   2   3 -19 10325.3 1049.02   8
  -3   2 -21 22566.6 1559.59   7
  -2  -3 -21 23535.8 1696.20   7
  -3   2 -21 23285.9 1875.33   4
  -2   3 -21 21753.4 1428.37   7
   2  -3 -21 23784.1 1638.56   7
  -2   3 -21 23952.3 1775.16   4
  -3  -2 -21 24363.0 1752.96   7
   3  -2 -21 24080.5 1594.66   7
  -3   2 -23 12593.1 899.021   7
   3  -2 -23 14254.9 976.580   7
  -3   2 -23 14429.0 1117.38   4
   2  -3 -23 15032.8 1040.76   7
  -2  -3 -23 15133.9 1122.75   7
  -3  -2 -23 15289.4 1127.85   7
  -3  -3   0 8471.23 1233.15  19
   3  -3   0 7027.96 2592.35  20
  -3  -3   0 8519.14 2131.92  10
   3   3   0 8159.98 1492.17   2
   3   3   0 7093.81 1528.67  22
   3  -3   0 9068.12 1243.24  23
  -3   3   0 5449.73 1867.53  24
   3  -3   0 3548.96 1050.24  10
  -3   3   0 6666.79 2130.65   3
   3   3   0 7683.74 1474.97   1
  -3   3   0 17367.0 2011.06  11
  -3  -3   0 17980.3 1537.07  11
  -3   3   0 8615.49 1109.22  19
  -3  -3   0 8239.79 1743.07  21
   3  -3   0 6921.11 1265.50   2
   3  -3  -2 1332.40 538.695  23
   3   3   2 166.907 374.980   1
  -3   3   2 1553.00 492.609  19
  -3   3  -2 1176.21 1360.15  24
   3   3  -2 1976.69 928.987  22
  -3  -3   2 1838.26 944.443  21
  -3  -3  -2 1464.49 639.626  19
   3   3  -2 607.357 388.430   1
   3  -3  -2-486.714 744.881  10
  -3  -3  -2 1613.72 856.393  21
   3   3   2 912.565 943.784  22
   3   3   2 1821.65 552.912  18
  -3  -3  -2 1163.27 1183.97  10
   3  -3   2 1221.73 1158.68  20
   3  -3  -2 1089.78 1529.31  20
   3   3  -2 820.744 565.398   2
  -3   3   2 1376.27 1159.70   3
   3  -3   2 289.848 116.525   2
  -3  -3   2 1399.95 575.756  19
   3   3   2 796.705 633.361   2
  -3   3  -2 49.4465 825.562   3
   3  -3   2 1359.93 575.565  23
  -3   3  -2 1231.07 524.704  19
  -3   3  -2 1329.57 980.946  22
  -3   3   2 6957.50 1224.11  11
  -3  -3   2 6290.66 986.723  11
  -3   3   4 309305. 13098.3   3
  -3  -3  -4 277544. 9080.60  19
  -3  -3   4 357195. 8767.02  11
   3   3  -4 284167. 7497.97   1
  -3  -3   4 309011. 7197.73  18
  -3  -3   4 308985. 9718.75  21
  -3  -3  -4 277550. 12175.1  21
   3   3  -4 212664. 10883.3  24
   3  -3  -4 291371. 7496.28  23
  -3   3   4 288614. 8390.53  18
   3   3   4 310865. 8511.85  18
   3   3   4 310748. 4352.99  23
   3  -3   4 295587. 8649.38  23
   3   3   4 321409. 9842.83   3
   3   3  -4 317704. 10883.3  22
   3   3  -4 314020. 10833.0  12
   3   3   4 310396. 9909.11   1
  -3   3  -4 319104. 16181.8  24
  -3   3   4 285947. 6855.33  19
  -3  -3   4 327010. 8617.38  19
  -3  -3  -4 282506. 14601.1  10
   3   3  -4 323742. 10198.5   2
   3  -3  -4 230623. 13761.6  20
  -3   3   4 333082. 8926.04  11
  -3   3  -4 311993. 10152.8  22
   3  -3   4 242642. 13853.0  20
   3  -3  -4 245129. 14220.9  10
   3   3  -6 52269.1 4917.92  22
   3  -3  -6 30201.8 5984.99  10
   3   3  -6 37551.8 5039.37  24
   3   3  -6 42060.1 2566.07   1
  -3   3   6 47645.2 3265.54  19
  -3  -3   6 68923.4 4642.84  11
  -3  -3   6 51327.7 3448.07  18
   3   3   6 52702.3 4180.69  18
  -3   3   6 50680.8 5487.38   3
   3  -3   6 43989.4 3701.42  23
   3   3   6 42356.0 3970.66   3
   3   3   6 50054.5 2691.28  23
   3   3  -6 46839.4 4338.95   2
  -3   3   6 66061.1 4479.19  11
  -3   3  -6 58725.4 4655.57  22
   3   3  -6 53099.7 5119.11  12
  -3  -3   6 48868.0 3726.54  21
   3  -3   6 46309.4 4372.33  18
   3  -3  -6 46661.8 3312.26  23
  -3  -3  -6 40942.6 5123.79  21
   3  -3  -6 40882.2 2595.93  21
   3   3   6 44143.4 3990.45   1
   3  -3  -6 37721.5 5551.21  20
   3  -3   6 45134.1 5679.22  20
  -3   3  -6 52896.2 7640.93  24
  -3  -3  -6 35944.4 6049.51  10
  -3   3   6 46544.8 3705.76  18
  -3  -3   6 54891.7 4126.67  19
   3  -3  -8 100331. 8725.18  20
  -3  -3  -8 84862.0 10771.0  10
   3  -3  -8 95709.7 12128.1  10
   3   3   8 126992. 7556.08  18
  -3   3  -8 123605. 12735.2  24
   3  -3   8 110899. 6568.52  23
   3  -3   8 115370. 7668.02  18
   3   3   8 114533. 7309.06   3
  -3  -3   8 126847. 6321.60  18
   3   3  -8 130179. 9083.18  12
  -3   3   8 120956. 6771.29  18
  -3   3   8 118640. 5998.77  19
   3   3   8 114303. 6889.87   1
  -3   3   8 124134. 6834.75  11
   3   3  -8 100295. 9418.06  24
   3  -3  -8 107672. 8790.78   2
  -3  -3   8 137633. 7554.43  19
  -3   3   8 135004. 9912.39   3
  -3  -3  -8 97992.8 9038.56  21
   3   3  -8 115350. 7575.07   2
   3  -3   8 115134. 8215.97  20
   3  -3  10 51077.1 4933.15  23
   3   3 -10 63094.3 7027.75  12
   3   3  10 55758.9 5576.29   3
   3   3 -10 57562.9 5839.26   2
   3  -3  10 58332.9 5995.92  18
  -3  -3 -10 47870.6 7168.34  21
  -3   3  10 64029.9 7745.98   3
  -3   3 -10 56908.4 9495.93  24
   3   3  10 53746.4 5053.84   1
  -3  -3  10 61558.0 5112.60  18
   3   3 -10 36276.8 6113.63  24
   3  -3 -10 51040.7 6528.92   2
   3   3  10 62172.6 6029.32  18
  -3  -3 -10 32436.1 7358.75  10
  -3   3  10 66234.8 5696.78  11
  -3   3  10 60047.0 5393.97  18
  -3  -3  12 56849.1 6133.44  19
   3   3  12 54568.3 6270.00  18
   3  -3  12 42728.0 5577.47  18
  -3   3  12 56343.3 5887.39  11
  -3   3  12 46652.4 7231.17   3
  -3  -3 -12 39482.6 7098.53  21
   3   3 -12 42372.7 7641.21  24
  -3   3 -12 46114.8 9490.17  24
   3   3 -12 46437.8 5628.11   2
   3   3 -12 43250.9 6431.38  12
   3  -3  12 41365.8 4876.11  23
  -3  -3 -12 35414.5 8613.09  10
  -3   3  12 49025.4 5471.21  18
   3   3  12 41198.1 5364.26   3
   3  -3 -12 37415.2 6120.71   2
   3  -3  14 25470.3 4724.65  18
  -3   3 -14 23012.2 7242.52  24
  -3  -3  14 30865.7 5015.87  19
   3   3  14 27496.7 4915.46  18
  -3   3 -14 21755.3 1690.29   7
   3   3 -14 23852.7 1579.52   8
  -3   3  14 28934.2 4293.83  19
  -3  -3  14 32056.6 5277.42  11
  -3  -3 -14 26028.5 1908.34  17
   3   3 -14 25156.0 5303.94  12
   3   3 -14 34175.4 2339.76  14
   3  -3 -14 26171.3 1825.82   8
   3  -3 -14 16649.7 4286.86   2
   3   3  14 18740.4 3885.04   3
  -3   3  14 25698.4 4369.74  18
   3  -3  14 22962.8 3945.28  23
  -3  -3 -14 23931.6 1938.93   7
  -3   3  14 27845.4 4556.14  11
  -3  -3 -14 19305.8 6854.37  10
  -3  -3 -16 78541.3 3351.75  17
  -3   3 -16 86364.0 3492.08   7
   3  -3 -16 85997.7 9887.80   2
   3  -3  16 74453.5 7540.87  23
   3   3 -16 106792. 4091.55  14
  -3   3 -16 68341.9 12976.9  24
   3   3 -16 91207.5 3164.64   8
   3   3 -16 71476.7 9345.34  12
  -3  -3  16 103833. 10137.4  11
   3  -3 -16 98110.8 3690.39   8
  -3  -3 -16 80170.3 12861.5  24
  -3   3  16 91503.7 9102.97  11
  -3   3  16 95514.0 8446.69  19
  -3  -3 -16 100469. 4073.54   7
   3  -3 -18 20805.6 1695.84   8
   3   3 -18 22721.1 1813.17  14
  -3   3 -18 17972.9 1568.00   7
  -3  -3 -18 21755.8 1880.91   7
   3   3 -18 18536.4 1373.38   8
   3  -3 -20 32348.4 1979.97   7
  -3   3 -20 33431.9 2333.11   4
  -3  -3 -20 35453.0 2218.20   7
  -3   3 -20 32779.9 1926.51   7
  -3  -3 -22 33856.4 1868.77   7
   3  -3 -22 32757.7 1690.31   7
  -3   3 -22 33566.4 1899.02   4
  -3   3 -22 29291.6 1480.56   7
  -3  -3 -24 17254.6 1091.53   4
  -3  -3 -24 16285.6 948.705   7
   3   3  24 17852.4 1046.68   5
   4   0   0 114794. 6992.52  20
   0   4   0 105192. 4752.65   3
   4   0   0 102561. 3260.55  18
  -4   0   0 98298.7 4640.70  11
   0  -4   0 97940.5 3078.43  23
   4   0   0 97465.2 3702.37  23
   0  -4   0 96925.0 6293.09  10
   0   4   0 100606. 5037.86   1
  -4   0   0 95195.2 7562.02  21
   4   0   0 109479. 4624.60   2
  -4   0   0 97970.4 4393.61  19
   0  -4   2 60069.9 4686.81  10
  -4   0  -2 56467.7 4147.08  10
   4   0  -2 67169.6 5104.73  20
  -4   0   2 62997.6 3580.56  19
   4   0   2 52726.8 3007.62   2
   0  -4  -2 59410.9 2166.27  23
   0  -4   2 58075.7 3204.23  23
   0   4   2 57257.5 4332.66   1
  -4   0  -2 62917.2 6712.18  21
  -4   0  -2 35290.9 3101.15  11
   0   4   2 56309.8 3618.22  18
   4   0  -2 59362.3 4205.10   2
  -4   0  -2 64265.0 3938.02  19
  -4   0   2 45463.2 3259.97  11
   4   0  -2 61669.6 3206.77  23
   4   0   2 63309.1 3122.91  23
  -4   0   2 62433.3 5777.69  21
   0   4   2 60969.0 4008.25   3
  -4   0   2 39585.6 6053.05   3
   0   4  -2 53012.6 3101.27   3
   0  -4  -2 46988.5 5476.46  10
   4   0   2 62976.3 3403.22  18
   0  -4  -2 58766.7 4442.19  21
   4   0   2 68738.3 5677.28  20
   4   0   4 106517. 5471.77   1
   4   0   4 116555. 5597.41  18
  -4   0  -4 104784. 5878.39  19
  -4   0   4 84373.4 5096.50  21
   4   0  -4 109871. 6491.26   2
   4   0   4 123666. 7589.35  20
  -4   0   4 111258. 5458.78  11
   0   4   4 106997. 5988.71   3
   0   4   4 104299. 3482.36  11
   0   4   4 111849. 5363.89  18
   4   0   4 112786. 9002.78   9
   0  -4  -4 113375. 3513.56  23
   4   0  -4 118695. 5799.73  20
  -4   0   4 89099.3 8518.38   3
   4   0   4 112342. 4668.45  23
   0   4  -4 102637. 4183.32   2
   4   0  -4 107158. 4633.64  23
  -4   0  -4 99721.8 7030.94  10
   0  -4  -4 93063.9 8751.66  10
  -4   0   4 104789. 3189.06  18
   0   4  -4 107969. 6830.02  22
  -4   0  -4 99248.1 9230.94  21
  -4   0   4 110996. 5129.15  19
   0   4  -4 103400. 9228.06  24
   0   4   4 98610.5 5991.03   1
   0  -4  -4 103972. 5933.05  21
  -4   0  -6 118285. 9722.39  10
   0   4  -6 134037. 11645.6  24
  -4   0   6 135530. 6761.90  11
   4   0   6 152606. 7391.00  18
  -4   0   6 121979. 10173.3   3
   0  -4  -6 128724. 6948.21  21
   4   0  -6 139386. 5882.33   9
   4   0   6 134980. 5778.48  23
   4   0  -6 99372.3 4592.20  24
   0   4   6 128463. 7518.37   1
   0  -4  -6 101018. 10695.1  10
  -4   0   6 144172. 4865.13  18
  -4   0  -6 131831. 5234.40  12
   4   0  -6 140024. 4792.17  20
   0   4   6 139850. 6838.17  18
  -4   0  -6 123343. 11287.2  21
   0   4  -6 146354. 5396.93   2
   0   4   6 141485. 7732.59   3
   4   0   6 137915. 6362.42   1
   0  -4   6 108927. 8532.12  20
   4   0   6 144116. 8404.21  20
   0   4  -6 143732. 8225.94  22
   4   0   6 150527. 10707.7   9
   4   0  -6 156825. 8853.15   2
  -4   0   6 150971. 6621.98  19
   4   0   8 72452.8 7814.75   9
   4   0   8 77105.8 6413.08  20
   0  -4  -8 71671.5 5840.27  21
  -4   0  -8 78100.1 5104.60  12
  -4   0   8 79288.5 4535.33  18
   0   4  -8 65804.0 6382.61  12
   0   4  -8 58187.5 8341.87  24
  -4   0   8 67839.0 8130.77   3
   4   0   8 74609.0 4787.01   1
   4   0   8 72978.4 4825.97  23
  -4   0   8 83138.9 5663.51  19
   0   4  -8 86028.4 4590.25   2
   0  -4  -8 58082.2 9270.96  10
   0   4  -8 84133.0 6788.26  22
   0   4   8 83241.2 5984.52  18
  -4   0  -8 64525.6 8840.86  21
   0  -4   8 75152.8 5968.33  18
   0   4   8 83372.7 6574.47   3
  -4   0  -8 69950.9 8822.18  10
  -4   0   8 87528.7 6134.35  11
   4   0  -8 83652.5 7228.54   2
   4   0   8 81714.8 6194.87  18
  -4   0  10 12533.7 2609.71  11
   0   4 -10 9183.32 2688.13  12
  -4   0 -10 12745.1 2494.31  12
   4   0  10 13125.8 2300.43  23
   0   4 -10 11019.0 4490.73  24
   0  -4 -10 7653.36 4052.80  10
   4   0  10 12145.6 2437.99   3
  -4   0 -10 14815.6 4690.86  24
  -4   0 -10 5901.98 2951.34  10
   4   0  10 13630.4 2852.61  18
  -4   0 -10 9617.26 3816.62  21
   4   0  10 10806.5 3364.51   9
   0   4  10 12915.1 2633.61  18
  -4   0  10 8851.82 1805.09  18
  -4   0  10 14970.1 2699.61  19
   4   0 -10 12945.4 3216.62   2
   0  -4  10 11495.9 2586.64  18
   4   0  10 13559.2 2714.03  20
   0   4  10 13042.8 2903.62   3
  -4   0  12 14756.6 3206.96  11
   0   4  12 12563.7 2899.30  18
   0  -4  12 10965.5 2698.79  18
   4   0 -12 16978.2 3801.40   2
   0  -4 -12 8727.26 4616.68  10
   4   0  12 9801.56 2655.93  18
   4   0  12 10360.2 2239.52  23
  -4   0 -12 13113.5 4908.95  24
   4   0  12 11477.8 2438.25   3
  -4   0  12 13187.3 2802.76  19
  -4   0 -12 9242.11 3918.92  10
  -4   0 -12 6660.47 3403.70  21
   0   4 -12 11601.7 4690.84  24
   0   4 -12 9757.12 3085.51  12
   0   4  12 16357.3 3693.10   3
   4   0  14 8527.57 2718.39  18
   4   0  14 9423.14 2355.70  23
   0   4 -14 4042.88 2801.48  24
   0   4  14 7343.35 2555.21  18
  -4   0 -14 11264.9 1312.96   7
  -4   0  14 9229.90 2762.29  11
  -4   0  14 9478.78 2726.91  19
   4   0 -14 9572.78 3018.43   2
  -4   0 -14 8340.81 3808.66  24
   0  -4 -14 10867.7 1281.78   8
   0   4 -14 6195.97 2610.58  12
   0   4 -14 12926.1 1439.94  14
   4   0 -14 12561.7 1200.64   8
   0  -4 -14 10726.6 5285.11  10
   0   4  14 11902.3 2720.59  11
   0  -4  14 8417.87 2640.13  18
   0   4  14 10396.7 3181.40   3
   4   0 -16 4038.82 2206.95  12
  -4   0 -16 471.763 1294.47  24
   4   0 -16 6717.52 941.903   8
  -4   0  16 6235.47 2517.85  11
   4   0  16 5167.66 2255.85  18
   0  -4 -16 7083.07 3575.97  24
  -4   0 -16 5466.52 941.877   7
   0   4 -16 5317.72 898.904  14
   0  -4 -16 5709.96 992.530   7
   0  -4 -16 8455.74 3239.99   2
   0   4  16 4291.21 1905.94  11
   4   0 -16 6350.23 2510.77   2
   0  -4  16 3360.35 1742.14  18
   0  -4 -16 3825.23 734.679  17
  -4   0  16 5497.33 2190.52  19
   0   4  16 6757.96 2754.89  18
   0   4 -16-39.9259 915.072  24
   4   0 -18 18291.8 1496.29   8
  -4   0 -18 17514.7 1645.49   7
   0  -4 -18 19484.9 1747.62   7
  -4   0 -20 9916.45 1165.12   7
   4   0 -20 10852.5 1073.33   7
   0  -4 -20 10972.0 1228.03   7
   4   0 -20 9446.55 1030.92   8
  -4   0 -22 11180.1 1207.28   4
   4   0 -22 9293.68 821.505   7
  -4   0 -22 9855.10 991.399   7
   0  -4 -22 10065.4 1001.49   7
   0  -4 -24 4101.43 474.258   7
  -1  -4   1 11795.5 2483.68  10
  -4   1  -1 15828.8 1648.01  10
   1   4   1 11722.2 1717.17   3
   4   1   1 11934.2 2204.32  20
   1   4   1 10217.3 1478.12  18
  -1  -4  -1 13213.6 2804.11  10
   1   4  -1 16441.6 1929.41   2
  -1  -4   1 10199.8 872.809  19
  -4   1   1 8125.53 2675.23  21
   4  -1   1 12372.1 2768.78  20
  -4   1   1 8439.68 2998.30   3
   4   1   1 9986.29 1017.35  18
   1  -4  -1 10325.5 2296.65  10
  -1  -4  -1 9248.51 875.382  19
  -4   1  -1 14511.4 2535.33  24
   4   1  -1 14289.4 1990.08   2
   4   1   1 16900.0 3265.20   9
  -4  -1   1 10210.4 1461.07  19
   4   1   1 12799.9 1737.77   2
  -1   4  -1 7738.66 2412.18  24
   4  -1  -1 14943.6 1906.26   2
  -4   1   1 6809.36 970.244  24
  -4   1  -1 15743.3 2083.46  11
  -1   4  -1 12044.3 1898.50   3
   1   4   1 12959.3 1942.08   1
  -4   1   1 10188.5 1396.65  19
  -4  -1   1 16622.6 1948.98  11
   4   1  -1 15355.9 2858.90   9
  -4   1  -1 9885.21 3087.74  21
   1   4  -1 8768.45 2093.89  22
  -1  -4  -1 9159.53 584.386  23
   4  -1   1 12835.5 1429.19   2
   1   4   1 6900.64 2050.37  22
  -4  -1  -1 16168.2 1960.30  11
   1   4  -1 12183.2 1420.13   3
  -4   1  -1 10559.2 1502.74  19
  -1  -4   1 12409.4 735.476  11
  -4  -1  -1 15500.3 2465.96  10
   1  -4   1 11091.0 1373.40  23
  -1   4   1 15815.8 1356.68  11
   4   1  -1 11691.1 1994.13  20
   4  -1  -1 11775.5 2622.12  20
  -4  -1   1 11026.7 2436.61  21
   4   1   1 11975.2 1237.44  23
   1  -4   1 10299.2 1946.38  10
  -4  -1  -1 10829.6 1594.97  19
  -1  -4   1 10832.5 1144.53  23
  -4  -1  -1 12087.6 2679.23  21
   1   4  -1 13043.7 1747.91   1
   4  -1   1 11012.5 1421.71  23
   1  -4  -1 10906.3 1171.19  23
  -4   1   1 16112.3 2003.01  11
   4   1  -1 11123.9 1254.26  23
   4   1   1 14349.5 2153.70   1
  -1   4   1 15257.8 2197.74   3
   4   1  -1 11979.1 1405.31  12
  -4   1  -3 2529.73 871.331  19
  -1   4  -3 3189.57 1468.09  22
   4  -1  -3 2336.12 1111.52   2
   1  -4  -3 2685.64 637.737  23
   1   4   3 2849.68 1123.03   3
  -4  -1  -3 2164.82 1324.07  21
   4   1   3 2255.56 725.837  18
  -4  -1  -3 2420.75 1002.02  19
  -1  -4  -3 2382.80 1002.44  21
   4  -1  -3 1850.28 1212.15  20
  -1  -4   3 2590.93 661.498  19
  -4  -1   3 2461.53 1119.42  21
   4   1   3 2624.72 1578.55   9
   1  -4   3 2810.62 1534.49  20
  -1   4   3 2601.06 934.672  18
  -4   1   3 2949.77 984.389  11
  -1   4   3 2878.47 1147.89   3
   4   1   3 2864.77 1306.88  20
   1   4  -3 3262.60 2127.30  24
   4   1  -3 2701.44 888.726  20
  -4   1   3 3077.61 905.654  19
  -4   1  -3 906.207 978.902  21
  -1   4   3 2776.57 683.156  11
  -4   1  -3 2911.05 1756.85  24
   1   4  -3 3078.58 922.627   2
   4  -1   3 2082.06 530.668   2
   1  -4   3 2498.30 838.810  23
   1   4  -3 2583.60 1330.50  22
  -1   4  -3 2570.85 1558.27  24
   1   4   3 2008.18 774.348  18
   1  -4  -3 3021.24 1957.99  10
   1   4  -3 2371.29 737.501   1
  -1  -4  -3 1969.89 1627.93  10
  -4  -1   3 2417.94 814.813  19
   1   4   3 2120.22 381.038  11
   1  -4   3 3512.91 1170.73  10
   4  -1  -3 2520.29 752.523  23
   4  -1   3 2661.64 814.945  23
  -4   1  -3 1354.55 874.835  10
  -4  -1   3 2710.23 846.572  11
  -1   4  -3 2430.82 1072.46   3
  -4  -1  -3 3211.27 1462.79  10
   4  -1   3 4312.91 1883.97  20
   4   1  -3 2823.32 1247.79   9
   1   4   3 2682.98 1073.63   1
   4   1   3 3400.30 884.777   2
   4  -1   3 2425.63 952.670  18
  -1   4   3 1895.24 412.574  19
   4   1  -3 2158.26 704.063  23
   4   1   3 2583.63 634.252  23
  -4   1   3 3406.16 1987.53   3
   1   4  -3 2781.29 581.655   3
   4   1   3 3271.44 1113.93   1
   4   1  -3 4096.03 1327.70   2
  -4  -1   5 9681.34 3193.19   3
   1  -4   5 9322.68 2629.88  20
  -1   4  -5 15065.0 3793.53  24
  -1  -4  -5 12952.5 2330.36  21
  -4   1   5 11218.8 1424.80  18
  -4  -1  -5 8960.66 2913.06  21
   4  -1   5 13549.6 2788.63  20
   4   1   5 13678.0 1604.06  23
   1  -4  -5 11471.5 1912.98  21
   1  -4  -5 12463.6 1484.19  23
  -4   1  -5 14780.7 3728.70  24
  -1   4   5 13354.7 2025.63  18
  -4  -1  -5 12940.7 1326.81  12
  -4  -1  -5 11669.1 3037.93  10
   4  -1  -5 14918.3 2837.27   2
   4   1  -5 11931.3 1484.29  20
   4   1   5 13831.4 2053.94  18
  -4  -1   5 9747.48 1534.38  21
   1   4  -5 15027.9 1985.40   2
  -4  -1   5 11578.2 1055.49  18
   1  -4  -5 6520.94 2800.21  10
   4  -1  -5 11408.8 1637.82  23
   4   1  -5 7191.06 1335.70  24
  -4   1   5 12068.3 3252.63   3
  -4   1  -5 12396.3 2185.41  19
   1   4   5 14479.8 2337.19   3
  -4   1   5 14834.6 2133.19  11
   4  -1  -5 13731.7 2416.97  20
   4   1  -5 12167.8 1869.92   9
   1   4  -5 10446.3 3069.49  24
  -4  -1   5 14409.6 2122.03  11
   1   4   5 13731.6 2001.90  18
  -1   4   5 15537.6 2608.60   3
   4   1   5 12246.9 3181.13   9
  -4   1   5 13130.0 1865.58  19
  -1   4  -5 16107.6 1280.58   2
  -4  -1  -5 12305.6 2203.52  19
   1   4   5 14783.5 2387.72   1
  -4   1  -5 12161.9 2768.42  10
  -4   1  -5 8772.87 3617.78  21
   1   4  -5 13808.2 2643.29  22
  -1   4   5 13416.7 1555.79  11
   4   1   5 13721.4 2112.50   1
   4   1  -5 17425.9 2815.33   2
  -1   4  -5 12920.1 2475.23  22
  -1  -4  -5 13380.3 3411.99  10
   4  -1   5 13003.7 1813.74  23
   4   1   5 14674.1 2651.91  20
  -4  -1   5 13924.7 1975.30  19
   4  -1   5 15768.1 2115.17   1
   4  -1   5 14937.2 2357.85  18
   4   1   7 8160.74 1866.12  18
   1  -4   7 4914.86 1757.91  20
  -4   1   7 4370.59 2188.47   3
   1   4  -7 7423.17 2224.82  12
  -1   4   7 3730.69 1468.74   3
   4   1  -7 2718.57 1439.04   2
  -4  -1  -7 3022.87 2179.86  10
   1   4  -7 8327.37 2158.57  22
  -4   1   7 10256.5 2036.97  11
   4   1  -7 5543.03 1653.48  24
  -4  -1   7 1627.80 2041.32   3
  -4   1   7 6317.22 1472.38  19
  -4  -1   7 7465.16 1245.00  18
   1  -4  -7 3867.11 2803.85  10
   1  -4   7 6203.75 1769.33  18
   4  -1   7 4457.66 1356.98  23
   4   1   7 4112.48 1200.46   1
   1   4   7 5742.65 1622.25  18
   4  -1   7 4928.91 2178.56   9
   4  -1   7 8021.41 2195.33  20
   1   4   7 4254.94 1437.28   3
   1  -4  -7 5093.11 1324.07  21
  -1  -4  -7 1435.10 2308.95  10
   4   1   7 6370.57 1806.74  20
   4   1   7 4422.09 2173.00   9
  -4   1   7 5960.92 1276.87  18
  -1   4   7 11600.6 1761.16  11
   1   4   7 3556.64 1331.51   1
  -1  -4   7 7247.52 1799.30  18
   4  -1  -7 6511.57 1214.99  20
  -4  -1   7 11891.0 2166.20  11
   4  -1   7 3921.22 1034.41   1
  -1   4   7 8357.88 1791.05  18
   4  -1  -7 3054.44 1613.97   2
  -4  -1   7 9200.20 1825.33  19
  -1  -4   7 6854.97 1891.35  20
   4   1   7 5724.04 1272.40  23
  -4   1  -7 5574.09 2690.55  24
   1   4  -7 4198.55 1175.46   2
  -1  -4  -7 6369.78 1785.14  21
   4  -1   7 5716.82 1544.86  18
  -4  -1  -7 4980.16 2199.06  21
  -4   1  -7 7033.90 3351.57  21
   1   4  -7 4859.89 2981.43  24
  -1   4  -7 8812.45 2190.71  22
  -1   4  -7 4762.00 2854.79  24
  -4   1  -7 2671.58 1682.92  10
   1  -4  -9 3026.60 2719.69  10
   4  -1  -9 5154.92 1978.24   2
  -1   4   9 5910.80 1503.24  11
   4   1   9 5670.49 1666.43   3
  -4   1   9 6689.20 2729.78   3
  -4   1   9 4817.32 1324.80  18
   4   1   9 3555.39 1271.20  23
   1   4  -9 8041.52 1730.58   2
  -1   4  -9 3984.30 2440.12  24
   4  -1   9 4653.15 1381.72  23
  -4  -1   9 6798.58 1768.51  19
   4  -1   9 3931.70 2130.82   9
  -4   1  -9 4611.06 2401.04  10
  -1  -4   9 3380.31 1449.59  18
  -1   4  -9 7200.27 2390.22  22
   1   4  -9 6247.07 2123.71  22
  -4   1   9 4622.72 1434.80  19
  -4   1   9 6941.57 1827.33  11
   1   4   9 5418.59 1783.32   3
   4  -1   9 4284.40 1479.70  18
   4  -1   9 3247.84 1404.99  20
  -4  -1  -9 3030.46 2422.14  21
   4   1  -9 6483.12 2197.56   2
  -1   4   9 6192.91 2005.47   3
  -4  -1  -9 7312.00 3283.25  10
   1  -4   9 5958.85 1860.82  18
   4   1   9 5018.71 1430.89   1
  -4   1  -9 4309.40 2349.23  24
  -4  -1  -9 7123.03 1713.55  12
  -1  -4  -9 3776.15 1482.29  21
  -1  -4  -9 2309.94 1823.23  10
   1   4   9 7100.64 2072.07   1
   1   4  -9 3900.81 1789.44  12
   1   4  -9 3802.87 2642.49  24
   4   1   9 4237.30 1547.22  18
  -1   4   9 5256.43 1684.04  18
   1   4   9 4661.27 1602.12  18
  -4  -1   9 8035.56 1995.55  11
  -4   1  -9 2945.72 2477.98  21
  -4   1  -9 3248.69 1284.38  12
  -4  -1   9 4664.18 1269.54  18
  -4  -1  11 156.238 777.753  19
  -1   4  11 20.9151 641.105  18
  -4   1  11 841.761 1026.45  11
  -4   1  11-158.643 345.303  18
   1  -4  11-215.241 943.961  18
   1   4  11 538.345 784.158  18
   4  -1 -11 767.832 885.609   2
  -4  -1  11 273.171 639.799  11
   1  -4 -11 1336.50 2157.02  10
  -4  -1 -11-782.067 1059.07  21
  -1  -4  11 178.214 825.757  18
   4  -1  11 740.668 644.751   3
  -4  -1 -11 1541.15 1885.97  10
   4   1  11-559.463 703.992  18
   4   1  11 846.373 847.677   3
   4   1 -11 2263.72 1564.22   2
   1   4 -11 14.5146 659.347  12
  -1   4 -11 1151.13 1422.52  12
   1   4  11 1915.85 1240.09   3
  -4   1 -11 1320.88 993.284  12
  -1   4 -11 187.728 1461.76  24
   4  -1  11-192.366 826.452  18
   1   4 -11-1132.74 2329.86  24
  -4   1  11 124.246 632.105  19
   4   1  11 298.890 443.825  23
   4  -1  11 460.543 540.638  23
  -4   1 -11 6787.07 3069.88  24
  -1  -4 -11 5550.92 3590.10  10
  -1   4  11-189.445 395.854  11
  -1   4  11 575.367 984.812   3
   4   1  13 1662.67 1209.33  18
  -4   1 -13 246.017 308.741   7
   4  -1 -13 201.132 282.889   8
  -1  -4 -13-556.113 3460.23  10
  -4  -1 -13 2959.07 2262.12  21
  -4  -1  13 215.357 492.688  19
  -4   1 -13-3065.44 2677.02  24
   4   1  13 685.621 647.452  23
   4   1  13-145.608 486.412   3
   1   4  13 103.986 565.317   3
   1  -4  13-227.489 1060.38  18
  -1   4  13-959.114 928.227  18
   1   4  13-1387.36 1099.60  18
   4  -1 -13-1949.66 1440.87   2
  -1   4 -13 749.418 347.523  14
   4   1 -13-673.723 732.322  12
  -4   1  13-450.196 701.845  19
   1  -4 -13 1908.05 2420.84  10
  -4  -1 -13 6074.87 3520.74  10
  -4  -1 -13-347.218 1847.03  24
  -1   4 -13 2391.58 2575.93  24
   1   4 -13 670.068 528.299  14
  -4   1  13-327.123 682.694  11
  -4  -1  13 4.55580 856.329  11
   4  -1  13-257.302 486.389  23
  -1   4  13 3297.95 1811.16   3
   1  -4 -13 909.735 1147.40   2
   4   1 -13-985.676 1028.27   2
   1   4 -13 1035.55 1659.50  24
   4   1 -13-107.134 281.668   8
  -4  -1 -13 234.414 310.759   7
   4  -1  13 124.946 515.819  18
   1  -4 -13 227.977 408.799   8
  -1  -4  13 150.379 795.375  18
  -1   4  13 21.0822 398.813  11
   1   4 -13-81.4192 988.371  12
   4   1 -15 1260.58 717.552  12
   1   4 -15 2555.19 2509.73  24
  -4   1 -15 548.127 1473.59  24
  -4  -1  15 1959.83 1397.72  19
   1  -4  15 1495.56 1156.39  18
   1   4  15-3068.08 1806.72   3
   1   4  15 1184.17 883.412  18
  -4   1  15 26.6005 457.176  11
   1  -4 -15 1659.45 1545.60   2
  -4  -1  15 1912.13 1558.76  11
   4  -1 -15 2404.22 654.280   8
   4  -1  15 2344.02 1532.91  18
   4   1 -15 2975.16 1688.91   2
  -1  -4  15 6990.77 2377.77  18
   1   4 -15 1571.98 656.545  14
   1   4 -15 1052.87 1244.63  12
   4  -1 -15 2230.28 1588.07   2
  -4  -1 -15 1883.91 597.778   7
  -1   4  15 3085.26 1680.50  18
   4   1 -15 2562.71 680.645  14
  -1  -4 -15 1769.72 588.574   7
  -1   4 -15 1934.57 2341.19  24
  -4  -1 -15 4064.00 3012.87  24
  -1   4 -15 1174.42 457.634  14
  -1  -4 -15 283.378 849.580   2
  -1   4  15 4017.94 1747.45  11
   4  -1  15 549.744 658.482  23
  -1  -4 -15-5195.55 3970.96  10
   4   1  15 48.5864 549.868  18
   1  -4 -15 2550.11 654.077   8
  -4   1 -15 1450.21 511.399   7
  -1  -4 -15 1080.54 358.997  17
  -4   1  15 3455.31 1716.44  19
   4   1 -15 1076.21 457.624   8
   1  -4 -17 1313.20 548.363   7
  -1  -4 -17 1140.40 452.051  17
  -4  -1 -17 1571.36 528.047   7
   4   1 -17 949.567 333.769  14
  -1  -4 -17 1209.26 510.947   7
   4  -1 -17 2031.16 557.453   8
  -4   1 -17 1249.65 516.358   7
   1   4 -17 920.148 340.846  14
   4   1 -17 1887.34 566.695   8
   4  -1 -19 711.234 336.120   7
  -4   1 -19 972.004 393.089   7
  -1  -4 -19 1036.55 501.996   7
  -4  -1 -19 970.786 403.694   7
   4   1 -19 834.717 319.516   7
   4   1 -19 1173.66 428.963   8
   1  -4 -19 1144.91 429.834   7
   4  -1 -19 1032.62 357.121   8
  -1  -4 -21-8.26814 237.275   7
   4   1 -21-363.675 280.304   8
   4   1 -21 271.336 189.049   7
   4  -1 -21 323.707 285.610   7
  -4   1 -21 243.518 277.853   7
  -4  -1 -21 189.697 308.178   7
   1  -4 -21-12.5361 243.122   7
  -4  -1 -23 357.418 187.827   7
   1  -4 -23 627.340 238.054   7
   4  -1 -23 553.747 177.155   7
  -4   1 -23 365.974 233.830   4
  -4  -1 -23 397.271 301.162   4
  -1  -4 -23 891.439 283.751   7
  -4   1 -23 786.105 257.099   7
   4   2   0 11611.6 2646.88   9
  -4  -2   0 14460.0 2670.37  10
  -4  -2   0 10600.8 2257.66  21
   4   2   0 12745.1 2059.75   1
  -4  -2   0 11691.1 1624.23  19
  -2   4   0 6629.45 2417.37  24
   2   4   0 10723.6 1530.06   3
   2  -4   0 10739.9 1338.14  23
  -2  -4   0 8549.23 670.930  23
   4   2   0 9052.34 1320.07  22
   4   2   0 9543.48 719.489  18
  -2   4   0 9833.92 999.536  19
   4   2   0 12480.4 1871.41   2
  -2  -4   0 10683.1 2001.64  21
  -4   2   0 12970.4 1863.49  11
  -4   2   0 8774.08 1909.64  24
   2   4   0 12432.8 1776.65   1
  -2   4   0 11569.5 2387.82   3
  -2   4   0 11012.9 1485.01  11
   2  -4   0 11247.7 2219.54  10
  -2  -4   0 10033.6 1152.97  19
   4   2   0 12568.9 2128.42  20
   4  -2   0 11505.5 1530.26   2
  -4   2   0 10715.6 1486.61  19
  -2  -4   0 12028.8 2822.37  10
   2  -4   0 8231.21 2849.33  20
  -4  -2   0 11946.9 1602.76  11
  -4   2   0 6507.25 2884.69   3
   4   2   0 10854.0 1133.17  23
   4  -2   0 7695.74 2720.60  20
   2   4   0 8225.97 2032.06  22
   2   4   0 12813.1 1999.10   2
  -4   2  -2 7756.22 1378.88  22
  -2   4   2 10850.6 2363.94   3
  -2   4   2 6023.80 1029.65  11
  -4   2   2 7834.59 2860.89   3
   4  -2  -2 7783.58 2496.45  20
   4   2  -2 9672.52 1768.98   1
   2   4   2 9316.00 1744.69   1
   4  -2   2 8508.83 941.115   2
  -4  -2  -2 9306.99 1609.69  19
   4   2  -2 9699.52 2128.88   9
   2  -4   2 8479.75 1503.59  10
   2   4  -2 8391.48 1060.10   3
   4   2  -2 9175.49 1242.07  23
   4   2   2 9259.97 2090.59  20
  -4   2  -2 4189.66 1200.00  11
   2   4  -2 9982.54 1709.69   2
  -4  -2  -2 10179.1 2587.93  10
   2   4  -2 9147.77 1906.06  22
   4  -2   2 8904.00 1341.77  23
  -2  -4   2 8113.72 1899.67  21
  -4   2  -2 9518.22 1641.70  19
   2  -4  -2 7356.75 2245.15  10
   4   2   2 9761.37 1915.53   1
   4  -2   2 8149.94 2594.69  20
   4  -2  -2 9491.05 1915.94   2
   2   4   2 9387.51 1405.70  18
  -2   4  -2 8523.86 2628.37  24
  -2   4  -2 8889.08 2162.95  22
  -2   4   2 7449.51 790.767  19
   2   4   2 7950.47 1604.34   3
  -2  -4   2 6250.40 814.239  11
   4   2   2 8038.33 1441.52   2
   2  -4   2 9229.96 1423.00  23
  -4  -2   2 9130.48 1457.38  19
   4   2  -2 9008.38 1550.00  12
   4   2   2 6341.08 1010.37  22
  -4  -2  -2 9570.94 2294.70  21
   4   2   2 10245.5 2592.08   9
   2  -4  -2 8919.56 1209.32  23
  -4  -2   2 6099.33 1172.22  11
   2   4   2 7140.79 2132.29  22
   4   2   2 9112.36 999.931  23
  -2  -4  -2 8468.00 2554.86  10
   4   2  -2 8533.17 1629.08  20
   4   2   2 9566.80 1199.45  18
   2   4  -2 8088.97 1362.67   1
  -2  -4   2 9278.73 1182.65  19
  -4   2   2 6286.20 1333.00  11
  -4  -2   2 7827.22 1891.59  21
  -4   2  -2 8752.09 2344.35  24
   2  -4   2 6413.02 2552.31  20
  -2   4  -2 7035.55 1998.46   3
  -4   2  -2 8034.25 3122.55  21
   4   2  -2 7543.62 1623.93  22
  -2  -4  -2 8376.75 1870.35  21
   4   2  -2 9463.68 1773.62   2
   2   4  -2 5164.22 2036.07  24
   4  -2  -2 8817.84 1355.52  23
  -2  -4  -2 8657.75 1254.72  19
  -4   2   2 8631.50 1344.06  19
   2   4  -4 65399.0 5299.98  22
   4  -2   4 68890.2 4112.80  23
   4   2  -4 78146.7 5299.12  12
  -4   2  -4 84297.7 4123.72  22
   2   4  -4 68700.1 4468.09   2
   4  -2   4 72349.3 7271.16  20
  -4   2   4 69348.4 3807.55  18
   4   2   4 68362.3 5610.41  20
   4   2   4 70552.2 4150.07  18
  -2   4   4 63249.7 4237.77  18
   4   2   4 53967.3 6587.18   9
   4  -2  -4 60387.3 5256.96   2
   2   4   4 64987.9 4734.30   1
  -2   4   4 68789.2 5611.07   3
  -4  -2   4 68686.9 4274.72  19
   2  -4   4 63968.9 3599.81  10
   2  -4   4 52632.3 6852.60  20
  -4  -2  -4 63039.1 4673.84  19
  -2  -4  -4 69554.9 5630.07  21
   2  -4   4 66053.4 4174.01  23
   4   2   4 45301.0 2899.20  22
  -4  -2  -4 65552.8 6764.35  10
  -4   2   4 61567.3 4216.24  11
   4  -2  -4 63123.1 6731.41  20
  -4   2  -4 68645.5 4845.97  19
   2  -4  -4 67254.8 3429.80  23
   4  -2  -4 65651.4 3775.14  23
   2   4   4 65871.6 4612.56   3
  -2   4  -4 63714.8 7767.75  24
  -4  -2   4 70724.3 4814.48  21
  -4   2   4 60819.4 7002.36   3
   4   2   4 63030.1 4628.98   1
   4   2  -4 67606.9 5026.86   2
  -4   2  -4 75921.3 7799.00  24
  -4   2  -4 58982.7 8384.27  21
  -2   4  -4 65232.4 5285.05  22
  -2  -4  -4 53396.2 6940.66  10
   2   4  -4 60151.8 3193.67   1
   4   2  -4 67218.7 4298.06   1
  -2   4   4 59285.3 3458.51  11
   2  -4  -4 37884.0 6102.09  10
   2   4   4 66605.9 4160.67  18
   2   4  -4 47231.5 6049.80  24
  -2   4   4 63824.5 2774.47  19
   4   2   4 70706.6 2991.30  23
  -4   2   4 66218.1 3779.86  19
  -4  -2   4 60933.1 4051.65  11
  -2  -4   4 72744.7 3823.18  19
  -4  -2  -4 64117.4 6612.77  21
   4  -2  -6 74476.8 6671.29  20
   4  -2   6 79632.5 7149.80  20
   2   4   6 81575.9 5670.54   1
  -2  -4  -6 75578.5 6423.92  21
   2  -4  -6 78927.5 4196.41  23
   4   2   6 83591.1 5437.22  18
  -4  -2   6 80892.3 5212.68  11
  -4   2   6 79204.5 5240.87  11
   2  -4  -6 71905.5 4472.98  21
   4  -2  -6 75915.2 4448.97  23
  -2   4   6 74823.9 4396.00  11
  -4  -2   6 83050.7 3403.23  18
  -4  -2   6 78694.0 4328.10  21
   2   4  -6 60542.4 7577.85  24
  -4  -2  -6 63484.8 7324.11  21
   4   2  -6 51959.7 4931.78  24
  -4   2  -6 80605.5 9225.84  24
  -4  -2   6 90761.8 5427.26  19
  -2   4   6 82763.7 6689.80   3
   2   4   6 79117.3 5684.38   3
   2  -4   6 76607.7 5056.06  23
   4  -2   6 79289.0 4577.74   1
  -2  -4  -6 62131.7 8139.40  10
   2  -4  -6 57219.9 8362.13  10
   4  -2  -6 77434.5 6643.59   2
   4  -2   6 77550.4 4859.05  23
   4   2  -6 87397.4 4705.33   1
  -4  -2  -6 70617.3 8132.82  10
   4   2  -6 94389.8 6865.81  12
   2   4  -6 82427.4 6306.26  22
   2   4  -6 70823.4 6191.35  12
  -4   2   6 81191.2 8406.85   3
  -2   4   6 77818.0 5160.82  18
  -2  -4   6 85561.8 5304.93  18
   2   4  -6 67608.1 2662.56   1
   2   4  -6 88670.6 5483.30   2
  -2   4  -6 82058.7 9644.54  24
  -4   2  -6 68005.5 9396.00  21
  -2   4  -6 84941.1 6289.25  22
   4  -2   6 83016.8 5916.87  18
   4   2  -6 86912.0 6313.10   2
  -4   2   6 81153.3 4684.77  19
   4   2   6 83861.4 3966.32  23
  -4   2   6 78698.4 4478.91  18
   2   4   6 84358.5 5440.74  18
   4   2   6 78113.7 5333.56   1
   2  -4   6 65313.9 7384.77  20
  -4  -2   8 54121.8 4874.07  19
   2   4   8 49233.0 4737.51  18
   4   2   8 47266.3 3521.26  23
   4  -2   8 46420.9 4190.37  23
  -4   2   8 48833.6 4032.67  18
  -4   2   8 41879.2 4253.99  11
  -4  -2  -8 36162.5 6143.47  21
   2   4  -8 39940.8 6791.08  24
   2  -4   8 44670.4 5412.93  20
  -2  -4   8 47491.0 4416.86  18
   4  -2   8 38230.2 5714.11   9
   4   2  -8 37555.5 4923.82  24
   4   2  -8 52696.0 5822.60  12
   4   2  -8 49553.7 5289.71   2
   4   2   8 46333.1 4285.57   1
   2  -4  -8 35837.4 7404.85  10
  -2  -4  -8 39980.5 5326.74  21
  -4  -2   8 50467.3 3508.23  18
  -4  -2   8 52030.9 4789.59  11
  -4   2   8 47499.4 6847.21   3
   2   4  -8 50245.8 4641.16   2
   2   4  -8 52443.4 5632.87  22
  -4  -2  -8 30749.1 6220.23  10
   2   4  -8 41448.9 5213.99  12
  -2   4  -8 57513.8 5588.85  22
   4  -2   8 45228.1 4771.84  18
   2   4   8 46445.3 4954.99   3
  -2   4  -8 42650.9 7880.71  24
   4  -2   8 42473.4 3217.04   1
   4   2   8 48740.8 4785.39  18
  -4   2  -8 50290.0 8240.29  24
  -4   2   8 50012.1 4222.30  19
  -2   4   8 38758.2 3568.80  11
  -2  -4  -8 34761.5 7334.35  10
   4  -2   8 47736.5 5360.02  20
  -2   4   8 53382.7 5915.53   3
   4  -2  -8 48571.2 5797.62   2
   4   2   8 44964.6 4534.95   3
   2  -4   8 44438.0 4833.10  18
  -2   4   8 46598.6 4469.32  18
   2   4   8 47350.5 4683.86   1
  -4  -2 -10 14694.5 4431.58  21
   2  -4 -10 11405.9 4645.93  10
   4  -2  10 17168.1 3902.09   9
  -4   2  10 17537.8 2835.35  19
  -2   4  10 17958.4 3156.89  18
   4  -2  10 15850.6 2713.21  23
   4   2 -10 20205.4 4052.15  12
   2   4  10 19842.8 3434.35  18
   4  -2  10 17998.3 3345.06  18
   4  -2 -10 16355.3 3732.12   2
   2   4 -10 15011.4 4830.54  24
  -4   2 -10 15061.2 5049.28  24
   4  -2  10 18305.3 2719.88   3
  -4   2  10 15908.9 4561.31   3
  -2  -4 -10 12905.3 3581.69  21
   2   4 -10 16031.1 2935.95   2
  -4  -2 -10 14042.2 4551.30  10
  -2  -4  10 17217.6 2997.54  18
   4   2 -10 18247.8 3543.68   2
   4   2  10 16881.0 3005.63   3
  -2   4 -10 18313.4 5345.91  24
   2   4  10 16299.6 3054.58   1
  -4   2  10 17208.2 2746.35  18
   4   2  10 18812.0 2919.74   1
   2   4  10 18361.9 3413.34   3
   2   4 -10 16407.0 3647.22  12
  -2   4  10 14874.4 2593.04  11
  -2  -4 -10 11589.7 4594.77  10
  -4  -2  10 18130.9 3240.14  11
  -4   2  10 18458.5 3190.05  11
   2  -4  10 16624.0 3295.26  18
   4   2  10 9345.67 1813.53  23
  -2   4  10 19118.6 4043.28   3
   4   2  10 19102.4 3387.59  18
   4  -2  10 15395.6 3030.78  20
  -4  -2  10 20427.9 3373.65  19
  -2   4  12 12854.3 3587.52   3
  -4  -2  12 16133.1 3321.64  19
  -4   2  12 12018.9 2853.70  11
   4   2 -12 14635.9 3801.45  12
  -2  -4  12 12298.0 2691.65  18
   2   4 -12 10452.9 4155.64  24
  -4   2  12 12874.0 2706.35  19
  -2   4  12 12732.0 2995.87  18
  -4   2  12 13632.0 2845.92  18
   4  -2  12 10671.1 2427.53  23
  -2  -4 -12 8340.93 4355.04  10
  -4  -2 -12 9264.66 3516.16  21
   2   4  12 15597.9 3415.59  18
   4   2  12 14150.2 3198.25  18
   4  -2  12 10878.7 2819.96  18
   4   2 -12 12182.5 3010.32   2
   2   4  12 13766.1 3305.82   3
   4   2  12 12109.0 2777.70   3
  -4  -2  12 12222.8 3017.68  11
  -2   4  12 10998.4 2507.65  11
   2   4 -12 9166.41 3000.18  12
   2  -4 -12 10379.2 4629.09  10
  -4  -2 -12 8581.24 4245.85  10
   2  -4 -12 9688.99 3194.57   2
   2  -4  12 11560.8 2998.33  18
  -4   2 -12 11228.2 4126.84  24
  -2   4 -12 11048.2 4933.92  24
   4  -2 -12 14230.1 3718.48   2
  -2   4  14 14469.0 4138.14   3
   2   4 -14 11025.9 4633.25  24
   2   4 -14 9188.32 937.926   8
   4   2 -14 8019.16 982.371   8
   2  -4  14 8302.68 2690.69  18
   2   4 -14 6588.43 2870.10  12
  -2  -4 -14 8143.41 1046.54  17
  -4  -2 -14 13523.8 5475.55  10
  -4   2  14 6170.15 2131.50  11
  -2   4  14 8841.92 2667.06  18
  -4   2  14 8036.04 2509.72  19
   4   2  14 6681.90 2453.73   3
  -2   4  14 5855.85 2064.96  11
   4  -2  14 7463.89 2539.17  18
   4  -2 -14 3944.79 1992.24   2
   4   2 -14 5531.33 2211.07   2
  -4  -2 -14 9514.98 1233.70   7
   4   2  14 8550.83 2739.96  18
   2   4  14 7309.54 2483.05  18
   4  -2  14 7497.03 2212.46  23
  -4  -2 -14 6996.79 993.399  17
  -2   4 -14 11779.9 5214.37  24
  -2  -4 -14 3834.11 3226.44  10
   2  -4  14 6047.15 2086.08  23
   4   2 -14 7442.85 2865.97  12
  -4   2 -14 5689.82 3898.27  24
  -4  -2  14 8966.57 2613.14  11
  -4  -2  14 9898.54 2938.45  19
   2  -4 -14 9273.32 1149.09   8
   2   4 -14 11861.6 1446.33  14
   4   2 -14 12262.4 1484.69  14
  -4  -2 -14 12308.8 4968.13  24
   4  -2 -14 9553.31 1097.71   8
   2   4  14 4318.60 2001.52   3
  -4   2 -14 7440.40 1076.93   7
   2  -4 -14 9120.51 3622.36   2
  -2  -4 -14 8701.01 1138.04   7
  -4   2 -16 136.736 294.316   7
   4  -2 -16 129.634 414.944   8
  -2  -4 -16 156.206 284.093   7
   2   4 -16-262.113 312.970   8
   2   4 -16-87.5085 431.162  14
  -4  -2 -16-143.031 317.164   7
   4  -2  16-1752.33 1137.58  23
  -2   4 -16 3823.64 2484.41  24
  -2   4  16-2765.96 1580.48  11
   4   2 -16 208.801 385.386  14
  -2  -4 -16 155.144 223.084  17
  -2   4  16 853.569 928.183  19
  -2  -4 -16 5444.02 3467.25  24
   4   2 -16 54.1570 351.078   8
   2  -4 -16 90.9443 346.280   8
  -4   2 -18 13821.3 1445.46   7
   4  -2 -18 14417.1 1376.85   8
   2  -4 -18 14088.7 1492.52   7
   4   2 -18 14142.3 1246.86   7
   2   4 -18 11804.8 1088.32   8
   4   2 -18 13487.7 1219.76   8
   4   2 -18 13179.7 1326.03  14
  -2   4 -18 15605.5 1690.56   4
   2   4 -18 15387.7 1496.68  14
  -2  -4 -18 15166.4 1565.44   7
  -4  -2 -18 14586.2 1543.94   7
   4   2 -20 11343.7 1031.85   8
  -4   2 -20 10647.7 1165.42   7
   4  -2 -20 11292.2 1148.88   7
  -2   4 -20 12209.3 1352.13   4
   2  -4 -20 10762.8 1184.36   7
  -4   2 -20 11590.4 1452.81   4
  -2  -4 -20 12645.9 1327.52   7
   4  -2 -20 10050.5 1071.24   8
  -4  -2 -20 11338.6 1263.01   7
   2  -4 -22 10257.5 963.773   7
   4  -2 -22 8855.57 849.316   7
  -4   2 -22 8376.42 876.256   7
  -4   2 -22 9256.51 1044.36   4
  -2  -4 -22 10339.1 1017.99   7
  -4  -2 -22 9936.20 1007.50   7
  -2  -4 -24 2264.75 356.687   7
   3   4  -1 3047.12 1277.71  22
   3  -4   1 2737.23 758.987   2
  -4   3  -1 3212.99 892.262  19
   3  -4  -1 3031.53 2155.57  20
  -4  -3   1 3337.65 1275.94  21
  -3  -4   1 3449.13 1225.58  21
   4   3  -1 3920.22 1212.92   2
   3   4   1 3160.62 1099.61   2
   4   3   1 4535.31 1257.11   1
  -3   4   1 3159.33 702.177  19
  -4   3   1 4545.64 1168.14  11
  -4   3   1 3266.35 868.235  19
   3   4   1 3472.46 829.435  18
  -3   4  -1 3691.96 897.133  19
  -4   3  -1 2124.89 1567.32   3
  -3  -4   1 4493.03 2026.50  10
   4   3   1 2874.90 1060.25   2
   4   3   1 2881.60 544.438  23
  -4   3   1 1942.78 1932.70   3
  -3   4  -1 1998.32 1496.65  24
   4   3  -1 2656.91 1075.73   1
   3  -4   1 1208.46 614.812  10
   4  -3  -1 3727.91 899.309  23
   3  -4   1 1835.11 1533.94  20
   3   4   1 3476.70 1278.66   1
  -4   3  -1 2351.81 1298.57  24
  -3  -4   1 3335.11 851.189  19
   4  -3   1 2449.01 1741.08  20
  -4  -3  -1 3536.29 986.182  19
   3   4   1 2428.38 968.592   3
  -3  -4  -1 2816.38 1085.31  21
  -3  -4  -1 3441.92 862.680  19
  -4  -3  -1 3170.85 1454.96  21
  -4  -3  -1 4929.86 1053.59  11
   3  -4  -1 1784.72 1149.08  10
  -4   3   1 3320.17 1519.89  24
   3   4  -1 1952.71 665.125   3
  -3  -4   1 5625.69 842.512  11
  -3   4   1 1693.69 1201.27  24
  -4  -3   1 5991.87 1091.90  11
  -3   4   1 5167.74 1137.29  11
  -3   4   1 2412.61 1481.22   3
   4  -3   1 3851.95 816.209   2
  -4   3  -1 4711.11 1232.34  11
  -3   4  -1 4431.19 1214.29  11
   3   4  -1 3790.13 1177.35   2
  -3   4  -1 2375.82 1450.88   3
   3  -4  -1 3886.24 903.744  23
  -4  -3  -1 3003.66 1674.75  10
   4   3   1 2330.06 942.082  22
   4  -3  -1 3297.78 1075.79   2
   4  -3   1 3609.81 900.947  23
   3  -4   1 3707.45 888.427  23
   3   4  -1 2087.53 995.480   1
  -4  -3   1 3920.71 1035.70  19
   4   3  -1 2411.68 952.008  22
  -3  -4  -1 4157.27 2066.19  10
   3   4   1 2745.47 994.549  22
   4   3   1 3111.30 633.609  18
  -3   4  -1 2866.42 1577.73  22
   4  -3  -1 4680.69 2529.00  20
   4   3   3 7425.91 723.296  23
  -4  -3   3 8090.63 1421.25  11
  -4  -3  -3 6718.63 1486.29  19
   4   3   3 5740.79 1318.61  22
   3  -4   3 8193.41 1448.63  23
  -3   4   3 8944.53 1503.31  11
   3   4   3 8416.50 1404.42  18
  -4  -3  -3 4659.29 2222.26  10
   3  -4   3 6692.23 2740.37  20
   4   3   3 8664.10 1302.53  18
   4  -3  -3 4641.55 1402.88   2
  -3  -4   3 8834.42 1441.96  19
  -4   3   3 5557.19 2484.10   3
   4   3  -3 8338.87 1748.59  22
  -4   3  -3 7770.98 1555.21  19
  -3  -4  -3 8107.93 2153.02  21
  -3   4  -3 6791.81 2657.49  24
  -4   3  -3 8001.49 2693.25  24
   3   4   3 5364.66 1390.20   3
  -4  -3   3 5018.46 540.534  18
  -3  -4   3 7272.16 1752.52  21
  -3   4   3 7382.95 1029.24  19
   3   4  -3 6413.34 1451.46   2
   3   4   3 5654.42 1644.21  22
  -4   3  -3 7807.32 1646.18  22
   3   4  -3 4487.87 747.456   3
   3  -4  -3 5678.75 2365.25  10
  -4  -3   3 8341.24 1825.26  21
  -3  -4  -3 7309.00 1438.91  19
   4  -3  -3 8296.61 1376.20  23
  -4  -3   3 8953.16 1544.18  19
   4   3  -3 5678.58 1486.01   2
  -3   4  -3 7229.38 1859.06  22
   4  -3   3 6915.34 1319.70  23
  -4  -3  -3 7267.50 2127.85  21
   3   4  -3 6084.16 2048.26  24
   4   3   3 5782.50 1488.01   1
   3  -4  -3 7717.19 1253.08  23
  -3   4  -3 3525.72 1863.89   3
  -3  -4  -3 7889.13 3011.31  10
   4   3  -3 7056.21 1586.26  12
   3   4  -3 8382.10 1932.71  22
   3   4   3 5978.17 1518.37   1
   4   3  -3 6046.77 1343.27   1
  -4   3   3 7561.08 1273.74  19
   3   4  -3 5811.76 1218.35   1
   4  -3  -3 4557.72 2487.80  20
   3  -4  -3 4016.48 2315.86  20
  -4   3   3 7727.16 1503.97  11
  -3  -4   3 8592.46 1262.66  11
  -3   4   3 5737.91 2102.43   3
   4  -3   3 6981.72 2975.34  20
  -3   4   5 109871. 6029.55  18
   3  -4  -5 106796. 4970.15  23
  -4   3   5 109269. 5123.15  19
  -4  -3  -5 104184. 6498.64  19
   3   4   5 117879. 6019.21  18
  -4   3   5 93292.6 9017.28   3
  -3  -4   5 115192. 5420.28  18
   4   3  -5 97926.1 5029.16   1
   3   4  -5 96081.7 4369.29   1
   4   3   5 121966. 3579.24  23
   4   3   5 121719. 6045.80  18
   4  -3   5 105609. 9473.50  20
   3   4   5 95659.5 6047.55   3
   4  -3  -5 109283. 5235.33  23
   4   3   5 105649. 6378.23   1
   4   3  -5 120591. 7280.25  22
   3   4  -5 81200.1 8148.83  24
   3  -4   5 90308.4 9128.22  20
   3   4  -5 105195. 6377.24   2
  -3   4   5 108054. 4423.05  19
  -3  -4   5 127310. 5914.44  11
  -3  -4   5 123869. 5935.99  19
  -3   4  -5 115862. 11211.5  24
   4   3  -5 66784.3 6303.14  24
   3  -4  -5 81813.9 8908.54  20
  -3  -4   5 112489. 6775.70  21
   4   3  -5 109213. 6801.16   2
   4  -3  -5 93040.7 9106.49  20
  -4   3   5 110266. 5648.22  18
   3  -4   5 106234. 5797.03  23
   4  -3   5 105064. 5682.62  23
  -3   4   5 115817. 5789.05  11
   4   3  -5 119266. 7389.31  12
  -4  -3   5 129069. 6285.08  11
  -4   3   5 117859. 6218.77  11
  -3  -4  -5 107324. 8142.23  21
  -4   3  -5 118712. 10993.7  24
  -3   4   5 105314. 8296.04   3
  -4  -3   5 124169. 6271.29  19
  -3   4  -5 123313. 7352.63  22
  -4  -3  -5 91392.2 9342.96  10
  -4  -3   5 123786. 6664.86  21
   3  -4  -5 75199.0 8842.13  10
   4  -3  -5 104948. 7456.27   2
  -4  -3   5 106278. 3594.14  18
   3   4  -5 103660. 7124.81  12
  -4   3  -5 133914. 6586.82  22
   4   3   5 101051. 6313.26   3
  -3  -4  -5 90239.1 9510.71  10
  -4  -3  -5 106327. 8916.40  21
   3   4  -5 118079. 7452.06  22
   3   4   5 97901.2 6361.54   1
   4  -3   7 102949. 7182.82  18
   4  -3   7 98513.9 8465.76  20
  -4   3  -7 154802. 8055.60  22
  -3   4   7 104001. 5139.97  19
  -3  -4   7 111637. 6673.37  21
  -4   3   7 95949.6 5327.40  19
   3   4   7 109867. 6792.66  18
   4  -3  -7 97809.0 8181.90   2
   3   4   7 105061. 7017.20   3
   4   3  -7 109121. 7452.23   2
   3   4  -7 103725. 8065.35  12
   4   3   7 113290. 4489.31  23
   3  -4  -7 89047.0 10957.7  10
  -3   4  -7 120098. 7618.39  22
   4   3  -7 71212.6 7146.21  24
   3   4   7 100597. 6799.55   1
  -3  -4   7 116638. 6656.64  11
  -4  -3  -7 81971.0 8585.66  21
  -4   3   7 114072. 10316.1   3
   4   3   7 110460. 7111.24   3
  -3   4   7 95909.4 5778.58  11
  -3   4   7 102442. 6393.56  18
   3  -4   7 95871.5 6900.98  18
   3   4  -7 105344. 6869.10   2
   3   4  -7 111876. 7882.76  22
   3  -4  -7 101714. 5321.60  23
   4   3  -7 98695.2 4585.28   1
   4  -3  -7 87552.6 8396.60  20
   4   3  -7 106757. 7870.22  12
   3  -4  -7 82834.2 9225.47  20
  -4  -3   7 112828. 6728.18  11
  -3   4   7 110606. 9071.22   3
  -3  -4  -7 82392.7 10684.8  10
  -4   3  -7 110496. 11785.9  24
   3  -4   7 94645.6 8796.83  20
   4  -3   7 100935. 6156.60  23
  -3  -4  -7 90804.0 8318.62  21
  -3  -4   7 113293. 5984.75  18
   4   3   7 114811. 6881.73  18
   4   3   7 100366. 6655.55   1
  -4  -3  -7 86798.8 10373.1  10
   4  -3   7 98573.9 4934.74   1
   4  -3  -7 98927.3 5432.17  23
  -4  -3   7 117519. 6893.24  19
  -4   3   7 104259. 6071.58  18
   3  -4   7 94298.4 6009.81  23
  -3  -4   7 119012. 6719.60  19
   3   4  -7 74319.7 8485.55  24
  -4   3   7 102262. 6401.16  11
  -3   4  -7 112843. 12364.0  24
  -3   4  -9 40830.1 8113.30  24
  -3   4   9 37674.0 4069.21  11
   3  -4  -9 36483.8 5442.52   2
  -3   4   9 38163.4 4345.47  18
   4  -3  -9 39547.0 5609.95   2
  -4  -3   9 48241.5 5003.06  19
  -4   3   9 40478.4 4474.08  11
  -3   4   9 39860.6 3676.73  19
   3  -4   9 38374.4 4857.55  18
  -3  -4   9 44364.8 4734.78  19
   4   3  -9 23948.4 4333.36  24
   3   4   9 35041.5 4263.42   1
   4  -3   9 39373.9 4842.39  18
  -4  -3   9 46747.9 5018.94  11
  -3  -4  -9 25352.3 6820.07  10
  -4  -3  -9 25538.7 6453.22  10
  -4   3   9 38226.4 4097.05  18
   4   3  -9 40135.9 4923.58   2
   3   4   9 44535.5 4871.80  18
   3   4  -9 35008.1 4390.61   2
   3  -4  -9 31847.2 7119.88  10
   3   4  -9 39480.6 5531.06  12
   4   3   9 38081.0 4335.48   1
   4   3  -9 40376.5 5497.79  12
   3   4  -9 33162.0 6304.09  24
  -4   3  -9 40232.3 8059.04  24
   4  -3   9 39162.1 5095.59  20
   4   3   9 37794.5 4528.28   3
  -3  -4   9 41938.2 4176.06  18
  -3   4   9 40637.3 6041.15   3
  -4   3   9 37670.7 6608.77   3
  -3  -4  -9 30110.4 5502.17  21
  -4   3   9 40690.4 3945.69  19
   3  -4   9 29776.1 4314.77  20
   4  -3   9 40590.1 4305.50  23
   3  -4   9 36593.9 4165.86  23
  -4  -3  -9 35278.5 6422.98  21
   4   3   9 44457.1 4891.95  18
   4  -3   9 35543.0 5852.89   9
   3   4   9 37122.7 4643.20   3
  -3  -4 -11 15987.1 5532.27  10
   3   4 -11 14292.6 4505.47  24
   4   3 -11 19324.2 4243.87  12
   4  -3 -11 19472.2 4279.02   2
  -4   3  11 19427.2 3250.87  18
  -4   3  11 22666.7 3738.24  11
   4  -3  11 19054.0 3212.45  23
   3   4  11 16688.9 3422.62   3
  -4   3 -11 18749.7 6319.80  24
  -3   4  11 21004.8 3068.92  19
  -3  -4  11 24908.8 4018.30  19
  -4   3  11 22480.2 3345.85  19
  -3  -4 -11 13752.4 4090.46  21
   3  -4 -11 20231.4 6106.38  10
   3  -4  11 18523.8 3679.76  18
   3   4  11 22764.4 3911.00  18
  -4  -3  11 23477.4 3957.18  11
   4   3  11 22034.5 3884.75  18
  -3   4  11 23680.9 3633.80  11
   4  -3  11 20089.0 3770.05  18
   4   3  11 17014.8 3338.71   3
  -4  -3 -11 13472.5 5347.10  10
  -3   4  11 19356.7 3413.09  18
   3  -4 -11 15415.9 3938.03   2
   3   4 -11 19180.7 4289.86  12
  -4  -3  11 25099.2 4053.04  19
  -3   4  11 20448.6 4798.48   3
   3   4 -11 16197.2 3198.49   2
   3   4  11 18308.6 3344.35   1
  -3   4 -11 20234.8 6265.30  24
   4   3 -11 18655.7 3642.83   2
   3  -4  11 17329.7 3113.09  23
   4   3  11 15098.7 2856.89   1
  -4  -3 -11 16032.6 4788.39  21
  -4   3  11 18932.4 4773.21   3
   3   4 -13 5627.14 729.886   8
   4  -3  13 5500.11 1767.52  23
  -4   3  13 6334.06 1928.05  19
  -3  -4  13 6203.24 2263.52  19
   3  -4  13 5075.97 1861.21  23
   4   3 -13 7978.51 1256.92  14
   4  -3 -13 6365.35 982.480   8
  -4  -3  13 6574.07 2385.95  11
  -3  -4 -13 5392.44 3748.16  10
  -3   4  13 6787.50 2444.15  18
   3   4 -13 9207.88 1356.23  14
  -4  -3 -13 6551.42 995.845   7
  -4   3 -13 6021.30 942.254   7
  -3   4  13 6585.49 1950.76  19
   3  -4 -13 7288.93 1018.43   8
  -3  -4 -13 6226.96 971.992   7
   3  -4  13 5955.40 2208.35  18
  -4   3  13 4277.18 1556.64  18
  -4  -3 -13 3186.08 2885.37  10
  -4  -3 -13 5700.36 913.484  17
   4   3  13 4376.73 1882.86   3
  -4  -3  13 6607.41 2413.29  19
   4  -3  13 3593.25 2044.94  18
   4   3 -13 5935.59 2264.44   2
   3  -4 -13 6500.97 2749.24   2
   3   4 -13 4666.92 2275.61  12
   3   4  13 5236.87 2199.91  18
  -3   4 -13 7399.14 4600.73  24
   4   3 -13 6092.80 807.773   8
  -4   3 -13 6048.19 4018.00  24
   3   4  13 5631.79 2177.85   3
   4  -3 -13 3187.62 1910.43   2
  -3   4  13 7135.08 2393.26  11
  -4   3  13 4019.42 2056.17  11
  -3   4 -13 6109.20 899.111   7
   4   3 -13 3437.36 2147.31  12
  -3  -4  13 5922.24 2218.85  11
  -3  -4 -13 5726.67 890.372  17
   4   3  13 8896.76 2687.24  18
  -3   4  13 4872.53 2613.22   3
   3  -4 -15 18134.1 1602.97   8
  -3   4  15 15040.9 3073.28  19
   3   4 -15 20414.3 1893.62  14
  -3   4  15 10254.2 2951.41  18
  -4  -3 -15 13753.7 1462.56  17
   3   4  15 15863.9 3908.73  18
  -4  -3 -15 17899.2 1754.56   7
  -3  -4 -15 17850.9 1774.09   7
  -3   4  15 13791.7 3465.93  11
  -3   4 -15 4789.03 3615.81  24
   4  -3 -15 18928.0 4636.11   2
   3  -4  15 14872.5 3705.89  18
   4  -3  15 11728.6 3340.62  18
  -4   3 -15 8361.05 4383.19  24
  -4  -3  15 14927.4 3790.25  11
   3   4  15 15496.3 3827.17   3
   4   3 -15 20012.6 1850.91  14
   3  -4 -15 9287.52 3378.39   2
  -4   3  15 13657.9 3530.47  11
   4   3  15 16946.8 4025.56  18
  -4   3  15 15042.8 3407.02  19
  -3  -4  15 15206.1 3762.43  11
  -3   4 -15 15537.5 1479.68   7
  -3  -4 -15 17369.4 6780.43  10
   4   3  15 15516.3 3689.22   3
   4  -3  15 13511.3 3105.25  23
   3   4 -15 13879.3 4147.00  12
   4   3 -15 12027.0 3679.45  12
   4  -3 -15 17465.3 1574.56   8
  -4   3 -15 15897.7 1560.46   7
  -4  -3 -15 19779.4 6916.76  10
  -4  -3 -15 11194.9 4959.35  24
   3   4 -15 16585.6 1301.11   8
   4   3 -15 15328.1 1326.60   8
  -3  -4  15 23381.6 4706.03  19
  -3  -4 -15 15490.0 1535.84  17
   3  -4  15 13444.6 3238.34  23
  -4  -3  15 15477.7 3767.50  19
   4   3 -17 11166.8 1302.61  14
  -4  -3 -17 10498.4 1390.70   7
  -3   4 -17 9564.73 1137.28   7
  -3  -4 -17 11191.8 1366.35   7
   3  -4 -17 9024.33 1196.23   8
  -3  -4 -17 9144.99 1165.15  17
   3   4 -17 10125.5 1009.18   8
   3   4 -17 12409.1 1394.04  14
   4  -3 -17 9884.47 1179.35   8
  -3   4 -17 9353.99 1434.55   4
  -4   3 -17 9799.46 1220.42   7
   4   3 -17 10385.6 1085.70   8
  -3  -4 -19 23427.6 1885.15   7
  -3   4 -19 16655.5 1389.56   7
  -3   4 -19 20694.2 1897.61   4
   4  -3 -19 20442.5 1591.98   8
  -4   3 -19 19480.3 1621.62   7
   3  -4 -19 20315.9 1692.62   7
  -4  -3 -19 22627.0 1872.02   7
   3   4 -19 14424.8 1113.43   8
  -4   3 -19 21134.5 2030.82   4
   4   3 -19 18924.4 1374.33   8
   3  -4 -21 13316.9 1196.86   7
  -3  -4 -21 14067.0 1298.37   7
  -4   3 -21 11062.0 1034.70   7
  -4  -3 -21 13990.6 1307.46   7
   4  -3 -21 11968.5 1108.65   7
  -4   3 -21 13455.0 1356.30   4
  -3   4 -21 13249.4 1279.80   4
   3   4  23 11964.3 1003.37   5
   3  -4 -23 9824.06 790.456   7
  -3  -4 -23 9368.49 842.284   7
  -4  -3 -23 9851.53 867.607   7
   4  -3 -23 9315.26 743.801   7
   4   3  23 11027.6 940.542   5
  -4  -4   0 84440.7 6773.25  21
   4  -4   0 75176.2 4424.54   2
  -4  -4   0 81387.6 4542.59  19
  -4   4   0 58790.7 6514.09  24
  -4  -4   0 61303.2 3347.22  11
   4   4   0 84525.6 5595.14   1
   4   4   0 83389.8 4691.02   3
   4   4   0 66501.7 4903.50  22
  -4   4   0 65173.1 7552.38   3
  -4  -4   0 95707.4 8555.45  10
  -4   4   0 58289.8 4334.12  11
   4   4   0 82954.3 5587.53   2
   4  -4   0 59234.1 8034.66  20
  -4   4   0 77416.5 4082.87  19
   4  -4   0 75701.8 4233.08  23
   4   4   2 860.763 777.275   1
  -4   4   2 1108.32 490.619  19
  -4   4  -2 450.548 1234.78  24
  -4   4  -2 851.546 1338.60   3
  -4  -4  -2 1258.13 1033.60  21
   4  -4   2 269.405 1273.59  20
  -4   4   2-71.5434 467.115  11
   4   4  -2 815.454 538.577   1
  -4  -4  -2 815.073 505.459  19
  -4   4  -2 1327.31 588.401  19
   4  -4  -2 1179.66 1124.08  10
   4   4   2 1191.26 519.346  18
  -4  -4   2 889.100 512.905  19
   4  -4   2 461.974 186.452   2
   4   4  -2 520.091 481.547   3
   4   4   2 999.150 743.017   3
  -4   4  -2 876.269 625.935  22
   4   4   2 752.366 525.050   2
  -4  -4   2-662.612 406.706  11
   4   4  -2 1350.10 924.701  22
   4  -4  -2 629.588 770.432   2
  -4   4   2 1251.59 1173.87   3
   4   4  -2 198.656 596.528   2
  -4  -4  -2 1161.34 1447.12  10
   4  -4   2 1070.27 620.739  23
   4   4   2 213.738 548.603  22
   4  -4  -2 949.161 457.279  23
   4  -4  -2 626.388 1374.34  20
  -4  -4   2 1343.72 1041.91  21
   4   4  -4 664.820 353.345   3
   4  -4   4 125.187 994.156  20
   4   4  -4 164.771 537.199   2
   4  -4  -4 276.394 1239.02  10
   4   4   4 827.307 614.379   1
  -4  -4   4 1917.55 838.001  19
   4   4   4 1538.68 741.595  18
   4  -4  -4 1701.58 684.807  23
   4  -4   4 1117.11 707.165  23
  -4  -4  -4 1136.04 535.874  19
  -4   4   4 271.358 482.403  11
   4   4   4 896.103 841.699   3
  -4  -4   4 1643.12 509.046  18
  -4  -4  -4 1259.15 1693.14  10
  -4  -4   4-267.430 410.784  11
  -4   4  -4 1481.28 1807.94  24
  -4  -4  -4 450.995 1124.41  21
   4  -4  -4 1608.87 1597.06  20
  -4   4   4 1582.83 690.194  19
   4  -4  -4 1486.18 1202.69   2
  -4   4   4 373.460 949.980   3
  -4  -4   4 973.187 728.464  21
   4   4   4 1053.28 850.168  22
   4   4  -4 623.673 808.282  22
   4   4  -4 1023.04 583.921   1
  -4   4  -4 1592.73 787.591  22
  -4  -4   6 18517.0 2688.59  19
   4   4   6 12967.5 2280.10  18
   4  -4  -6 12958.2 1833.35  21
  -4   4   6 13686.2 2305.04  18
  -4   4  -6 13919.1 4360.16  24
  -4  -4   6 15454.5 2600.34  21
   4  -4  -6 9518.36 2611.20   2
   4  -4  -6 5964.29 2859.16  10
  -4  -4  -6 6042.09 2080.38  10
  -4   4   6 14197.2 1953.14  19
  -4   4   6 7099.65 2795.64   3
  -4   4   6 7179.39 1651.63  11
   4   4   6 9290.30 2192.48   1
   4   4  -6 8076.03 1371.16   1
   4   4  -6 8172.59 2042.38   2
  -4   4  -6 17082.6 2743.46  22
   4   4  -6 12043.9 2669.95  12
  -4  -4   6 10228.4 2002.66  11
   4   4   6 7477.72 1860.22   3
   4  -4   6 11033.0 3342.08  20
   4   4  -6 13963.4 2814.68  22
  -4  -4  -6 12175.6 3288.07  21
   4   4  -6 9017.54 3164.97  24
   4  -4  -6 15227.9 2105.17  23
   4  -4   6 13854.7 2277.94  23
   4  -4  -6 9153.77 3252.10  20
  -4   4   8 22450.4 4946.92   3
   4   4   8 22621.3 3461.42   1
   4  -4   8 19179.6 4099.63  20
  -4   4   8 21314.1 2637.16  19
   4  -4  -8 21986.2 2737.02  23
  -4   4   8 20807.7 3096.53  18
   4  -4  -8 21400.8 4150.34   2
   4   4  -8 22051.0 3516.81   2
   4   4   8 25565.1 3541.15  18
   4  -4   8 24540.6 3309.05  23
   4   4   8 21757.2 3525.04   3
  -4   4  -8 23097.7 6027.07  24
   4   4  -8 20955.7 3888.44  12
   4   4  -8 11863.0 3718.74  24
  -4   4   8 14392.3 2574.01  11
   4  -4  -8 20761.6 4740.90  20
  -4  -4   8 18135.8 2958.46  11
  -4   4  -8 33481.2 4242.98  22
  -4  -4   8 26408.1 3594.56  19
  -4  -4  -8 20433.5 4568.69  21
  -4  -4  -8 12182.7 4481.43  10
   4  -4   8 23080.6 3695.35  18
  -4  -4 -10 770.867 1833.46  10
   4  -4  10 3847.66 1609.00  20
   4  -4 -10 4570.76 2039.22   2
  -4   4  10 5920.80 1866.40  18
  -4   4  10 3751.58 1487.64  11
  -4  -4 -10 1033.28 1280.10  21
   4  -4  10 4474.89 1760.11  18
   4   4  10 3832.06 1667.14   3
   4   4 -10 3671.68 1548.15   2
  -4  -4  10 5214.02 1957.61  11
   4   4 -10 2991.61 1876.06  12
  -4   4  10 5565.60 2517.05   3
  -4   4  10 5898.74 1610.80  19
  -4  -4  10 4453.78 1585.77  19
   4  -4  10 2258.61 1877.30   9
   4  -4  10 5074.23 1666.55  23
   4   4  10 3820.18 1509.23   1
  -4   4 -10 4577.97 3113.81  24
   4   4  10 5516.32 1852.86  18
   4   4  12-116.764 470.084   1
  -4   4 -12 323.424 272.714   7
   4  -4 -12 1054.92 482.911   8
  -4  -4  12 428.926 873.389  19
  -4  -4 -12 17.1934 842.526  21
   4   4  12 1319.48 691.343   3
   4  -4  12-36.1654 486.830  18
   4   4  12 618.272 788.989  18
   4   4 -12-1362.34 1023.03   2
  -4   4  12-1515.60 1781.00   3
  -4   4  12 402.728 827.292  19
  -4  -4 -12 2332.77 2593.93  10
   4  -4  12 1023.01 848.864  23
  -4   4  12 484.270 700.042  11
  -4  -4 -12 588.367 377.918  17
  -4  -4  12 1487.45 1416.82  11
  -4   4 -12 859.265 1899.07  24
   4   4 -12-2246.04 1624.23  12
  -4   4  12 1220.09 960.860  18
   4  -4 -12-2929.65 1839.44   2
  -4  -4 -12 1122.67 493.632   7
   4   4 -12 352.385 324.538   8
  -4  -4  14 1006.94 1081.39  11
   4  -4  14 1136.60 949.585  23
  -4   4  14 5165.14 2202.64  18
  -4  -4 -14 1989.66 2664.55  10
   4  -4 -14 1281.37 1340.74   2
   4  -4  14 1673.43 1303.58  18
   4   4  14 2405.50 1515.27  18
  -4   4 -14 5609.65 3830.21  24
   4   4 -14 3039.24 810.079  14
  -4  -4 -14 1965.96 568.777  17
   4  -4 -14 2254.74 635.035   8
  -4  -4 -14 1796.76 496.811   7
  -4   4  14 1915.33 1344.93  11
   4   4 -14 1647.43 442.509   8
  -4  -4  14 1525.42 1349.31  19
  -4   4  14 2822.45 1532.11  19
   4   4 -14 379.982 954.247  12
  -4   4 -14 1850.16 588.838   7
   4   4  14 129.082 588.854   3
  -4   4 -16 9871.37 1177.96   7
  -4  -4 -16 12056.8 1489.92   7
  -4   4 -16 11205.2 1559.06   4
   4  -4 -16 12906.9 1355.10   8
   4   4 -16 10727.7 1079.35   8
   4   4 -16 14024.2 1555.49  14
  -4  -4 -16 10402.9 1282.02  17
   4  -4 -18 323.569 353.475   8
  -4   4 -18 336.020 270.341   7
  -4  -4 -18 165.699 258.799   7
  -4   4 -18 149.963 399.904   4
   4   4 -18-170.757 211.567   8
   4   4 -18 399.745 315.242  14
  -4  -4 -20 579.271 333.938   7
  -4   4 -20-81.6090 157.554   7
  -4   4 -20 623.370 446.291   4
   4  -4 -20 446.084 311.598   7
  -4  -4 -22 526.445 307.406   7
   4   4  22 325.843 391.648   5
   4  -4 -22 219.117 169.027   7
  -4   4 -22 273.466 186.721   4
   0  -5  -1 410020. 6419.29  23
  -5   0   1 404147. 17561.7  21
   5   0   1 406685. 8632.08  23
   0  -5   1 412555. 14207.6  10
  -5   0  -1 407874. 18685.3  21
  -5   0  -1 372867. 10846.8  11
   0  -5   1 415524. 7964.75  23
   5   0  -1 403841. 8649.97  23
   5   0   1 404313. 9505.03   2
  -5   0   1 394798. 10675.8  11
   5   0  -1 427075. 10889.6   2
  -5   0  -1 459143. 12401.5  10
   5   0   1 427903. 8210.60  18
   5   0   1 457475. 15407.9  20
  -5   0  -1 409679. 10612.9  19
   0   5  -1 274016. 15406.6  24
   5   0  -1 459520. 14787.4  20
   0  -5  -1 384284. 15410.4  10
   0   5   1 439781. 11221.4   3
   5   0  -1 393845. 5350.79  18
   0   5  -1 426161. 10203.9   3
  -5   0   1 398792. 10159.9  19
   0   5  -1 347648. 13960.2  22
   0   5   1 390974. 11633.2   1
   0  -5  -3 125478. 3525.90  23
   0   5   3 116531. 5924.75  18
   0   5  -3 98837.6 4950.57   3
   5   0  -3 132480. 7292.04  20
  -5   0   3 120488. 5802.86  19
   0  -5   3 124341. 5293.63  23
   5   0   3 129825. 5654.09  18
  -5   0   3 116152. 8524.60  21
   5   0   3 135932. 10636.0   9
   5   0   3 127356. 4988.89  23
   0   5  -3 100242. 9881.07  24
   0   5   3 118987. 7002.43   1
   0  -5   3 135939. 7982.79  10
  -5   0  -3 117796. 7186.74  10
  -5   0   3 96643.8 10586.6   3
   5   0   3 116020. 4818.02   2
  -5   0   3 116641. 6085.34  11
  -5   0  -3 123921. 11028.1  21
   0   5   3 128465. 6829.48   3
   5   0   3 140622. 8852.94  20
   5   0  -3 127585. 6865.83   2
   0   5  -3 113525. 7670.40  22
   0  -5  -3 109105. 9449.70  10
  -5   0  -3 127568. 6569.95  19
   0   5   3 107600. 2894.76  11
   5   0  -3 123251. 5144.95  23
   0  -5  -3 111828. 6970.92  21
  -5   0   5 265812. 9378.68  19
   0  -5  -5 244115. 10347.4  21
  -5   0   5 281983. 10218.4  11
   0   5  -5 228880. 15899.7  24
   0   5   5 258970. 9517.56  18
  -5   0   5 190705. 15278.0   3
   0   5   5 237114. 10693.7   1
   0  -5   5 184497. 12499.7  20
   5   0   5 259999. 9630.18   1
   0   5   5 265269. 10800.3   3
   5   0   5 260396. 7878.07  23
   5   0   5 277006. 9624.43  18
   0   5   5 266677. 6228.26  11
   5   0  -5 270185. 9148.47  20
   0   5  -5 274660. 7530.53   2
  -5   0  -5 251718. 13032.6  10
  -5   0  -5 242753. 16794.1  21
   5   0  -5 277168. 11331.6   9
   5   0   5 282318. 12778.6  20
   5   0  -5 252425. 8117.65  23
   0  -5  -5 208407. 15143.5  10
  -5   0  -5 249187. 10459.7  19
   5   0  -5 271120. 11361.1   2
   0   5  -5 249298. 11658.4  22
   5   0   5 279403. 15771.2   9
   5   0   7 283882. 9266.57  23
   5   0   7 298686. 13535.0  20
   0   5  -7 324283. 8493.10   2
   5   0   7 323257. 17621.2   9
   0   5  -7 252102. 18330.2  24
  -5   0  -7 261142. 15907.6  10
   5   0  -7 328362. 14086.2   2
  -5   0  -7 249758. 18399.5  21
   0   5  -7 296482. 13049.9  22
  -5   0   7 239837. 17293.8   3
   0   5   7 260419. 7748.21  11
   0   5   7 285337. 11219.1  18
   0   5   7 340272. 13540.7   3
   5   0   7 311722. 10757.4   1
  -5   0   7 264639. 11017.1  11
   5   0   7 306587. 11702.4  18
  -5   0   7 312879. 11092.7  19
   0  -5  -7 223192. 17953.0  10
   0  -5   7 223466. 13525.2  20
   0  -5  -7 264857. 11376.2  21
   0  -5   9 90377.2 7092.96  18
   5   0   9 85786.3 5680.74  23
   5   0   9 84141.4 9617.35   9
  -5   0   9 92895.9 7136.27  11
   0   5   9 88494.5 6964.21  18
   5   0  -9 87943.2 8067.61   2
   5   0   9 92549.4 7250.73  18
   0  -5  -9 75159.1 6676.66  21
  -5   0   9 55674.5 8813.87   3
  -5   0  -9 62479.6 9874.48  21
  -5   0  -9 77191.6 9816.58  10
  -5   0   9 94331.7 6886.31  19
   5   0   9 87518.1 5788.57   1
   0   5  -9 97743.9 8242.06  22
   0   5   9 100508. 8201.02   3
   0   5   9 76603.9 4968.03  11
  -5   0  -9 85511.9 11148.0  24
   0   5  -9 84372.0 11639.1  24
   0  -5  -9 63205.5 10640.6  10
   5   0   9 83022.9 7409.07  20
   0  -5 -11 62038.0 11808.7  10
  -5   0 -11 86810.7 12393.5  24
   0   5  11 102577. 8319.85  18
   5   0  11 98918.4 8221.31  18
   0  -5  11 88908.1 7707.63  18
   5   0 -11 101104. 9236.67   2
   0   5 -11 85926.1 12883.7  24
   0   5  11 108664. 9380.30   3
   5   0  11 89448.5 6452.94  23
   0   5  11 90789.2 6337.10  11
  -5   0  11 106639. 8552.61  11
   5   0  11 95211.3 7290.52   3
  -5   0  11 104077. 7928.63  19
  -5   0 -11 66227.4 10735.8  21
  -5   0 -13 171967. 5060.80   7
   0   5 -13 195510. 5399.80  14
   0  -5  13 135029. 10137.7  18
   0   5  13 158832. 11398.1  18
  -5   0  13 152582. 11447.5  11
   0  -5 -13 121237. 17213.0  10
   5   0  13 148968. 11117.6  18
   5   0  13 134717. 9235.28   3
  -5   0 -13 118817. 15586.5  24
   0   5 -13 123855. 16480.5  24
   0   5  13 170505. 13029.3   3
   5   0  13 138424. 8742.43  23
   5   0 -13 175075. 4472.47   8
  -5   0  13 156562. 10801.1  19
   5   0 -13 158834. 12371.1   2
   0   5  15 28295.3 5715.14   3
  -5   0  15 24684.2 5070.19  11
   0  -5 -15 28591.9 8288.13  10
   0   5 -15 32206.8 2299.10  14
   0  -5 -15 33585.5 2324.68   7
  -5   0 -15 21196.2 6678.25  24
  -5   0 -15 32087.6 2290.75   7
   0   5  15 24232.3 4833.92  18
   5   0  15 29815.3 5338.53  18
   0   5 -15 26520.0 7814.31  24
   0  -5 -15 24053.6 5358.12   2
  -5   0  15 30986.0 5225.70  19
   5   0 -15 33249.3 5756.68   2
   0  -5  15 23419.4 4490.29  18
   5   0 -15 28067.8 5910.76  12
   5   0 -15 33910.1 2031.68   8
  -5   0 -17 48856.1 2828.14   7
   0  -5 -17 52181.3 2896.10   7
   5   0 -17 52486.3 2540.13   8
   5   0 -19 65977.6 2704.24   8
   0  -5 -19 73444.2 3261.59   7
  -5   0 -19 68440.5 3197.39   7
   5   0 -19 64060.6 2690.30   7
   0  -5 -21 29474.7 1805.09   7
  -5   0 -21 27980.8 1806.71   7
   5   0 -21 26842.2 1507.53   8
   5   0 -21 27577.8 1486.89   7
   0  -5 -23 20732.6 1185.28   7
  -5   0 -23 19340.1 1175.87   7
   5   0  23 19314.6 1128.14   5
  -5   0 -23 20941.4 1386.95   4
  -5   1   0 140727. 6046.57  19
  -1   5   0 85148.1 8561.55  24
   5  -1   0 129634. 5481.65   2
   1   5   0 135475. 6272.16   1
   5  -1   0 158088. 10035.7  20
  -5  -1   0 136616. 6109.88  19
   5   1   0 136485. 6148.86   2
   1   5   0 116077. 8271.74  22
  -5  -1   0 134717. 6169.51  11
  -1  -5   0 143754. 8187.23  21
  -1  -5   0 138874. 3394.96  23
  -5  -1   0 135148. 9628.23  21
   5  -1   0 135161. 5250.03  23
   1   5   0 134371. 5678.21   3
  -5   1   0 137934. 6355.54  24
  -1   5   0 95551.0 7656.08  22
  -1   5   0 145265. 7074.61   3
   1  -5   0 140673. 4610.22  23
  -1  -5   0 138253. 9022.12  10
  -5   1   0 127606. 6264.16  11
  -5   1   0 123330. 10840.0  21
   1  -5   0 127576. 8147.58  10
   5   1   0 137042. 4746.06  23
   5   1   0 153552. 8219.85  20
   5   1   0 118107. 2228.93  18
   5   1   0 157236. 10197.8   9
  -5  -1  -2 122821. 7613.82  10
  -5  -1  -2 113997. 9615.09  21
  -1  -5  -2 129857. 7687.07  21
   5   1   2 133651. 6984.54   1
   1   5   2 121511. 5729.14  18
  -1   5  -2 94390.0 9381.62  24
  -5   1   2 118410. 5495.26  19
   1   5  -2 117380. 7863.90  22
   1   5  -2 122212. 4707.96   3
  -5  -1  -2 114094. 6188.51  11
   5   1   2 117911. 5425.88   2
   1   5   2 118939. 6364.90   1
   5  -1  -2 126341. 6346.33   2
  -5   1   2 142385. 6692.03  11
   1   5   2 123223. 6077.57   3
  -5  -1  -2 124013. 6215.88  19
  -1   5  -2 104938. 7677.28  22
   5  -1   2 128096. 5671.88  18
   5   1   2 134484. 4656.83  23
  -1   5   2 138724. 4202.33  11
  -1  -5  -2 116718. 9338.65  10
   5   1  -2 125190. 6463.14   2
   5  -1  -2 120569. 5053.45  23
   5  -1   2 138840. 9675.62  20
   5   1   2 132546. 4667.56  18
   5   1  -2 130496. 4975.39  23
  -1  -5   2 124384. 3441.94  19
  -5   1   2 108475. 9238.36  21
  -5   1   2 92163.9 10446.9   3
   5  -1  -2 135202. 9004.75  20
   1  -5   2 118047. 6832.35  10
   1  -5   2 130415. 5206.76  23
   5  -1   2 123387. 5081.81  23
   5   1  -2 128259. 8656.79   9
  -5   1  -2 130859. 6262.66  19
   5  -1   2 112755. 4446.53   2
  -1   5   2 135669. 7119.83   3
  -1  -5   2 130684. 8486.09  10
  -5   1  -2 121338. 5523.33  10
   1  -5  -2 126110. 4145.06  23
  -5  -1   2 142192. 6502.25  11
  -1   5  -2 108826. 6372.02   3
   1   5  -2 141140. 6054.81   2
  -5   1  -2 116415. 6522.64  11
  -1  -5   2 125755. 4750.33  23
   5   1   2 141257. 10490.2   9
  -5   1  -2 113311. 11034.7  21
  -5  -1   2 120537. 5752.83  19
  -5   1  -2 145580. 9220.33  24
  -5  -1   2 125942. 8728.62  21
   1   5  -2 89206.8 9114.26  24
   1   5  -2 113470. 5455.06   1
   1  -5  -2 109065. 8824.04  10
   5   1  -2 136653. 7228.77  20
   5   1   2 141327. 8317.12  20
   1  -5   4 25016.4 4921.59  20
   5   1  -4 32518.7 3964.35   9
  -1   5  -4 23663.9 3100.10   3
   5   1   4 34768.9 2527.97  23
   5  -1  -4 37988.6 4394.78  20
   1  -5  -4 29348.9 3448.14  21
  -1   5   4 32682.3 1664.08  19
   5  -1  -4 34221.5 2897.20  23
  -5  -1  -4 32295.3 5572.13  21
  -5   1  -4 32861.0 3599.54  19
   5   1   4 35319.8 4455.36  20
   1   5  -4 25022.3 5099.38  24
  -5   1  -4 31612.9 6456.50  21
   1  -5  -4 28710.8 5665.08  10
   5  -1  -4 37441.6 4117.53   2
   1   5  -4 32003.0 2604.29   1
   5   1  -4 35072.1 3296.82  20
  -5  -1   4 34722.1 4157.99  21
   5   1  -4 38424.1 4079.49   2
   5  -1   4 38307.3 5033.54  20
  -5  -1  -4 36121.6 4849.37  10
   1  -5   4 30804.6 2997.92  23
   5   1   4 35527.1 5498.78   9
  -1  -5   4 36635.8 2578.81  19
   1   5  -4 28969.9 3944.02  22
  -1  -5  -4 28680.8 5410.32  10
  -1   5   4 31282.6 3269.93  18
   1  -5  -4 32927.0 2283.89  23
  -5  -1   4 37644.1 3541.89  11
   5   1   4 36238.6 3670.86   1
  -5   1   4 27294.4 5873.26   3
   1   5   4 35083.3 3771.81   3
  -5   1   4 37802.4 3282.93  19
   5  -1   4 33666.9 2892.20  23
  -1   5   4 37987.1 4233.01   3
   1  -5   4 39103.4 3947.99  10
   1   5   4 29946.1 1503.83  11
   5  -1   4 36570.9 3478.66  18
  -5  -1  -4 34192.4 3699.60  19
  -5   1  -4 37523.5 5679.34  24
  -1   5  -4 30192.2 4000.36  22
  -5   1  -4 31497.8 3678.38  10
  -1  -5  -4 33675.9 3970.01  21
   5   1  -4 35109.8 2880.50  23
  -5   1   4 35193.5 3537.24  11
   5   1   4 35252.2 3087.64  18
   1   5   4 33761.8 3279.01  18
  -1   5   4 36210.8 2446.13  11
   1   5  -4 39712.6 3282.25   2
  -5  -1   4 35014.1 3282.24  19
   1   5   4 35997.3 3952.93   1
  -1   5  -4 30551.6 5712.53  24
   5  -1  -6 85378.6 5019.70  23
   5   1  -6 88323.1 6915.73   2
   5  -1   6 93613.0 9379.25   9
  -5  -1   6 91098.9 5828.71  19
   5   1   6 85240.4 9023.41   9
   5   1   6 87639.4 7249.40  20
   5  -1   6 92243.4 7744.41  20
   5   1   6 94394.2 5955.02  18
   5  -1   6 82868.4 5317.91   1
   5  -1  -6 97411.1 6080.88  20
   1   5   6 88211.3 5848.70  18
  -5   1   6 91000.1 4401.74  18
   1  -5   6 64808.6 7747.44  20
   5  -1   6 95098.8 6276.61  18
   5  -1   6 84422.1 5007.52  23
  -5  -1  -6 68307.1 8787.78  21
   5  -1  -6 89681.5 7077.06   2
  -5   1  -6 95370.4 10194.6  24
   1   5   6 79910.5 6253.47   1
  -5   1   6 73480.8 9659.27   3
   1   5  -6 85532.3 6860.25  22
  -5  -1   6 96492.1 6231.69  11
   1   5   6 81304.0 6218.11   3
  -1  -5  -6 69072.2 9482.36  10
  -5   1   6 85605.8 5380.74  19
   1   5  -6 87397.1 5088.43   2
  -5  -1  -6 83646.3 8787.77  10
  -1   5   6 88580.3 6937.70   3
   5   1   6 84138.3 5733.98   1
   1   5  -6 67664.9 8886.63  24
  -5   1   6 86594.9 6004.49  11
  -1   5  -6 86380.8 6852.35  22
   1  -5   6 87569.0 5571.06  23
   1  -5  -6 82595.4 5828.52  21
  -1   5  -6 80878.9 10146.2  24
   5   1   6 93126.8 4700.23  23
  -5   1  -6 67793.6 9843.58  21
  -1  -5  -6 82016.2 6569.80  21
  -5   1  -6 75344.3 7099.06  10
  -1  -5   6 61673.6 6902.32  20
   1  -5  -6 63352.7 9279.71  10
  -1   5   6 83793.8 4364.37  11
  -1   5   6 85879.7 5878.42  18
   5   1   8 57223.6 5311.19  18
  -1   5  -8 62294.5 6172.36  22
  -5   1   8 55825.9 4839.78  19
  -1  -5   8 56085.9 5197.66  18
  -5   1  -8 56897.0 8762.36  24
  -1   5   8 54988.8 5194.73  18
   5   1   8 53874.4 4069.41  23
  -5  -1   8 59258.1 5217.02  19
   1  -5   8 41646.6 5663.29  20
   5   1   8 51961.1 4645.91   1
   5  -1   8 55852.4 6025.89  20
   1  -5  -8 38600.0 8172.49  10
   5  -1  -8 55133.2 6142.27   2
   5  -1   8 49878.2 4148.00   1
   5  -1   8 57746.5 7601.56   9
   1  -5   8 52009.6 5298.51  18
   5  -1   8 52932.1 5236.12  18
  -5  -1  -8 45131.3 7743.57  21
   1   5   8 58112.0 5323.91  18
  -1  -5  -8 32666.5 7374.28  10
   1   5  -8 48398.6 8332.87  24
  -5  -1   8 55688.1 5262.22  11
   5   1  -8 62026.1 6318.00   2
  -1  -5  -8 44282.7 5308.51  21
   5   1   8 48440.0 7152.86   9
  -5  -1  -8 39535.8 6980.11  10
  -5   1  -8 44668.5 8393.55  21
   1   5   8 53394.9 5636.60   1
   1  -5  -8 50083.7 4749.75  21
  -5   1   8 44494.4 7846.00   3
   1   5  -8 55203.6 4295.96   2
   1   5   8 52905.2 5609.00   3
   5  -1   8 50750.2 4362.96  23
  -1   5  -8 52229.0 8883.94  24
  -1   5   8 58708.3 6234.74   3
  -5   1   8 54203.0 5268.99  11
  -1   5   8 52723.2 4016.84  11
   1   5  -8 56763.3 5993.55  22
   5   1   8 52936.3 5881.59  20
  -5   1   8 50824.1 3806.03  18
   1   5  10 50930.2 5661.11  18
  -5  -1 -10 40396.9 7867.96  21
   5  -1  10 47286.3 5633.40  20
  -5   1  10 58084.1 5501.10  19
  -1   5  10 49147.8 5514.83  18
   5  -1  10 49139.4 5546.79  18
   5   1 -10 56381.6 6504.84   2
  -5  -1  10 61021.5 5914.66  19
   1  -5  10 46569.9 5544.21  18
  -1  -5  10 50190.8 5421.26  18
   5  -1 -10 52196.4 6498.23   2
   5   1  10 51642.9 5639.02  18
  -1   5 -10 59198.9 6586.73  22
  -1  -5 -10 33263.1 8084.11  10
   5   1  10 48158.9 4585.39   1
  -1   5 -10 51018.8 9931.95  24
   5   1  10 49118.7 5231.68   3
   1  -5 -10 43262.3 9319.29  10
   1   5 -10 41633.6 8453.33  24
  -1   5  10 46618.6 4374.04  11
   5  -1  10 50497.6 4768.77  23
  -1   5  10 51924.7 6532.82   3
  -5  -1 -10 31379.6 7145.27  10
  -5  -1  10 55912.0 5892.63  11
  -5   1  10 51971.3 5695.18  11
  -1  -5 -10 42222.5 5759.92  21
  -5   1 -10 48860.4 8829.86  24
   1   5  10 57511.4 6456.08   3
   5   1  10 51822.1 4498.61  23
   5  -1  10 44260.4 6801.85   9
  -5   1 -10 34339.1 7815.91  21
  -5   1  10 38717.2 7744.57   3
   1   5  12 56883.1 6595.32  18
  -5   1  12 51955.0 5766.24  19
  -5  -1  12 56926.3 6359.73  19
  -1  -5  12 46561.5 5684.04  18
  -5  -1 -12 28911.7 7223.54  21
   5   1 -12 53031.1 6765.88   2
  -5   1 -12 40259.8 8769.76  24
   5  -1  12 52744.5 6316.31  18
   5  -1 -12 62127.8 2627.44   8
  -1   5  12 52627.6 6252.21  18
   5  -1 -12 52359.5 6952.51   2
   1   5 -12 78912.2 3542.45  14
   5   1  12 52311.2 6309.13  18
   5  -1  12 48684.5 5162.96  23
  -1  -5 -12 41041.7 9618.21  10
  -1   5 -12 73349.0 3249.25  14
   5   1  12 50206.8 5647.52   3
  -1   5 -12 41522.5 9650.48  24
   1   5  12 51147.5 6689.27   3
   5   1  12 53679.1 5048.96  23
  -1   5  12 56957.3 7452.07   3
  -5  -1 -12 45635.7 9155.02  24
  -5  -1  12 56514.5 6632.20  11
  -5   1  12 54777.3 6487.50  11
   5  -1  12 47022.0 5088.98   3
   5   1 -12 58036.3 2517.72   8
   1  -5 -12 37200.0 9452.63  10
  -1   5  12 47135.3 5011.37  11
   1   5 -12 47349.8 9816.53  24
  -5  -1 -12 59230.7 2929.03   7
   1  -5  12 44350.0 5811.34  18
  -5   1 -12 58557.7 2864.37   7
   5   1 -14 75842.6 3331.61  14
   1  -5 -14 53800.5 8027.32   2
   5   1  14 55961.2 6449.80   3
  -1  -5 -14 48537.3 11026.7  10
  -5   1 -14 53670.4 10750.8  24
  -5   1  14 63071.1 6973.07  19
  -5  -1 -14 56136.2 11024.5  24
  -5   1 -14 67166.6 3251.96   7
   5   1 -14 63960.4 7856.81   2
  -5  -1 -14 68719.8 3332.46   7
   5  -1  14 59221.9 7282.25  18
   5  -1 -14 71849.7 2980.25   8
   5  -1 -14 56833.2 7687.27   2
  -1   5 -14 48581.7 11063.6  24
  -1   5 -14 75620.5 3459.32  14
  -1   5  14 59496.8 7229.28  18
   1   5 -14 76687.7 3527.93  14
   5   1  14 62394.4 7478.26  18
   5   1 -14 67141.5 2841.40   8
   5  -1  14 53424.1 5775.73  23
   1   5  14 64749.9 8140.61   3
   5   1 -14 57447.7 8029.80  12
  -1   5  14 63971.4 8651.48   3
  -5  -1  14 59050.2 7518.55  11
  -5   1  14 59186.8 7346.20  11
   1  -5  14 53609.5 6411.26  23
   1   5  14 63042.8 7596.95  18
   1   5 -14 50422.5 10781.1  24
   1  -5  14 49805.0 6575.21  18
   1  -5 -14 45961.4 10843.4  10
  -5  -1  14 67982.3 7571.03  19
  -1  -5 -14 74146.0 3393.82   7
  -1  -5  14 59135.3 6798.85  18
   1  -5 -14 57526.9 3047.90   8
   1   5 -16 19595.8 1764.58  14
  -5   1 -16 16433.2 1681.25   7
   5   1 -16 18877.6 1522.57   8
  -5  -1 -16 17488.3 1750.57   7
  -1  -5 -16 16580.5 1553.15  17
   5   1 -16 20186.0 1663.18  14
   5  -1 -16 20525.6 1610.61   8
  -1  -5 -16 19470.0 1793.95   7
  -1  -5 -18 19960.1 1607.14  17
   5   1 -18 25821.1 1732.12  14
  -5  -1 -18 26404.4 2072.49   7
  -1  -5 -18 26614.5 2036.35   7
   5   1 -18 22797.1 1613.54   7
  -5   1 -18 23985.1 1936.32   7
   5   1 -18 25492.4 1697.47   8
   1  -5 -18 26464.2 2012.17   7
   5  -1 -18 27628.2 1834.44   8
  -5  -1 -20 10282.3 1207.74   7
  -5   1 -20 10090.3 1173.39   7
   1  -5 -20 10645.0 1187.07   7
   5   1 -20 10447.9 963.286   7
   5  -1 -20 10244.6 1039.96   7
  -1  -5 -20 11527.6 1229.32   7
   5  -1 -20 10108.4 1025.01   8
   5   1 -20 10385.8 988.491   8
  -5  -1 -22 7984.84 1007.69   4
  -5   1 -22 6984.54 810.154   7
  -5  -1 -22 6935.74 825.581   7
   1  -5 -22 6639.27 773.279   7
   5   1  22 6727.66 667.675  25
  -1  -5 -22 7265.60 815.593   7
   1   5  22 9926.23 1071.64   5
  -5   1 -22 7512.02 958.805   4
   5  -1 -22 6182.16 650.489   7
   2   5   1 83792.8 5219.02   1
  -5  -2   1 90189.8 5017.06  11
   2  -5  -1 73056.8 3637.23  23
   5   2   1 69828.3 3067.18  22
   5  -2  -1 79555.3 4662.48   2
   5   2   1 89607.2 8220.00   9
  -5   2  -1 76406.3 4586.92  19
   5  -2  -1 76369.6 7721.44  20
   5   2   1 78238.4 2663.31  18
   2   5   1 77304.9 4551.53   3
  -2  -5   1 77169.3 3182.24  19
   5  -2   1 79333.7 7856.77  20
   2  -5   1 75686.0 3938.92  23
  -5   2  -1 77907.4 6335.21  24
  -5  -2   1 77360.8 4725.24  19
  -5   2  -1 74762.5 3098.61  10
   5  -2   1 79299.9 3731.26   2
  -5  -2   1 77770.7 6792.38  21
  -5  -2  -1 82349.5 7543.62  21
   5   2   1 93272.9 5866.18   1
   5  -2  -1 77501.2 4184.79  23
  -2  -5   1 77392.3 6252.04  21
  -5  -2  -1 87362.9 7114.79  10
  -5   2   1 49950.0 3807.68  24
   5   2  -1 89980.4 5772.31   1
   5   2  -1 86059.4 5401.63   2
   5  -2   1 76374.6 4203.00  23
   2  -5  -1 65511.9 6381.41  10
   2  -5   1 55036.1 7561.30  20
   2   5  -1 74052.0 3902.38   3
   2   5  -1 66097.7 5863.93  22
  -5  -2  -1 77350.2 4844.12  19
   5   2   1 79304.3 4936.58   2
   5   2   1 81264.0 3409.49  23
  -2  -5  -1 73574.4 3213.85  19
  -2  -5  -1 84800.5 7947.52  10
   2   5  -1 90113.8 5451.25   2
  -5   2   1 81355.8 5096.97  11
  -2   5  -1 69338.9 5878.84   3
  -5   2  -1 77366.0 5223.80  11
   5   2  -1 80442.5 7460.12   9
  -5  -2  -1 79413.7 4914.34  11
  -2   5  -1 57299.4 5902.35  22
   2   5   1 61208.5 6015.94  22
  -2   5   1 80010.8 6187.30   3
  -2   5   1 78382.4 4038.98  11
   2   5  -1 75739.8 4681.38   1
  -5   2   1 64494.0 8595.63   3
  -5   2  -1 73619.6 9031.99  21
  -2  -5  -1 84423.6 6466.85  21
   5   2  -1 77988.4 3644.49  23
   5   2   1 81559.3 6216.18  20
   2  -5   1 68665.1 5364.47  10
  -2   5  -1 56699.3 7378.22  24
  -2  -5   1 77728.0 2977.26  23
  -2  -5   1 88812.0 7618.30  10
  -5   2   1 76008.4 4337.59  19
   5   2  -1 80633.2 5740.93  20
   2   5  -3 27779.4 3841.24  22
   5   2   3 28262.7 5101.34   9
  -2  -5  -3 30638.8 4015.76  21
   5   2  -3 26472.2 3892.91   9
  -5   2  -3 30997.8 3327.19  19
  -2   5  -3 17359.1 3269.08   3
  -5   2  -3 34092.8 5082.58  24
   2   5   3 31379.3 3500.54   1
  -5   2   3 29871.0 2805.16  19
   2  -5  -3 30170.9 2341.59  23
   2  -5  -3 22506.1 4459.32  10
   5   2   3 33796.7 2197.90  23
   5   2   3 31064.3 4111.50  20
  -2  -5  -3 28956.0 5202.51  10
   2   5  -3 19210.1 4365.97  24
   2   5  -3 28339.1 2643.34   1
   5   2   3 29062.3 3010.17   2
  -5  -2  -3 30189.3 5024.09  21
   2  -5   3 22908.2 4937.93  20
   5   2   3 32959.1 2599.36  18
  -2   5  -3 26427.5 3872.86  22
   5  -2  -3 28925.0 3579.85   2
   5  -2  -3 28423.5 4685.34  20
   5   2  -3 33243.3 2638.22  23
   5  -2   3 32497.5 5075.28  20
   5   2  -3 32473.1 3435.49   1
   5  -2   3 24410.7 1661.23   2
  -2   5   3 28501.4 1519.40  19
  -5  -2   3 32177.2 3188.10  19
  -5  -2  -3 26554.2 4195.01  10
   5   2  -3 30168.2 3184.79  20
   5   2   3 30622.0 3481.53   1
  -2  -5   3 32215.0 4084.31  21
   5   2  -3 33057.9 3629.23   2
   5  -2   3 29118.1 2695.70  23
   2   5   3 28868.8 3259.91   3
   5  -2  -3 29875.1 2696.52  23
  -5   2   3 26071.0 5704.67   3
   2  -5   3 26417.2 2904.00  10
   5   2  -3 33386.3 3228.18  12
   2   5  -3 29722.9 3120.67   2
  -2  -5   3 35188.4 2203.22  11
  -2   5  -3 23144.5 4968.34  24
  -2   5   3 31496.7 4112.36   3
  -5  -2   3 32581.2 3193.91  11
  -5   2   3 33065.3 3386.19  11
  -2   5   3 31866.4 2538.70  11
   2   5   3 30639.9 2931.41  18
   2  -5   3 32262.0 2901.54  23
  -5  -2  -3 32191.5 3412.70  19
  -5   2  -3 28549.1 6139.34  21
   2   5  -3 29788.8 1971.98   3
  -2  -5   3 31755.9 2389.76  19
  -5   2  -3 33103.9 2242.89  22
  -5  -2   3 31144.2 4091.84  21
  -5   2  -5 8063.05 1926.92  19
  -2   5   5 9411.21 1133.61  19
  -5   2   5 7106.25 3344.97   3
  -5  -2  -5 7323.76 2890.90  21
   2   5   5 8307.19 1738.86  18
   2   5  -5 4406.98 2616.40  24
   5   2  -5 9589.07 1895.24   1
  -2   5   5 7925.71 1761.70  18
   5   2  -5 10164.1 2307.76   2
  -2  -5   5 9925.71 1586.89  19
  -2  -5  -5 8871.28 3338.36  10
   5   2   5 8508.29 2311.55  20
   2  -5   5 5916.57 2714.25  20
  -5   2   5 9660.90 1773.62  19
   5  -2   5 7761.45 2526.37  20
   2   5  -5 8083.29 1240.03   1
   5   2   5 10341.3 1812.57  18
   5   2   5 6016.64 2700.05   9
   2  -5   5 6925.23 1520.16  23
  -2  -5  -5 7241.26 2138.65  21
   5  -2   5 7944.19 1575.86  23
  -2   5  -5 6088.53 2951.87  24
   5   2   5 9589.41 1295.71  23
   2   5   5 8027.43 1969.21   3
   2   5  -5 8881.03 2319.37  22
   2   5  -5 11432.2 2002.88   2
  -2   5  -5 5408.51 1872.65  22
   5  -2  -5 9197.54 2147.91   2
   5  -2  -5 8036.34 1552.81  23
  -5   2  -5 6594.91 3730.59  21
  -5  -2   5 10439.3 2043.89  19
   2  -5  -5 6500.36 3003.15  10
   5   2  -5 9897.49 2159.90  12
  -5  -2  -5 6896.59 2617.71  10
  -2   5   5 9958.48 2471.55   3
   5   2   5 8959.56 1906.38   1
  -5  -2   5 9401.95 1908.76  11
  -2   5   5 8983.62 1514.23  11
  -5   2   5 8101.37 1750.38  11
   5  -2   5 9450.09 2044.55  18
   2   5   5 8957.20 2072.03   1
  -5  -2  -5 7913.25 1853.59  19
  -5  -2   5 8605.62 1972.02  21
   2  -5   5 9255.09 1712.31  10
  -5   2  -5 10113.2 3508.65  24
   2  -5  -5 8987.58 1411.76  23
   5  -2  -5 9065.91 2590.89  20
   2  -5  -5 5612.74 1554.21  21
  -2  -5  -7 1822.73 2698.17  10
   5   2  -7 1606.28 1190.85   2
  -5   2   7 2849.36 1898.01   3
  -5  -2  -7 3330.42 2466.50  21
   2   5  -7 2193.45 1086.38   2
  -5   2  -7 2820.39 2642.70  21
  -2   5   7 2434.27 754.221  19
  -5  -2   7 2628.46 1260.76  19
  -2  -5   7 2676.04 1212.16  18
  -2  -5   7 1716.20 834.771  19
   2  -5   7 1515.18 1167.09  20
   5  -2   7 1123.82 932.597  18
   2   5  -7 533.184 1219.59  24
   5  -2   7 1671.98 1475.06  20
   2  -5  -7 2100.10 2139.19  10
   2   5   7 2053.93 1070.42  18
  -2   5   7 3251.21 1181.68  11
  -5   2   7 2425.14 1030.72  18
   5  -2   7 1793.80 804.332  23
  -2   5  -7 1668.97 874.299  22
   5   2   7 2870.07 1339.22   1
  -5  -2   7 3800.76 1311.29  11
   5  -2  -7 2733.64 1018.27  23
   2  -5   7 1565.65 822.104  23
  -2   5   7 2297.43 1600.09   3
   2   5   7 2671.73 1255.13   3
   5  -2   7 3018.30 1037.02   1
   2  -5  -7 2258.96 997.669  21
  -2   5  -7 788.610 2190.17  24
  -5   2   7 2404.73 1157.13  11
   5  -2  -7 1223.61 819.570  20
   5   2  -7 2557.70 956.833   1
  -5   2   7 1397.80 873.520  19
   2   5   7 2554.81 1249.10   1
  -5  -2  -7 2379.99 1840.71  10
   5   2  -7 1404.02 1173.43  12
  -2   5   7 1694.07 997.752  18
   5   2   7 2325.65 883.395  23
  -5   2  -7 1566.99 2080.75  24
   5  -2  -7 1911.76 1129.37   2
   5   2   7 1734.80 1052.98  18
  -2  -5  -7 841.260 804.416  21
   2   5  -7 3035.19 1389.65  22
  -5  -2  -9 292.300 1805.79  10
   5   2   9 340.985 738.893   1
   5  -2   9 115.696 444.951  20
  -5  -2   9 1519.97 1070.32  19
  -2   5   9 746.233 847.709   3
  -5  -2  -9 1482.42 1295.49  21
   2   5   9 1186.62 951.917   1
   2   5  -9-632.931 2492.00  24
  -2   5   9 827.920 850.936  11
   2   5   9 523.341 459.892   3
   5   2  -9 1247.29 1126.43   2
   2  -5   9 943.844 979.526  18
  -2  -5   9 386.257 742.010  18
   5  -2   9 81.6430 442.943  18
   2  -5   9 861.192 655.826  23
   2   5   9 1253.20 795.748  18
  -2   5   9 771.090 597.209  18
   5   2   9 423.688 434.177  23
   5  -2   9-198.906 786.035   9
   5  -2   9 717.582 666.124  23
   2   5  -9 3249.76 1911.16  22
   2  -5  -9 1688.45 1774.76  10
  -2  -5  -9 1088.21 746.728  21
  -2  -5  -9 1345.86 2032.29  10
  -5   2  -9 234.920 2722.09  24
  -5   2   9 1080.05 741.691  18
  -5   2   9 1175.40 922.355  11
  -5   2   9 818.077 515.179  19
  -2   5  -9 860.444 1244.84  22
   5   2  -9 2784.87 1609.61  12
  -5  -2   9 1413.65 1096.83  11
   5   2   9 2171.22 1365.39  18
   2   5  -9 38.6156 533.260   2
   5  -2  -9 128.163 1003.89   2
  -2   5  -9-620.076 1997.14  24
  -5   2   9 2387.18 1984.29   3
   5   2   9 917.992 623.380   3
   5   2 -11 3152.08 1674.11   2
  -2  -5 -11 7552.51 2796.47  21
  -2  -5  11 3538.10 1302.71  18
   5  -2  11 3683.18 1618.69  20
   2  -5  11 3394.43 1740.46  18
  -5  -2 -11 464.883 1235.55  10
  -5   2  11 1297.66 1714.29   3
   5   2  11 4909.80 1715.35   3
   5  -2  11 4015.62 1400.21   3
  -5  -2  11 5184.25 1811.16  11
  -5  -2 -11 3060.18 1510.15  21
  -5   2  11 4518.27 1472.24  19
   5   2  11 3984.35 1429.90   1
   5   2  11 3107.34 1610.09  18
   2   5  11 3632.34 1748.13  18
  -2   5  11 4755.73 1902.50  18
  -5   2  11 5015.32 1766.37  11
   5  -2  11 3429.13 1729.77  18
   5  -2 -11 5679.78 2206.63   2
  -2   5  11 6038.16 2318.85   3
   5  -2  11-2241.44 1599.36   9
  -2   5 -11 3140.68 2479.41  24
   2   5  11 5174.19 2032.89   3
  -5  -2  11 4775.49 2012.94  19
  -2   5  11 3298.59 1381.02  11
   2  -5  11 3019.75 1405.08  23
   2   5 -11 4480.51 2884.68  24
  -5   2 -11 2091.65 1558.10  24
   5  -2  11 3514.48 1376.15  23
   2  -5 -11 2219.43 2534.21  10
   5   2 -11 4974.91 2184.71  12
  -2  -5 -11 3578.16 3038.76  10
  -2  -5 -13 2740.62 2908.44  10
   5  -2  13 1048.52 1543.61  18
   2  -5  13 1268.76 1019.74  18
   2  -5 -13 2824.64 696.477   8
   5  -2 -13 1909.43 451.284   8
  -2   5 -13-455.727 1697.13  24
  -2  -5  13 994.685 925.756  19
  -5  -2 -13 1782.93 616.834  17
  -5   2 -13 2772.63 686.235   7
  -2   5  13 2717.30 1316.36  11
  -5  -2 -13 2567.26 657.186   7
  -2  -5 -13 3497.71 766.940   7
   5   2  13 1872.36 1303.13  18
   2   5  13 667.219 873.171  18
  -5   2 -13 1584.37 1649.19  24
  -2   5  13 2075.15 1324.55  18
   5  -2 -13 2970.76 1697.47   2
  -2   5 -13 2568.78 889.073   4
  -2   5 -13 1786.08 455.167  14
  -5   2  13 854.489 1160.53  19
   2   5 -13 3133.36 803.530  14
  -2  -5 -13 1768.18 527.965  17
  -5  -2 -13-2510.21 2383.75  10
   5   2 -13 1913.51 1353.19   2
   5   2 -13 1819.77 1367.92  12
   5   2  13 1888.86 1215.13   3
   2   5 -13-2929.88 2536.61  24
   5  -2  13 2163.50 1142.41  23
   2  -5 -13 1007.38 1287.09   2
   5   2 -13 1891.50 512.198   8
  -5  -2 -13 498.594 1274.86  21
   2  -5  13-8.31645 360.087  23
  -5  -2  13 1779.04 1100.95  19
  -2   5  13 2379.63 1762.91   3
   2   5  13 1555.42 1508.55   3
  -5   2  13 1936.07 1065.49  11
   2  -5 -13-2406.92 2702.15  10
  -2   5  13-182.568 474.643  19
  -5  -2  13 772.156 938.694  11
   5  -2 -15 41322.4 2305.83   8
  -5   2  15 31861.1 5098.74  19
  -2   5 -15 38879.7 2740.76   4
  -2  -5  15 29965.6 5201.16  19
   2  -5 -15 35010.5 2358.84   8
  -5  -2  15 33253.2 5630.40  19
  -2  -5 -15 41714.9 2621.66   7
  -5   2 -15 35754.8 2441.67   7
   2  -5  15 26865.2 5076.92  18
   5  -2  15 29538.2 5235.29  18
   5   2  15 29603.6 5252.25  18
  -2   5  15 28667.0 5319.23  18
   5  -2 -15 31868.7 6010.22   2
  -5   2  15 35916.7 6045.16  11
   2   5 -15 37587.6 2492.07  14
   5   2 -15 32543.3 5467.01   2
  -2  -5 -15 27394.3 2046.80  17
  -2  -5 -15 20949.9 7708.27  10
  -2   5 -15 20301.4 7230.82  24
   5  -2  15 26845.2 4353.85  23
   5   2 -15 37571.1 2427.90  14
   5   2 -15 36308.4 2079.06   8
   2  -5  15 27146.2 4631.34  23
   2   5  15 35576.2 6268.29   3
   5   2 -15 24608.4 5558.17  12
  -2  -5  15 33990.2 5679.75  11
  -5  -2  15 32241.4 5687.05  11
   2   5  15 29473.6 5311.22  18
  -5  -2 -15 37608.4 2559.58   7
   2  -5 -15 36681.7 6825.90   2
  -5   2 -15 30014.5 8666.32  24
  -5  -2 -15 26702.2 8198.80  24
  -2   5  15 44377.9 7995.38   3
   5  -2 -17 5907.47 895.992   8
   5   2 -17 5038.18 859.074  14
  -5   2 -17 4313.31 894.972   7
  -2  -5 -17 4334.61 801.398  17
  -2   5 -17 4874.84 947.586   4
  -5  -2 -17 4777.40 964.537   7
   5   2 -17 6677.93 876.796   8
   2   5 -17 5042.22 910.440  14
  -2  -5 -17 5660.34 974.649   7
  -2  -5 -19 2925.28 612.601  17
  -2  -5 -19 4082.05 823.955   7
  -5   2 -19 2946.27 649.060   7
  -5  -2 -19 3532.16 777.523   7
   2  -5 -19 3798.94 746.990   7
  -5   2 -19 3781.57 915.505   4
   5   2 -19 3240.41 574.356   8
   5  -2 -19 4060.40 749.160   8
   5   2 -21 233.596 166.774   8
  -2  -5 -21 151.388 214.092   7
  -5   2 -21 609.839 308.580   7
  -5  -2 -21 344.422 261.714   7
   2  -5 -21 282.136 248.459   7
   5  -2 -21 622.356 285.211   7
  -5   2 -21-91.0631 326.575   4
   2   5  23-263.638 307.980   5
  -5   2 -23 403.273 253.600   4
   5   2  23-116.172 230.368   5
  -5  -2 -23 370.197 198.991   7
  -2  -5 -23-152.688 177.087   7
  -5  -2 -23 62.7728 230.569   4
   2  -5 -23 135.820 163.130   7
   5  -2 -23 92.1254 110.061   7
  -5   3   0 25640.2 3068.43  11
  -3  -5   0 32232.6 4213.15  21
  -3   5   0 33660.5 2346.13  19
  -3   5   0 19398.8 4529.35  24
  -5  -3   0 32954.5 3257.14  19
  -3  -5   0 34374.4 5220.34  10
   5   3   0 33425.3 2178.33  23
   3   5   0 39198.8 3810.63   2
  -5   3   0 23777.9 3738.81  24
   3   5   0 30630.8 2834.59   3
   3  -5   0 32432.9 2715.26  23
   3  -5   0 23098.4 5344.83  20
   5  -3   0 29494.5 2639.87   2
  -5  -3   0 31063.5 4515.18  21
   5   3   0 33514.2 3746.36   1
   5   3   0 30646.0 3388.69   2
   5  -3   0 30517.9 2772.49  23
  -5  -3   0 36558.4 5208.08  10
  -5  -3   0 27028.2 2738.27  11
  -3   5   0 22872.1 4132.88   3
   5  -3   0 28994.6 5594.03  20
  -5   3   0 21207.4 5329.67   3
  -3  -5   0 32973.8 2559.18  19
   3  -5   0 15730.6 2801.48  10
  -3   5   0 22796.7 2641.04  11
   3   5   0 33110.0 3351.25   1
  -5   3   0 31988.8 2952.59  19
   3   5   0 24167.7 3600.05  22
   5   3   0 27013.9 2647.57  22
  -5  -3   2 2047.86 1189.67  21
   5   3   2 1815.21 463.223  23
  -3  -5   2 1497.74 1038.23  21
  -3  -5  -2 1421.04 695.140  19
   5  -3   2 1623.00 456.197   2
   3   5   2 1184.77 785.979   3
  -3  -5   2 761.173 349.889  11
   3  -5   2 229.619 1353.67  20
  -5  -3  -2 1906.22 929.062  19
  -3  -5   2 1727.74 598.130  19
   5  -3  -2 604.146 1157.36  20
  -3  -5  -2 1154.35 1843.46  10
  -5   3   2 1517.30 1775.29   3
  -5  -3   2 790.725 576.347  19
  -3   5   2 1343.54 393.100  19
  -3   5   2 2223.81 1478.17   3
   3   5  -2 852.514 882.013  22
   5   3   2 745.338 705.716   1
   5   3   2 1093.92 597.049   2
  -5   3  -2 1277.78 599.319  19
   5   3  -2 1464.16 809.889   1
   5  -3   2 1375.32 668.763  23
   5   3  -2 1284.16 769.336   2
  -3   5  -2 1465.24 1171.86   3
   5   3   2 1853.01 546.611  18
   3   5   2 1712.03 706.729  18
   5   3  -2 1286.02 755.399  22
  -5  -3  -2 1762.33 1857.08  10
  -3   5  -2 531.599 1177.07  24
   5  -3  -2 1846.14 926.848   2
  -3   5   2 1437.56 718.686  11
   3  -5   2 1592.03 678.981  23
  -5   3  -2 1275.90 715.837  22
   3  -5  -2 1286.92 576.245  23
  -5   3  -2 1183.59 1687.72  24
   5  -3  -2 1484.82 764.843  23
  -5   3   2 1496.29 727.520  19
   3   5  -2 1380.10 850.712   2
  -5   3   2 144.783 389.982  11
  -5  -3   2 855.676 518.616  11
   3  -5   2 998.847 407.105   2
  -3  -5  -2 1711.65 1158.97  21
  -3   5  -2 1867.65 1550.08  22
   3  -5  -2 190.200 1055.26  10
   3   5   2 1807.67 1225.87  22
   5   3   2 1365.05 648.330  22
   3   5  -2 1215.80 506.699   3
  -5   3  -2 72.1268 760.803  11
   3   5   2 1113.70 719.151   1
   3   5  -2 1585.93 713.887   1
   5  -3   2 1314.67 1560.57  20
  -3  -5   2 2344.94 1585.13  10
  -5  -3  -2 2265.93 1519.52  21
   3  -5  -2 935.704 1397.87  20
   3  -5  -4 5092.38 2572.60  10
  -5   3   4 4427.93 2589.02   3
   5   3   4 8766.30 1525.68  18
  -5  -3  -4 5592.72 2272.79  21
  -5  -3   4 7302.59 1663.13  19
   5   3   4 8065.52 979.489  23
  -5   3   4 7959.52 1520.47  19
  -5   3  -4 9441.90 1703.24  22
  -3  -5   4 8233.81 1528.48  19
  -5  -3   4 9400.58 1853.13  11
  -3   5  -4 5896.37 2343.50   3
  -3  -5   4 6467.95 1933.82  21
   3   5   4 7898.47 1877.40   3
  -5   3  -4 7331.27 1724.28  19
  -3   5  -4 6414.72 1951.70  22
   5  -3  -4 8370.96 2230.10   2
   5  -3  -4 6640.99 2980.08  20
   3  -5   4 7205.98 1526.55  23
  -3   5  -4 6534.11 2999.24  24
   5  -3  -4 7581.44 1508.46  23
   5   3  -4 8827.46 2095.55   2
   3   5  -4 6618.06 1874.85  22
   3   5   4 7749.35 1669.20  18
   3  -5  -4 6962.48 1310.99  23
  -3  -5  -4 6684.00 3139.45  10
  -3   5   4 8281.67 2640.39   3
   3   5  -4 10539.5 2125.25   2
   3  -5  -4 4829.28 2922.97  20
   5   3  -4 7843.09 1861.24  12
  -3  -5   4 10261.6 1508.74  11
   3   5  -4 8578.25 1539.65   1
  -5   3   4 7875.28 1821.69  11
  -3   5   4 8536.42 1647.53  11
   5   3   4 8965.60 2054.45   1
   3   5   4 11035.3 2232.03   1
   3   5   4 5632.49 2096.31  22
  -3   5   4 7857.28 1104.68  19
   3   5  -4 3561.75 1799.32  24
  -5   3  -4 6695.68 2624.64  24
  -3  -5  -4 6368.67 2326.10  21
   5  -3   4 7210.31 1527.67  23
  -5  -3  -4 6672.15 2831.63  10
   3  -5   4 3427.08 2214.24  20
   5  -3   4 8574.33 2860.34  20
   5   3  -4 7537.39 1764.14   1
  -5  -3   4 8917.13 2192.29  21
  -5  -3  -4 6749.48 1852.73  19
  -3   5   6 4807.96 2068.05   3
   3  -5  -6 6118.97 1553.71  21
   5   3  -6 3811.20 1581.26   2
  -3  -5   6 9706.63 1867.19  19
   3  -5  -6 4463.32 2830.26  20
   5   3  -6 9214.47 2312.65  12
   3   5  -6 3210.03 1353.59   2
   3   5   6 5425.48 1697.09   1
   3  -5  -6 7922.38 1476.00  23
   5  -3   6 7985.31 2695.75  20
  -3   5   6 9232.88 1850.86  11
   5  -3  -6 4095.76 2362.45  20
  -3   5   6 8903.70 1360.78  19
  -5   3   6 7650.16 1587.99  19
  -3  -5  -6 7379.05 2502.07  21
   5  -3   6 7177.43 1910.59  18
  -3   5   6 7837.08 1908.61  18
  -3  -5   6 8852.19 1810.75  18
   5  -3   6 8428.70 1768.43  23
   5   3   6 9005.83 1896.90  18
  -5   3   6 4600.88 2608.10   3
   3  -5   6 7884.53 1842.39  23
  -5  -3  -6 442.772 1617.76  10
  -5   3  -6 6311.65 2907.91  24
   5   3   6 3944.59 1412.48   1
   3  -5  -6 3778.54 2182.69  10
  -3   5  -6 8127.87 2289.23  22
   5  -3  -6 3029.79 1656.30   2
   3   5  -6 4667.28 2694.36  24
  -3  -5   6 8667.83 1767.16  11
  -5  -3   6 9004.88 2038.68  11
  -5   3   6 8115.37 1922.11  11
   3   5   6 7061.63 1765.17  18
  -3  -5  -6 3345.60 1602.07  10
  -5  -3   6 8695.90 1974.76  19
  -5  -3  -6 9294.70 3198.60  21
   5   3  -6 3571.51 1117.61   1
  -3   5  -6 4605.90 2721.17  24
   5  -3  -6 7093.27 1552.94  23
   5   3   6 4181.63 1511.34   3
   3   5   6 3165.60 1404.66   3
   3  -5   6 5758.37 2613.07  20
   3   5  -6 7845.06 2195.47  22
  -3  -5   6 6452.83 1911.89  21
  -3  -5   8 71.9911 615.633  11
   3   5   8 260.615 472.164  18
   5   3  -8-915.057 877.679   2
   3  -5   8 844.796 955.270  20
  -5   3   8 830.437 1428.50   3
  -3   5   8 694.920 958.608   3
   3   5  -8 298.090 348.511   2
  -5  -3   8-76.4371 542.774  11
   3   5   8-462.618 743.653   1
  -5   3   8-113.687 286.650  18
  -3  -5  -8 2113.19 2894.28  10
   3   5  -8 587.459 1364.14  24
   5  -3  -8 154.813 346.277  23
  -3   5   8-1048.04 783.808  18
   5  -3   8 231.830 662.535  18
  -3  -5   8-323.467 463.473  18
   3   5  -8 514.498 953.816  22
   3  -5   8 314.439 367.873  23
  -5   3  -8 1679.28 2014.14  24
  -5  -3  -8-309.659 801.375  21
  -5  -3   8 440.856 912.501  19
   5  -3  -8-289.246 774.790   2
  -3   5  -8 768.110 2287.03  24
   5  -3   8 32.5950 493.470  23
   5  -3   8 440.588 916.942  20
  -5   3   8 275.258 574.690  11
   3   5   8 419.045 440.385   3
  -3  -5   8-534.291 585.637  19
   5   3  -8 794.907 967.076  12
   5   3   8-1379.28 902.330   1
  -3   5   8-299.981 369.947  19
   5   3   8 166.099 629.767  18
  -3  -5  -8-239.083 1256.36  21
  -5  -3  -8 964.733 1680.97  10
   3  -5   8 253.563 649.453  18
  -5   3   8-430.207 628.514  19
   5   3   8 237.987 633.527   3
  -3   5   8 135.230 355.599  11
   3  -5  -8 1681.40 2022.59  10
   3  -5  -8 173.217 1407.18  20
  -3   5  -8 230.128 813.742  22
  -5  -3  10 450.024 794.875  19
  -3   5  10 1631.81 1026.61  11
  -3  -5 -10 1637.56 1635.71  10
  -3   5 -10 1494.96 1456.86  24
   5  -3  10 2732.98 1413.26  20
  -3   5  10 265.503 579.971  19
   5   3  10 2387.41 1271.94   1
   3   5  10 693.711 761.515  18
  -3  -5 -10-38.3674 580.564  21
   3   5 -10-725.360 1744.17  24
   3  -5  10 646.998 668.944  18
   5  -3 -10-194.566 1511.32   2
   5  -3  10 234.724 754.121  18
   5   3  10 398.974 604.632  18
  -3   5  10 354.786 588.175  18
   5  -3  10 611.993 623.694  23
   3  -5  10 697.824 688.317  23
  -5   3  10-1706.50 1825.11   3
  -5  -3  10 23.3232 848.218  11
  -3  -5  10 114.362 666.320  19
  -5   3  10 235.634 627.555  11
  -5   3 -10-586.002 1758.85  24
   3   5 -10-5.23172 1156.20  12
   5   3 -10 203.883 591.335  12
   5   3  10 547.276 704.258   3
  -3  -5  10 1097.33 889.483  11
  -5   3  10 1396.61 855.145  18
  -5  -3 -10 948.677 2056.52  10
   5  -3  10 1444.04 1318.05   9
   3  -5 -10 2796.43 1724.40   2
   3   5  10 1124.97 571.152   3
   5   3 -10 1090.69 850.926   2
   3   5 -10 1541.96 946.626   2
   3  -5 -10 4099.39 2299.01  10
  -5  -3 -10 269.940 1023.40  21
  -3   5  10 3241.15 1909.13   3
  -5   3  10 234.229 697.677  19
   3   5  10 593.287 726.449   1
   5   3  12 1824.76 1228.93   3
  -5   3  12 4501.73 2919.72   3
   5   3 -12 441.794 762.621   2
   3  -5 -12 2325.71 680.475   8
   3  -5  12 2472.87 1431.41  23
  -5  -3 -12 1731.72 601.423  17
  -3  -5  12 2777.88 1415.06  19
  -3   5  12 1522.54 920.142  19
  -5   3  12 2049.53 1294.47  19
  -5   3 -12 2182.00 711.961   7
  -3  -5  12 2997.79 1733.30  11
  -5  -3 -12 2357.72 637.623   7
   3  -5  12 1500.27 1275.69  18
   5  -3  12 1002.25 1189.46  18
  -3  -5 -12 2381.52 589.785   7
   5   3  12 1349.99 1109.18  18
   3   5  12 2173.55 1375.31  18
  -3   5  12 1840.67 1280.04  18
   5   3 -12 1151.69 443.543   8
  -3  -5 -12 2339.05 616.984  17
  -5  -3 -12-519.985 1259.54  21
  -5   3 -12 1813.69 1864.22  24
  -3   5 -12 2566.48 648.942   4
   3   5  12 2444.73 1494.22   3
  -5  -3  12 2757.10 1555.07  11
   3  -5 -12 2915.34 1920.08   2
  -3   5  12 1760.72 1607.79   3
  -5  -3  12 1902.18 1333.87  19
   5  -3  12 2223.21 1163.65  23
  -3   5  12 1475.70 1036.59  11
  -5  -3 -12-7498.71 4057.84  10
   3   5 -12 2188.19 2917.33  24
   5   3 -12 750.670 794.228  12
   3  -5 -12 2348.46 2606.43  10
   5  -3 -12 2327.80 565.794   8
   5  -3 -12 2134.98 1165.09   2
  -3   5 -12 3289.98 2664.36  24
  -3  -5 -12 128.356 1383.53  10
  -5   3  12 804.452 785.262  11
   3  -5 -14 1952.36 596.051   8
   3   5  14 2042.81 1479.41   3
  -5  -3 -14 1812.18 583.303   7
   5  -3 -14 1789.61 589.536   8
   3   5 -14 998.354 575.821  14
   5   3  14 1685.19 1274.33   3
  -3  -5  14-194.183 620.700  19
   5   3 -14 1050.54 392.581   8
   3  -5 -14 866.217 1154.42   2
  -5   3 -14 1407.07 548.219   7
  -3  -5 -14 1265.03 467.587   7
   5  -3  14 870.441 962.853  18
   5   3  14 168.070 665.659  18
   3   5  14 609.258 833.970  18
  -3   5  14 3935.25 1871.79  18
  -5  -3  14-944.906 1084.01  11
   5   3 -14 1211.54 627.632  14
   5   3 -14 857.986 912.453   2
  -5  -3 -14 916.823 497.962  17
  -3  -5 -14 451.205 329.498  17
  -3   5  14 4281.09 2649.28   3
  -3  -5 -14 2502.51 2875.88  10
  -5   3  14 228.991 664.025  11
  -5   3  14-359.923 742.542  19
  -3   5 -14 1180.40 523.834   4
   3  -5  14 4.43286 703.977  23
  -3   5  14 1134.29 1022.71  11
   3  -5  14-349.959 739.726  18
  -5  -3  14-423.335 790.207  19
   5  -3 -14-2977.25 1896.58   2
   5   3 -14-183.959 834.309  12
   5  -3  14 1782.55 1110.31  23
  -3   5 -14 1313.06 2213.05  24
  -5   3 -14 1550.61 2181.40  24
  -3  -5  14-26.7799 756.335  11
  -5  -3 -14-6930.09 4138.25  10
   5  -3 -16 13596.9 1380.79   8
  -3   5 -16 12558.0 1613.17   4
   3   5 -16 11622.0 1426.25  14
  -5   3 -16 11185.0 1372.77   7
  -3  -5 -16 14032.2 1551.81   7
  -3  -5 -16 8646.42 1180.42  17
   5   3 -16 11422.1 1337.26  14
   5   3 -16 12421.2 1190.83   8
   3  -5 -16 13306.5 1419.12   8
  -5  -3 -16 13323.9 1534.95   7
   3   5 -18 4765.43 807.026  14
   5   3 -18 5903.45 883.890  14
  -5   3 -18 3807.12 955.767   4
  -3  -5 -18 3980.83 844.636   7
  -5   3 -18 3276.49 725.125   7
  -3  -5 -18 4196.81 761.285  17
  -5  -3 -18 4799.14 932.041   7
   5   3 -18 4617.90 681.037   8
  -3   5 -18 4027.29 910.271   4
   5  -3 -18 4268.65 735.403   8
   5  -3 -20 2320.91 552.462   7
  -5   3 -20 1890.74 521.359   7
   3  -5 -20 2085.92 549.313   7
  -5  -3 -20 2072.15 564.504   7
   5  -3 -20 1993.67 502.273   8
  -5   3 -20 2016.08 654.863   4
  -3  -5 -20 2359.48 576.611   7
   5   3 -20 1798.15 395.352   8
   3   5  22 426.113 391.701   5
  -5  -3 -22 30.4476 190.535   7
  -5   3 -22 433.088 271.452   4
   3  -5 -22 75.3472 143.167   7
  -3  -5 -22 248.253 225.169   7
   5  -3 -22 263.398 201.679   7
   5   3  22 598.619 368.113   5
  -4   5   1 5.20941 1154.83   3
   4  -5  -1 735.820 1348.53  20
   5  -4  -1 809.693 541.194  23
   4  -5  -1 1574.04 965.771  10
  -5   4  -1 728.681 649.546  19
  -4  -5  -1 458.758 491.213  19
  -5  -4  -1 1057.82 1199.40  21
  -5  -4   1 112.530 565.344  21
  -5   4   1 69.3875 1174.00   3
   4  -5   1 1339.15 1651.41  20
  -5  -4   1 344.653 440.738  19
   5  -4   1 752.380 621.128  23
  -5   4  -1 1041.22 1400.75   3
   5   4   1-30.1492 516.201   1
   4  -5   1 892.112 531.646   2
  -5   4   1 1033.90 635.393  19
  -4   5   1 620.961 410.520  19
   5  -4  -1 40.1468 530.251   2
  -4   5  -1 458.898 423.566  19
   4   5  -1 444.953 608.224   2
  -5  -4  -1 501.908 453.918  19
   5  -4   1 954.201 445.676   2
   5   4   1 546.103 709.374   2
  -5   4   1 648.375 731.889  11
   4   5   1 1131.75 801.909   2
  -5   4   1 3.79801 1043.79  24
  -4  -5  -1-71.7702 760.426  21
   5   4  -1 1010.44 847.529   2
   5   4  -1 324.070 514.696  22
  -5  -4  -1 938.378 1411.43  10
  -5   4  -1 584.725 1322.20  24
  -4  -5   1 971.676 688.420  19
   5  -4  -1 238.623 1274.42  20
  -5  -4   1 886.637 599.859  11
   4   5  -1 512.867 804.740  22
  -5  -4   1 1924.07 1657.42  10
  -4   5  -1 1655.73 1554.59  24
  -4   5  -1 1626.83 1400.70   3
  -4  -5  -1 1036.42 1862.71  10
   4   5   1 713.880 691.363   1
   4  -5  -1 1488.25 1014.51   2
   5   4  -1 1239.25 619.880   1
  -4   5   1 524.111 582.278  11
  -5   4  -1 592.839 542.726  11
   4   5  -1 844.237 810.036   1
  -5   4  -1 1760.44 1098.03  22
   5  -4   1 201.337 1104.70  20
   4   5   1 114.369 340.715   3
   4   5  -1 584.537 395.062   3
   5   4   1 695.315 683.023  22
  -4   5  -1-412.916 962.497  22
   4   5   1 228.032 580.082  22
   4  -5  -1 803.718 533.985  23
  -4  -5   1 1813.34 1775.35  10
   4  -5   1 552.554 587.154  23
  -4  -5   1-428.814 776.699  21
  -4  -5  -3 15278.1 2294.13  19
   5  -4   3 11401.8 3486.57  20
  -5  -4  -3 13368.2 2330.56  19
   4  -5  -3 7694.38 2711.23  10
   4  -5   3 14287.1 2124.67  23
  -5   4   3 11025.5 3848.93   3
  -5   4   3 11075.0 2077.90  11
   5  -4  -3 10284.1 2352.51   2
  -4   5  -3 12616.1 4019.16  24
   5   4   3 13547.7 1786.05  18
   5  -4  -3 5063.02 2549.85  20
   4  -5  -3 12362.5 2502.66   2
   4   5   3 14348.5 2015.39  18
   4  -5  -3 5841.18 2986.03  20
   5  -4   3 10587.7 1804.22  23
   5   4   3 15812.1 2755.84   1
   4   5   3 13698.6 2323.33   3
   4   5  -3 12956.4 1539.29   3
  -4  -5  -3 13400.7 4270.97  10
   5  -4  -3 13335.2 1963.38  23
   4   5  -3 13904.9 2249.17   1
  -4  -5   3 15286.3 2971.23  21
   5   4  -3 15072.4 2706.20   2
   5   4  -3 12632.1 2374.10  22
  -5  -4   3 14352.3 2321.37  19
   4   5  -3 13109.6 2526.06   2
  -5   4  -3 10155.8 3283.34  24
   5   4  -3 12996.5 2320.83   1
  -4   5   3 14458.0 1670.11  19
  -4  -5   3 17199.3 1990.04  11
  -5  -4   3 16221.0 2273.61  11
   4   5  -3 12685.0 2557.89  22
  -4   5   3 13680.1 2187.38  11
  -5  -4  -3 13002.1 3681.49  10
  -5  -4   3 14786.8 3097.95  21
  -4   5   3 13464.3 3744.44   3
  -5  -4  -3 11854.7 3104.60  21
  -5   4  -3 15015.3 2526.49  19
  -4  -5   3 14185.9 2109.62  19
   4   5   3 9890.22 2312.93  22
  -5   4   3 14023.6 1941.02  19
  -5   4  -3 15520.6 2618.15  22
   4  -5   3 9496.08 3425.07  20
  -4  -5  -3 12217.6 2940.06  21
   5   4   3 14488.9 2577.93   3
  -4   5  -3 7212.59 2989.12   3
   4   5   3 14534.5 2725.92   1
   5   4   3 11603.5 1974.16  22
   4  -5  -3 13635.2 1919.59  23
  -4   5  -3 10991.0 2662.48  22
   5  -4  -5 75346.9 6635.54   2
  -5  -4  -5 66276.3 8062.10  21
   5   4   5 87534.2 6520.52   3
  -4  -5  -5 73719.4 9718.76  10
  -4   5   5 79682.7 9014.58   3
  -5  -4   5 80675.0 5864.01  19
  -5   4   5 69593.4 9471.87   3
   4   5   5 85224.4 6367.99   3
   5  -4   5 72342.8 5147.59  23
   4  -5  -5 69540.8 6537.37   2
  -4  -5  -5 75049.9 7940.59  21
   4   5   5 83033.1 6455.31   1
   5   4   5 77534.8 5073.13  18
   4   5   5 74611.7 5220.62  18
   4  -5   5 57589.7 8040.63  20
  -5  -4  -5 70025.7 5912.73  19
   5  -4   5 67535.6 8413.92  20
   4   5  -5 77798.6 4694.67   1
   5   4   5 82272.4 6536.98   1
   4  -5  -5 51426.0 8028.49  20
  -5   4  -5 74948.6 9729.67  24
   5   4  -5 82789.4 6626.95   2
   4  -5  -5 67980.6 4477.19  23
  -4   5  -5 66015.6 9409.43  24
   4  -5  -5 53280.7 7803.99  10
  -4   5  -5 71750.7 6104.88  22
   4   5  -5 83379.0 6515.57   2
  -4  -5   5 79048.1 6836.95  21
   4   5   5 49034.0 5538.68  22
  -5   4   5 68724.6 4529.39  19
  -4   5   5 73369.8 4080.68  19
   5   4  -5 71607.1 6085.75  22
   5   4  -5 81646.4 5337.18   1
  -4  -5   5 84570.6 5248.48  11
  -5   4   5 74448.9 5697.76  11
  -4   5   5 70026.7 5149.29  11
   4   5  -5 71081.8 6250.18  22
  -5  -4  -5 68303.4 9421.55  10
   5  -4  -5 69095.6 4640.57  23
   5  -4  -5 42068.7 6699.30  20
  -5   4  -5 85253.1 5753.14  22
  -5  -4   5 86756.7 5858.48  11
  -5  -4   5 79373.7 6677.95  21
   4  -5   5 68647.6 5031.37  23
  -4  -5   5 74514.0 5210.13  19
   5  -4  -7 26585.1 5284.18  20
  -5  -4  -7 31737.3 6062.50  21
  -4  -5  -7 32882.3 5765.59  21
   4  -5  -7 24616.3 5562.73  20
   5   4   7 39690.8 4215.57  18
  -4  -5   7 40129.7 4334.27  19
  -4  -5   7 44751.9 4986.34  21
   5  -4   7 34824.8 4484.22  18
   5  -4  -7 42937.9 5533.79   2
   4   5   7 37753.1 4215.89  18
  -5  -4   7 42366.0 4657.62  19
  -4   5   7 36327.6 3249.85  19
  -4  -5  -7 44384.3 8296.24  10
  -5   4   7 34118.9 3463.27  19
   4  -5   7 35664.7 4018.80  23
   4  -5  -7 37109.7 5498.69   2
  -5   4  -7 35928.4 7374.52  24
   5   4  -7 46318.5 5264.70   2
   5   4   7 46453.2 5062.04   3
   4   5   7 49138.2 5291.87   3
   4   5  -7 46035.1 5111.28   2
   5  -4   7 34652.1 3871.47  23
   4   5  -7 20636.4 4956.33  24
   5  -4  -7 36206.5 3608.34  23
   5   4  -7 32882.8 4773.58  12
  -4  -5   7 46056.9 4518.24  11
  -5  -4   7 41342.2 4507.67  11
  -4   5   7 38659.0 4136.12  11
  -5   4   7 42675.8 7339.47   3
   5  -4   7 31397.3 5468.35  20
  -5   4   7 38204.8 4419.98  11
  -5  -4  -7 33337.9 7031.91  10
   4  -5  -7 35626.5 3457.34  23
   4  -5  -7 36414.9 7313.14  10
   4   5   7 46143.1 5129.29   1
  -4   5   7 49936.9 7271.36   3
   4  -5   7 28997.5 5474.06  20
   4   5  -7 43546.5 5298.88  22
   5   4   7 45954.7 5114.42   1
  -4   5  -7 44516.9 4932.53  22
  -4   5  -7 36275.8 7868.80  24
  -4   5   7 37446.1 4399.58  18
  -4  -5  -9 5851.95 2562.20  21
  -5   4   9 9096.96 3992.83   3
  -5   4   9 7179.14 1807.34  19
  -4   5   9 9852.09 3523.84   3
  -5  -4  -9 6775.10 2946.34  21
  -4   5   9 7841.98 2231.64  18
   5   4  -9 8786.00 2326.30   2
  -4  -5   9 10103.2 2399.25  11
   4   5   9 8231.51 2341.49   1
   4   5  -9 6135.73 2008.14   2
   5   4   9 9086.54 2406.91   1
   5  -4  -9 8046.08 2865.65   2
  -4  -5   9 7065.33 2038.37  19
  -5  -4   9 8597.32 2292.11  19
   5  -4   9 5305.03 2102.99  18
   5   4   9 7372.42 2166.72  18
   4   5   9 8552.93 2314.65  18
   5  -4   9 7604.29 2498.64  20
  -5   4   9 7911.56 2135.30  18
   5  -4   9 6598.99 1785.35  23
  -4   5   9 5587.02 1538.79  19
  -5   4   9 6585.86 1964.25  11
   4  -5  -9 9514.29 4237.40  10
  -4   5   9 7814.22 2069.22  11
   4   5   9 8450.86 2568.53   3
   5   4  -9 5649.33 2290.15  12
   4  -5   9 6966.77 1910.91  23
  -4   5  -9 11073.9 2838.97  22
   4  -5  -9 7865.63 2682.68   2
   4   5  -9 4932.87 3323.95  24
  -5  -4   9 11351.0 2712.81  11
  -4   5  -9 6196.47 3753.33  24
  -5   4  -9 7269.53 3306.64  24
   5   4   9 9367.41 2498.34   3
   4  -5   9 7113.10 2463.51  20
   4  -5   9 6896.27 2351.45  18
  -4  -5  -9 7136.37 4715.07  10
  -5  -4  -9 5291.11 3351.49  10
  -4  -5 -11 13389.1 4332.82  21
  -5   4 -11 14090.7 5261.83  24
  -4  -5  11 20256.0 3862.73  19
  -4   5  11 14519.5 2569.10  19
  -4   5 -11 21933.7 2088.22   4
   4  -5  11 16369.2 3609.42  18
   5  -4  11 13423.5 3198.41  18
   5   4  11 17631.2 3494.69  18
   4   5  11 18553.3 3753.27  18
  -4   5  11 15860.8 3368.05  18
  -5   4  11 14910.1 3214.98  18
   4  -5 -11 14078.6 3881.50   2
   4   5  11 19375.4 3810.76   1
  -5   4  11 16759.8 3027.35  19
   5   4  11 16354.8 3247.58   1
  -4   5  11 17898.7 5157.03   3
   4  -5  11 15204.9 3084.99  23
   5  -4 -11 24940.5 1676.83   8
  -5   4  11 16270.2 3359.17  11
   5   4 -11 16814.7 3565.10   2
   4   5 -11 20140.3 3690.51   2
   5   4  11 18816.1 3849.28   3
  -5  -4 -11 5023.00 3569.09  10
   4   5  11 18136.4 3818.94   3
  -4  -5  11 20184.8 3872.12  11
  -5   4  11 23518.1 6477.41   3
   5   4 -11 14080.0 3870.55  12
  -5  -4  11 22172.3 4127.61  11
  -4   5  11 17202.0 3368.76  11
  -5  -4  11 20270.5 3941.81  19
  -5  -4 -11 23436.6 1905.36   7
  -5   4 -11 21739.2 2101.29   4
   5  -4 -11 15761.7 3921.92   2
  -4   5 -11 16919.3 6549.39  24
  -5  -4 -11 13702.1 4721.02  21
  -4  -5 -11 19276.3 1745.27  17
   5  -4  11 16220.4 3112.98  23
  -5  -4 -11 19870.2 1760.61  17
  -4  -5 -11 9151.04 4089.59  10
  -4   5  13 6656.12 3372.24   3
  -5   4 -13 10691.2 1577.09   4
  -5   4 -13 8742.32 1181.54   7
   5  -4 -13 11371.9 1222.83   8
   4  -5  13 6663.08 2545.02  18
   4   5  13 8282.90 2808.71  18
  -4  -5  13 9988.74 2974.18  11
   5   4 -13 8584.65 947.466   8
  -4  -5 -13 8836.52 1235.11  17
   5   4 -13 9783.92 2614.26   2
  -4   5 -13 10384.7 1523.83   4
  -4  -5  13 5602.57 2236.39  19
  -5  -4  13 9515.97 3028.57  19
  -5   4  13 6287.26 1937.46  19
  -5  -4 -13 11533.8 1428.16   7
  -5   4  13 8230.01 4038.31   3
  -4  -5 -13 11785.3 1419.43   7
   5   4  13 8803.26 2812.21  18
   5   4  13 8562.24 2928.60   3
  -5  -4 -13 7821.25 1175.22  17
   4   5  13 6727.14 2532.75   3
   4  -5 -13 3070.51 2013.09   2
  -5   4  13 6063.95 2071.58  11
  -5  -4 -13 5736.88 3289.86  21
  -4   5  13 7919.95 2427.77  11
  -5  -4  13 11424.6 3275.79  11
  -4  -5 -13 155.135 1546.91  10
  -5   4 -13 6619.65 4152.87  24
  -4   5 -13 5797.29 3496.85  24
   5   4 -13 6588.58 2833.31  12
   4  -5  13 6612.29 2086.35  23
   5  -4  13 7741.43 2285.83  23
   4  -5 -13 11749.9 1308.36   8
   5  -4 -13 5488.94 2297.52   2
  -4   5  13 7131.06 2419.29  18
   5  -4  13 4903.89 1788.42  18
  -5  -4 -13 22637.1 7481.68  10
   4   5 -15 598.501 497.779  14
  -4  -5 -15 433.736 348.471  17
   5   4 -15 359.583 203.675   8
  -5   4 -15 775.280 431.459   7
  -5  -4 -15 685.294 416.397   7
  -4  -5 -15 1026.81 450.257   7
  -5  -4 -15 362.049 200.545  17
  -4   5 -15 1234.43 636.147   4
  -5   4 -15 372.780 426.653   4
   5   4 -15 202.992 424.273  14
   5  -4 -15 606.163 433.455   8
   4  -5 -15 866.009 433.844   8
   4   5 -17 873.021 448.792  14
   4  -5 -17 833.224 423.423   8
  -5   4 -17 706.641 411.459   7
  -4  -5 -17 1034.73 486.591   7
  -4  -5 -17 497.081 355.001  17
  -4   5 -17 691.442 490.717   4
  -5   4 -17 1093.24 614.210   4
   5   4 -17 910.122 438.630  14
  -5  -4 -17 999.752 444.289   7
   5   4 -17 1112.15 372.644   8
   5  -4 -17 1198.70 455.660   8
  -4   5 -19 13093.7 1480.96   4
  -5   4 -19 10818.5 1162.71   7
  -4  -5 -19 13385.2 1436.94   7
  -5  -4 -19 13897.6 1461.40   7
   4  -5 -19 11715.7 1275.03   7
   5   4 -19 10665.2 933.474   8
   4   5 -19 9837.18 1069.25  14
   5   4 -19 10321.6 1081.01  14
  -5   4 -19 12244.9 1515.05   4
   5  -4 -19 11694.1 1148.46   8
   4  -5 -21 7741.68 846.138   7
  -5   4 -21 7877.14 997.058   4
  -4   5 -21 7141.32 869.409   4
  -4  -5 -21 8706.07 951.874   7
   4   5  21 10269.0 1125.10   5
   5   4  21 9325.45 1048.35   5
   5  -4 -21 7759.35 836.910   7
  -5  -4 -21 8440.56 967.483   7
   5  -4 -23 1859.36 297.006   7
   4   5  23 2991.62 469.231   5
  -5  -4 -23 2379.11 385.766   7
  -5  -4 -23 2384.45 445.888   4
   4  -5 -23 1981.69 319.854   7
   5   4  23 2340.78 418.507   5
  -5   5   0 36698.8 3284.03  19
   5   5   0 40626.3 3898.72   3
   5  -5   0 36990.9 3148.18   2
   5   5   0 28521.9 3490.36  22
  -5  -5   0 28872.7 4638.22  21
  -5   5   0 29719.8 6114.46   3
  -5  -5   0 46248.5 6976.19  10
  -5   5   0 22462.8 4820.71  24
   5  -5   0 33271.1 3188.67  23
   5   5   0 40873.9 4476.87   2
  -5   5   0 19848.7 3025.75  11
  -5  -5   0 36084.6 3647.70  19
   5   5   0 43336.7 4534.53   1
   5  -5   0 25273.9 5862.73  20
  -5  -5   2 36058.8 3674.18  19
  -5   5   2 35681.1 3048.14  19
  -5   5  -2 35475.5 3717.04  19
  -5  -5  -2 37666.3 3888.47  19
   5  -5  -2 32670.5 3853.72   2
   5   5   2 34866.8 2917.56  18
   5  -5   2 25907.0 5885.27  20
  -5  -5   2 30291.2 2846.76  11
   5  -5   2 32262.4 3274.37  23
   5   5   2 36954.1 4000.98   3
  -5   5   2 25086.5 5886.66   3
   5   5  -2 35122.9 3123.88   3
  -5   5  -2 25985.5 5381.23  24
   5   5  -2 33142.5 4123.40   2
   5  -5  -2 24353.5 5704.40  20
  -5  -5   2 39194.2 5326.46  21
   5   5  -2 30527.0 3875.80  22
   5   5  -2 35970.5 3955.35   1
  -5   5  -2 24448.5 5575.52   3
  -5  -5  -2 37861.8 6599.08  10
   5   5   2 38891.9 4481.79   1
   5  -5  -2 32457.9 3154.79  23
  -5   5   2 24689.0 3209.87  11
  -5  -5  -2 37673.7 5641.57  21
  -5  -5   2 44270.3 7134.29  10
   5   5   2 28357.2 3563.57  22
  -5   5  -2 28743.7 4186.41  22
   5  -5   4 76779.2 5346.54  23
   5  -5  -4 78989.6 5058.48  23
  -5  -5  -4 79790.2 10376.4  10
  -5  -5  -4 83142.4 6327.58  19
   5  -5   4 65933.5 9043.15  20
   5   5   4 79831.0 6741.08   1
   5   5   4 83607.6 5124.76  18
   5  -5  -4 70421.5 6337.90   2
   5   5  -4 80497.1 6492.83  22
   5   5   4 81573.4 6407.66   3
  -5  -5  -4 78876.7 8843.66  21
   5  -5  -4 59516.0 9038.94  20
  -5  -5   4 90005.8 7942.77  21
  -5   5  -4 82492.4 10503.0  24
   5   5   4 62732.9 5436.56  22
  -5   5   4 83645.3 6012.65  11
  -5  -5   4 109780. 6208.00  11
  -5  -5   4 88342.2 6112.40  19
   5   5  -4 68910.0 5080.58   1
  -5   5   4 81607.1 4717.62  19
  -5   5  -4 80647.5 6452.89  22
  -5   5   4 69176.3 9388.31   3
   5   5  -4 83204.3 6808.38   2
  -5  -5  -6 391557. 20692.6  21
   5  -5  -6 395115. 16529.6   2
   5  -5  -6 309531. 20216.3  20
  -5   5   6 390883. 11044.9  19
  -5  -5   6 454560. 15117.1  19
   5   5   6 448616. 15933.2   3
  -5   5  -6 391348. 24656.6  24
   5   5   6 429481. 13483.5  18
   5   5   6 446126. 16230.5   1
  -5  -5  -6 374447. 24156.4  10
   5  -5   6 352866. 20077.3  20
   5   5  -6 453611. 16520.2   2
   5  -5  -6 386628. 11740.7  23
   5  -5   6 388780. 12864.5  23
   5   5  -6 434499. 16286.4  22
  -5  -5   6 471022. 14527.1  11
  -5   5   6 413612. 14417.7  11
  -5   5   6 417954. 23274.4   3
  -5  -5   6 451544. 17228.6  21
  -5  -5  -8 122324. 12482.0  21
   5  -5  -8 109430. 11466.2  20
  -5   5  -8 157713. 17342.9  24
  -5  -5   8 163659. 10083.5  19
   5  -5   8 127696. 9312.13  18
   5  -5  -8 149831. 11211.0   2
   5   5   8 157579. 9232.30  18
   5  -5   8 141618. 12153.9  20
  -5  -5  -8 126334. 15276.9  10
   5  -5   8 140270. 8421.00  23
   5   5   8 166377. 10643.1   3
   5   5  -8 162913. 10479.1   2
   5   5   8 163558. 10365.5   1
   5  -5  -8 139228. 7534.09  23
  -5  -5   8 183286. 10296.9  11
  -5   5   8 160213. 9593.66  11
  -5   5   8 165464. 15733.1   3
  -5   5   8 138129. 7336.09  19
  -5  -5  10 69955.0 7243.60  19
   5   5  10 67841.9 7315.27   3
   5  -5  10 54678.7 5675.68  23
   5  -5  10 54874.9 6521.91  18
   5  -5 -10 57956.8 7954.66   2
   5   5  10 66656.6 6795.45  18
  -5  -5 -10 69479.2 3349.28  17
   5   5 -10 66416.1 7039.74   2
  -5   5 -10 75756.8 3956.64   4
  -5  -5  10 77622.5 7527.71  11
   5   5  10 63121.8 6745.44   1
  -5  -5 -10 37195.9 8739.03  10
  -5   5  10 64876.3 10609.0   3
  -5   5  10 59419.9 5348.72  19
  -5  -5 -10 48069.6 8551.00  21
  -5   5 -10 57245.2 11022.8  24
  -5   5  10 65508.6 6699.21  11
   5  -5  10 53064.6 6850.99  20
  -5   5  12 36573.9 8521.21   3
  -5  -5 -12 27829.7 6869.29  21
  -5   5  12 38226.6 5516.84  11
   5   5 -12 36706.5 1910.57   8
  -5   5 -12 46515.1 3192.79   4
  -5   5 -12 38830.8 2460.47   7
   5  -5  12 32666.1 5296.58  18
   5  -5 -12 39888.2 6604.80   2
   5   5  12 36704.5 5503.42  18
  -5   5  12 39461.3 5422.11  18
   5   5  12 33584.1 5212.85   1
  -5  -5 -12 41065.4 2685.54  17
   5  -5  12 36824.6 4978.84  23
  -5  -5  12 41994.0 6153.49  19
  -5  -5 -12 25750.3 8243.27  10
   5   5 -12 34574.9 5335.00   2
   5   5  12 38458.6 5992.63   3
   5  -5 -12 45710.2 2444.56   8
  -5  -5  12 49050.7 6661.91  11
  -5  -5 -12 51097.6 2908.96   7
  -5   5 -12 33823.4 8945.97  24
  -5   5  14 22189.8 4379.19  11
   5  -5 -14 28580.3 2004.39   8
  -5   5 -14 25971.7 2431.30   4
   5   5  14 25503.4 4932.02  18
  -5  -5 -14 21283.0 1959.80  17
  -5   5 -14 11624.0 5751.81  24
  -5  -5 -14 29792.7 2301.22   7
   5   5 -14 28931.7 2422.21  14
   5   5 -14 25666.6 1607.40   8
   5  -5  14 15240.3 3332.01  23
  -5  -5 -14 27387.9 8657.00  10
  -5   5 -14 24221.9 1966.52   7
  -5   5 -16 310.426 298.505   7
  -5  -5 -16 314.903 398.419   7
  -5  -5 -16 238.861 380.216  17
   5  -5 -16 680.116 403.489   8
   5   5 -16 19.0166 375.193  14
  -5   5 -16-118.889 414.870   4
   5   5 -16 986.103 390.711   8
   5   5  18 58834.9 3206.58   5
  -5  -5 -18 57596.7 3012.26   7
  -5   5 -18 46171.6 2937.26   4
   5   5 -18 51093.7 2514.21  14
   5   5 -18 43844.8 1857.18   8
   5  -5 -18 46409.9 2371.90   8
  -5   5 -20 63312.3 2994.64   4
  -5  -5 -20 72768.6 3000.29   7
   5  -5 -20 64793.4 2557.27   7
   5   5  20 76464.2 3173.40   5
   5  -5 -22 22604.6 1174.03   7
  -5  -5 -22 23993.7 1356.13   7
  -6   0   0 324903. 10521.2  19
   6   0   0 329348. 6061.86  18
   6   0   0 310593. 8439.42  23
   0  -6   0 287773. 14230.3  10
   6   0   0 293459. 9366.82   2
   6   0   0 357871. 14535.6  20
  -6   0   0 309755. 17840.8  21
   0   6   0 314875. 10351.6   3
   0  -6   0 326263. 6795.07  23
  -6   0   0 335326. 11389.6  11
  -6   0   0 331378. 10309.3  24
   0   6   0 256227. 13737.5  22
   6   0   0 362769. 17753.7   9
  -6   0   2 124621. 10763.4  21
   0   6  -2 113801. 8713.07  22
   6   0   2 147297. 5619.93  18
   6   0   2 138210. 5614.53  23
   6   0  -2 110610. 6414.96   2
   6   0   2 149086. 9673.50  20
  -6   0  -2 160037. 10332.5  24
   6   0   2 112765. 10227.3   9
   6   0  -2 135010. 5718.01  23
   0  -6   2 112770. 8253.92  10
  -6   0  -2 114963. 7134.85  10
   0   6   2 117102. 6901.14   3
   0  -6  -2 136784. 3877.24  23
  -6   0  -2 131818. 7025.40  19
   0   6  -2 103417. 5618.06   3
  -6   0   2 141619. 7354.88  11
   6   0  -2 127778. 9998.13   9
   6   0   2 102317. 5165.80   2
  -6   0  -2 117183. 7103.76  11
   0   6  -2 96899.7 10655.3  24
  -6   0  -2 132682. 12408.3  21
   6   0  -2 146990. 8851.40  20
   0  -6  -2 91438.2 9138.92  10
   0  -6   2 137629. 5419.73  23
  -6   0   2 132385. 6685.70  19
   0  -6  -2 129143. 8525.77  21
  -6   0  -4 232062. 17460.7  21
   6   0   4 285222. 13911.0  20
  -6   0   4 255366. 9828.88  19
  -6   0   4 263185. 10692.8  11
   6   0  -4 263869. 8581.49  23
   0   6   4 256233. 10075.5  18
   0  -6   4 265841. 6247.85  19
  -6   0   4 222323. 12334.7  21
   6   0   4 281265. 9422.43  18
   6   0  -4 289088. 13962.0   9
   0  -6  -4 250096. 11796.1  21
   0   6  -4 204052. 16059.0  24
   6   0  -4 267415. 11215.7   2
   6   0  -4 284248. 11293.8  20
   0  -6   4 261876. 8880.94  23
   0   6  -4 246859. 12626.9  22
   6   0   4 265216. 8194.72  23
   0   6   4 273242. 11333.5   3
   0  -6   4 270951. 12865.8  10
   6   0   4 301583. 17656.4   9
   6   0   4 272502. 10906.5   1
  -6   0  -4 250490. 12300.9  10
   0  -6  -4 244793. 16547.6  10
  -6   0  -4 257926. 11004.7  19
   0   6   6 206422. 9841.37  18
  -6   0   6 142217. 15459.8   3
   6   0   6 219091. 15486.5   9
   0   6  -6 166740. 15770.0  24
   6   0  -6 202118. 10216.9   9
   0  -6  -6 157440. 15039.5  10
   6   0  -6 214726. 11223.9   2
   6   0  -6 216371. 8501.29  20
   0  -6   6 140229. 12149.9  20
   6   0   6 216306. 12472.1  20
   6   0   6 197152. 9398.84   1
   0   6   6 205569. 10942.2   3
   0   6  -6 218549. 12020.0  22
  -6   0   6 227833. 10616.7  11
  -6   0  -6 177934. 16284.8  21
   0  -6   6 212727. 9103.79  23
   6   0   6 216139. 9456.90  18
  -6   0  -6 178367. 12302.6  10
   6   0  -6 212788. 8368.09  23
  -6   0   6 211217. 9730.50  19
   6   0   6 204062. 7771.23  23
  -6   0  -6 199602. 10748.9  19
   0  -6  -6 203627. 10701.2  21
  -6   0   8 147759. 8787.63  19
   6   0   8 132308. 10037.0  20
   0  -6  -8 134645. 9234.75  21
   6   0   8 141047. 8701.79  18
   0   6   8 142169. 8895.32  18
   0   6  -8 141073. 9957.96  22
   6   0   8 127824. 12378.0   9
   0   6  -8 120391. 14385.9  24
   6   0  -8 137507. 9930.79   2
  -6   0   8 93770.5 12719.5   3
  -6   0  -8 141168. 14202.9  24
   0   6   8 137613. 9795.71   3
  -6   0   8 148454. 9394.17  11
   6   0   8 121037. 7437.33   1
  -6   0  -8 109707. 13657.4  21
   0  -6  -8 86569.6 12311.8  10
   6   0   8 136285. 7104.24  23
   0  -6   8 124756. 8499.96  18
   6   0  10 80059.1 10136.4   9
   0  -6 -10 66232.9 11962.6  10
  -6   0  10 110223. 8284.17  19
   6   0  10 94672.4 8759.57  20
   6   0  10 98084.6 8026.43  18
   0   6  10 105726. 8518.75  18
  -6   0  10 104281. 8794.96  11
   0  -6  10 94796.3 8060.75  18
  -6   0 -10 64629.6 10866.3  21
   6   0  10 84170.7 7104.96   3
   6   0  10 97492.3 6518.63  23
   0   6  10 101872. 9319.05   3
   0   6 -10 86318.0 13081.9  24
  -6   0 -10 94480.9 12644.4  24
   6   0 -10 102595. 9223.28   2
   0   6 -10 107409. 9264.55  22
   6   0 -12 197759. 4782.18   8
  -6   0  12 204909. 12377.6  19
   0  -6  12 168166. 11427.6  18
   6   0  12 171598. 11772.9  18
   0   6  12 186519. 12422.3  18
  -6   0  12 195455. 13072.2  11
   0  -6 -12 133944. 18335.9  10
  -6   0 -12 171540. 18540.9  24
   6   0 -12 179291. 13036.4   2
   0   6  12 196022. 14152.6   3
  -6   0 -12 122768. 15884.8  21
   0   6 -12 151509. 18608.6  24
   6   0  12 160858. 10243.0   3
   6   0  12 179960. 9636.14  23
  -6   0 -12 206075. 5661.78   7
   0   6 -14 33875.1 2338.63  14
  -6   0 -14 27885.4 2239.80   7
   0  -6  14 22596.3 4294.54  23
   0  -6  14 22176.4 4412.57  18
   0   6  14 31152.3 5593.01  18
  -6   0  14 31533.8 5773.45  11
   6   0 -14 29702.8 1939.79   8
   0   6 -14 18887.0 7198.24  24
  -6   0  14 27661.5 4956.85  19
   6   0 -14 34331.6 6295.55  12
   0   6  14 30053.1 5948.67   3
   6   0  14 25608.1 4855.66  18
  -6   0 -14 22024.6 7299.43  24
   6   0 -14 24044.4 4991.86   2
   0  -6 -14 18980.0 7305.53  10
  -6   0 -16 42909.9 2734.62   7
   0  -6 -16 45429.4 2753.76   7
   0  -6 -16 39346.1 2411.61  17
   6   0 -16 46726.0 2406.06   8
   0   6 -16 49947.0 2808.00  14
  -6   0 -18 44603.4 2734.26   7
   6   0 -18 47851.3 2328.09   8
   0  -6 -18 49241.4 2734.92   7
  -6   0 -20 59200.1 2805.83   7
   6   0 -20 57589.8 2305.26   8
   6   0 -20 54194.3 2184.15   7
   0  -6 -20 66112.1 2830.64   7
  -6   0 -20 62830.3 3321.03   4
   6   0  22 23595.1 1289.98   5
  -6   0 -22 25842.5 1724.56   4
   0  -6 -22 26694.0 1451.14   7
  -6   0 -22 22506.6 1421.23   7
   6  -1  -1 99680.6 4998.12  23
  -6   1  -1 92380.7 10794.7  21
  -1  -6  -1 103621. 7813.08  21
   6   1   1 81701.0 5071.58   2
   6  -1   1 113600. 9161.35  20
   6  -1   1 108038. 5029.36  18
   6   1   1 106506. 4677.02  23
   6   1   1 116539. 8249.05  20
   1   6   1 76239.3 7656.86  22
   6   1   1 109491. 3398.66  18
   1  -6   1 104372. 4596.49  23
   6   1   1 97487.9 6604.27   1
   6   1  -1 114651. 7661.21  20
   1   6   1 88853.4 6021.88   1
   1  -6  -1 105005. 4159.36  23
   1   6  -1 84923.7 5468.03   1
  -6  -1   1 98793.4 9343.23  21
   6  -1   1 102016. 5032.21  23
   6   1  -1 99302.7 8848.90   9
   6  -1  -1 82253.0 5115.15   2
  -6   1  -1 96391.5 5555.50  10
  -6   1   1 90444.9 9879.54  21
   6  -1  -1 114738. 8849.93  20
  -6   1  -1 109951. 6218.99  19
   6   1  -1 88329.1 5620.33   2
  -1  -6   1 84478.7 7963.71  10
   6  -1   1 83824.3 4540.23   2
   6   1   1 99639.7 9461.05   9
  -6  -1  -1 96928.9 9714.17  21
  -6   1   1 103264. 5828.41  19
   1  -6  -1 77792.9 7667.33  10
  -1  -6   1 109929. 3974.36  23
   1   6   1 85261.9 5396.22   3
   6   1  -1 96466.7 3701.69  12
   1   6  -1 88021.8 4895.54   3
  -1   6   1 86920.6 6199.46   3
  -6  -1  -1 96147.5 7288.69  10
  -6  -1   1 100759. 6083.57  11
  -6   1   1 94777.3 6027.00  11
  -6  -1  -1 94048.6 6136.75  11
   1   6  -1 88268.1 7632.19  22
  -6  -1  -1 104469. 6255.07  19
  -1   6  -1 83418.3 5947.13   3
  -1   6  -1 64835.1 8759.12  24
  -6   1  -1 112413. 7334.07  24
  -1  -6  -1 86689.3 8516.39  10
   1  -6   1 80863.3 6882.43  10
  -6  -1   1 105257. 6035.06  19
   6   1  -1 106561. 4844.43  23
  -6   1  -1 90303.7 6129.70  11
  -1   6  -1 85180.1 7806.08  22
  -6   1  -3 89885.3 11233.0  21
   1   6  -3 85369.0 4313.21   3
   1  -6  -3 93396.8 7095.19  21
   1   6  -3 87480.8 7403.61  22
  -1   6  -3 77630.4 10079.1  24
   1   6   3 91030.6 6470.70   1
   6  -1   3 107423. 8869.97  20
   6   1   3 107281. 4946.21  18
  -6   1  -3 110194. 9410.78  24
   6   1   3 101483. 7975.72  20
   6   1  -3 100188. 5057.05  23
   6   1   3 103875. 4702.60  23
   6  -1   3 106128. 5791.21  18
  -6  -1  -3 102890. 6657.92  19
   6  -1  -3 109413. 8188.03  20
  -6   1   3 64938.1 9923.20   3
   6  -1  -3 98463.8 5158.35  23
  -6   1   3 92384.3 5617.19  19
  -1  -6  -3 102507. 7721.29  21
   1  -6  -3 102347. 4084.30  23
   1   6   3 95028.6 5826.14  18
  -1  -6   3 101260. 3526.95  19
   6  -1  -3 92797.6 6250.00   2
   1  -6  -3 80446.0 8950.70  10
   1  -6   3 63523.3 8422.41  20
   6   1  -3 97043.4 6482.06   2
   6   1   3 101663. 6805.83   1
   6   1  -3 97942.7 8256.50   9
  -6  -1  -3 90269.6 7619.94  10
  -6   1  -3 97770.9 6436.07  19
  -1  -6   3 101154. 5028.38  23
   1   6  -3 79746.1 5001.80   1
   1   6   3 89484.0 6021.37   3
  -6  -1  -3 94452.5 10483.8  21
  -1  -6   3 95496.5 8344.92  10
   6   1  -3 122966. 6230.40  12
  -1   6   3 95689.6 6912.17   3
   6  -1   3 81116.9 4068.84   2
   6   1   3 87497.5 5073.28   2
  -6  -1   3 114145. 6781.79  11
  -6   1   3 114545. 6906.25  11
  -1   6  -3 61776.2 5352.04   3
   1   6  -3 63567.1 8798.66  24
   1  -6   3 94337.9 6840.70  10
  -6  -1   3 93772.3 8633.64  21
  -1  -6  -3 89924.1 9655.13  10
   6  -1   3 100079. 5125.59  23
   1  -6   3 101493. 5317.50  23
   6   1  -3 104132. 6778.97  20
  -1   6  -3 92198.5 7860.08  22
  -6  -1   3 103249. 6192.45  19
   6   1   3 98571.9 9865.00   9
   6   1  -5 70768.9 6361.09   9
  -1  -6  -5 75089.9 6705.03  21
  -6  -1   5 77386.3 5716.47  19
   6   1   5 77628.3 7251.79  20
   6  -1   5 77094.6 7560.50  20
   6  -1  -5 74839.8 4822.81  23
  -1  -6   5 80798.8 4248.01  19
  -6  -1  -5 73190.9 6190.74  19
   6  -1   5 77817.8 5607.86  18
   6   1   5 84529.5 5356.32  18
  -1   6   5 72574.9 5696.66  18
   1   6   5 73425.5 5609.89  18
   6  -1  -5 77706.9 6445.06   2
  -6   1  -5 58529.1 9735.74  21
   6   1   5 80660.5 4380.28  23
   6  -1   5 68990.2 4571.18  23
   6  -1   5 81070.1 5873.57   1
   1   6   5 72940.4 6399.51   1
   6   1  -5 79167.1 6528.03   2
   1  -6  -5 52122.8 8124.59  10
  -6   1   5 67339.7 10406.0   3
   6   1   5 82363.0 9353.19   9
   1  -6   5 53102.3 7745.68  20
   6  -1   5 82487.8 9485.79   9
   1  -6   5 76230.8 5236.66  23
   6  -1  -5 80398.1 6358.40  20
  -1   6  -5 63134.1 9462.40  24
   6   1   5 79740.6 6049.27   1
   1   6   5 80479.0 6328.47   3
  -1   6   5 81254.2 6893.84   3
   1  -6   5 78072.4 6312.27  10
   1   6  -5 80951.1 5111.93   2
  -6  -1   5 70464.1 5680.30  11
  -6   1   5 70653.9 5757.00  11
   6   1  -5 73560.6 4673.42  23
  -1   6   5 73502.8 3805.34  11
   1  -6  -5 67390.7 5856.77  21
  -6  -1  -5 64784.0 9174.99  21
   1   6  -5 52254.8 8624.66  24
   1  -6  -5 75039.3 3830.23  23
  -6   1  -5 87418.5 9617.24  24
  -6  -1  -5 73119.8 7836.02  10
  -1  -6  -5 65704.9 9205.34  10
  -6   1  -5 70966.3 6063.13  19
  -6   1   5 72109.5 5247.22  19
   6   1  -5 74389.6 5185.03  20
   1   6  -5 70546.4 6687.11  22
  -1   6  -5 65668.4 6527.66  22
   6   1   7 28267.9 6038.88   9
  -6   1  -7 31832.7 7519.08  21
   6   1   7 38336.3 4192.48  18
   6  -1   7 26088.7 3375.76   1
   1  -6   7 22264.0 4882.31  20
   1   6  -7 29511.3 3153.26   2
   6   1   7 36160.5 5191.61  20
  -1  -6   7 37941.9 3628.16  19
  -1  -6  -7 24513.7 6460.86  10
  -6   1   7 26221.9 6847.01   3
  -6  -1   7 40692.8 4491.07  19
   1   6  -7 23554.0 6131.12  24
  -6   1   7 39700.0 4287.54  19
   1  -6  -7 30315.0 3981.47  21
  -1  -6   7 23102.8 4604.15  20
   6  -1   7 37182.4 4254.76  18
   1   6   7 37430.9 4315.72  18
  -1   6   7 37374.3 4413.31  18
   6  -1  -7 28353.9 4473.52   2
  -6  -1  -7 35599.9 7254.55  21
   6  -1   7 39208.6 3765.12  23
   6   1   7 36867.3 3285.47  23
   1   6   7 27162.4 4247.92   1
  -6   1  -7 37688.6 7260.28  24
   1   6   7 31522.8 4402.45   3
  -1   6  -7 33380.8 7412.53  24
   6  -1   7 31414.2 6065.12   9
  -1   6   7 32982.0 4856.85   3
  -6  -1  -7 18951.3 4965.16  10
  -6  -1   7 49796.4 5209.90  11
   6   1   7 29507.6 3789.87   1
  -6   1   7 44406.5 4900.35  11
   1  -6   7 35596.7 3990.61  23
  -1  -6  -7 36300.9 5019.28  21
   6  -1   7 37247.6 5249.88  20
   6  -1  -7 36527.5 3643.96  23
   6   1  -7 27774.8 4251.15   2
   1  -6  -7 18680.4 5459.59  10
   1   6  -7 41715.3 5353.10  22
  -1   6  -7 38840.5 5039.03  22
   6   1   9 59637.6 8756.67   9
  -6   1  -9 50705.6 9921.28  21
   6  -1   9 61113.4 6943.48  20
  -1  -6   9 61500.2 6131.42  18
  -6  -1   9 72271.1 6641.25  19
  -6   1   9 70223.1 6209.81  19
  -1  -6  -9 52491.4 6512.03  21
   6   1   9 70104.3 6466.52   3
   1  -6   9 58106.8 6227.01  18
   6  -1   9 65818.0 6316.82  18
   1   6   9 65554.1 6364.23  18
   6  -1  -9 72068.2 7484.91   2
  -6  -1  -9 44526.2 8657.02  21
   6   1   9 69290.7 6364.11  18
   6   1  -9 70948.1 7384.88   2
  -6   1  -9 61764.7 9952.08  24
   1   6  -9 73534.7 7467.40  22
   6   1   9 60682.9 6937.38  20
  -6   1   9 44527.5 9716.00   3
   6  -1   9 61203.7 5161.84  23
   1   6   9 69831.4 7206.86   3
  -1   6  -9 58629.2 10795.5  24
   1   6  -9 49762.8 9610.74  24
  -1   6   9 60930.1 6205.39  18
  -1   6   9 68121.0 7543.79   3
  -6   1   9 68340.9 6698.16  11
   6  -1   9 58999.7 4955.46   1
  -6  -1  -9 37674.9 7252.69  10
   6  -1   9 60877.9 8661.81   9
   6   1   9 65923.4 5703.89   1
  -1  -6  -9 41080.0 8920.15  10
   1  -6  -9 48967.8 9709.96  10
   6   1   9 72123.7 5094.41  23
   1  -6   9 61260.7 5741.78  23
  -6  -1   9 71454.1 6927.53  11
  -1   6  -9 71671.0 7216.29  22
   6  -1 -11 75894.9 2900.41   8
   6  -1  11 59712.2 6981.01  20
  -6  -1 -11 80585.7 3450.81   7
  -6   1 -11 74051.5 3372.45   7
  -6  -1  11 77431.7 7549.40  19
   6  -1  11 63925.8 5689.13  23
   1  -6 -11 44235.7 10096.9  10
   1  -6  11 60714.7 6727.49  18
  -1  -6  11 65013.5 6683.20  18
   6  -1  11 64824.0 6884.25  18
   6   1  11 72486.7 7215.94  18
  -6   1  11 65027.7 7166.43  11
  -1   6  11 69951.9 7298.01  18
   6  -1 -11 65288.7 7670.94   2
  -6  -1 -11 43665.1 9194.60  21
  -6  -1  11 69039.8 7431.36  11
   1   6  11 67454.5 7152.90  18
   6   1  11 61375.8 6396.37   3
  -6   1  11 73399.2 6954.75  19
   1   6 -11 103191. 3979.48  14
   6   1 -11 74821.9 2824.51   8
  -1   6 -11 59360.0 11838.1  24
   1   6  11 75884.3 8205.74   3
   6   1 -11 67005.1 7967.48  12
  -1   6  11 77050.1 8810.82   3
   6   1 -11 75210.8 8041.60   2
   1   6 -11 52118.6 10634.6  24
   6  -1  11 52106.8 8294.94   9
  -6  -1 -11 58452.8 10311.4  24
  -1  -6 -11 40228.8 9847.59  10
  -6   1 -11 58430.4 10581.2  24
   6  -1  11 59882.6 5924.75   3
   1  -6  11 59921.4 6247.92  23
  -6  -1 -13 43228.0 9324.36  21
  -1  -6  13 49594.3 6118.15  19
  -6  -1 -13 64136.7 3322.38   7
   6   1 -13 59756.0 2659.12   8
   6  -1 -13 63005.5 2806.89   8
  -1   6 -13 77546.5 3474.04  14
  -6  -1  13 69921.5 7775.53  19
  -6   1  13 69342.8 7332.22  19
  -6   1 -13 53373.8 10787.2  24
  -6   1 -13 57285.7 3143.87   7
   1  -6  13 51934.6 6629.29  18
  -1  -6  13 54198.2 6518.75  18
  -1  -6 -13 70136.1 3289.88   7
   6  -1  13 57872.5 7064.56  18
   6   1  13 66458.1 7567.43  18
   1   6  13 64805.3 7619.71  18
  -1   6  13 58828.1 7274.64  18
   6   1 -13 88348.2 3826.18  14
   6   1  13 50930.1 6120.44   3
   1   6 -13 45575.3 10377.4  24
  -1  -6 -13 38503.7 10131.4  10
   1  -6  13 53582.8 6360.21  23
   1   6  13 58250.2 7826.73   3
   6   1 -13 56220.3 7778.71  12
  -1   6  13 61704.9 8571.37   3
  -6  -1  13 65245.6 7965.67  11
  -6   1  13 62556.6 7729.99  11
   6   1 -13 60251.8 7522.67   2
   6  -1 -13 52538.9 7304.89   2
   1   6 -13 80066.9 3646.69  14
  -6  -1 -13 55670.6 10855.1  24
   6  -1  13 54338.5 5642.58  23
  -1   6 -13 52309.3 11613.0  24
   1  -6 -13 36431.3 10049.1  10
   6  -1 -15 15908.0 1455.51   8
  -6   1 -15 15775.1 1635.20   7
  -6  -1 -15 16411.3 1719.90   7
   1   6 -15 20279.3 1845.50  14
  -1  -6 -15 16366.0 1610.84  17
  -1  -6 -15 17641.4 1721.65   7
   6   1 -15 21781.7 1820.00  14
  -1   6 -15 21480.0 1846.77  14
   6   1 -15 16202.9 1396.28   8
  -1  -6 -17 27532.2 2116.81   7
   6  -1 -17 27731.9 1848.04   8
  -6   1 -17 23996.4 2015.78   7
  -6  -1 -17 25343.2 2118.58   7
   1  -6 -17 27113.0 2082.65   7
  -1  -6 -17 20379.3 1751.48  17
   1  -6 -17 21608.0 1720.47  17
   1   6 -17 27442.0 2031.25  14
   6   1 -17 25798.9 1735.12   8
   6   1 -19 16979.1 1303.24   8
   6   1 -19 17771.3 1286.32   7
   1  -6 -19 18399.7 1605.37   7
   1  -6 -19 15328.5 1259.64  17
  -6   1 -19 17552.6 1825.51   4
  -6  -1 -19 17681.7 1655.30   7
   6  -1 -19 18205.2 1379.68   8
  -6   1 -19 14730.3 1491.97   7
  -1  -6 -19 16039.3 1379.40  17
  -1  -6 -19 19273.4 1652.28   7
  -6  -1 -21 15950.0 1528.48   4
   6  -1 -21 13707.0 1057.99   8
  -1  -6 -21 15201.3 1251.33   7
  -6   1 -21 11983.3 1184.73   7
   1  -6 -21 15369.5 1238.87   7
   6  -1 -21 13030.7 1002.30   7
  -1   6  21 19444.1 1473.81   5
   6   1  21 13693.3 1045.28  25
   1   6  21 17862.9 1493.74   5
   6   1 -21 12762.2 980.600   8
   6   1  21 14712.1 1262.72   5
  -6   1 -21 14527.4 1437.56   4
  -6  -1 -21 15316.4 1353.56   7
  -1  -6 -23 7822.77 666.908   7
   1  -6 -23 7208.71 635.305   7
  -6  -1 -23 6432.48 657.635   7
  -6   1 -23 7549.90 783.662   4
  -6  -1 -23 7622.63 795.819   4
   6  -2   0 19355.9 2276.90   2
   6  -2   0 24980.2 4568.61  20
  -6   2   0 28319.5 3094.10  19
  -6  -2   0 21400.7 3984.87  10
  -2  -6   0 27638.8 4150.90  21
  -6   2   0 24581.7 3092.51  24
  -6  -2   0 24776.9 3033.34  19
   2  -6   0 16294.0 3306.26  10
   2  -6   0 18169.1 4945.44  20
   6   2   0 28735.1 2353.64  23
   6   2   0 24908.8 3376.38   1
   6  -2   0 24574.8 2620.27  23
   2  -6   0 26370.1 2416.18  23
  -2  -6   0 17372.9 4000.50  10
   2   6   0 21564.7 3984.15  22
   2   6   0 19908.5 2435.45   3
   6   2   0 16862.6 2518.86   2
  -2   6   0 14448.9 4411.67  24
  -2   6   0 17178.7 3374.90   3
  -6  -2   0 30976.3 3402.47  11
  -6   2   0 28437.6 3494.43  11
   2   6   0 20521.8 2853.89   1
  -2   6   0 12698.5 3374.82  22
   6   2   0 28442.2 3916.19  20
  -6  -2   0 23682.3 4509.61  21
   6   2   0 21937.7 4485.96   9
   2   6   2 71283.1 5542.33   1
   6   2  -2 69447.5 7334.10   9
  -6   2  -2 90101.5 5925.77  19
   2  -6   2 86439.8 4766.72  23
  -2  -6  -2 72201.4 8620.65  10
   6   2   2 78873.6 6106.65   1
   6  -2   2 82867.4 4806.51  23
   6  -2  -2 91330.0 8951.03  20
   6  -2   2 85108.7 8610.64  20
  -2  -6   2 85927.7 7490.88  21
   6   2   2 85227.3 7203.10  20
   6   2   2 86699.3 3972.58  23
   2  -6   2 59520.7 8464.36  20
   6   2  -2 74065.1 5616.29   2
  -2  -6   2 85762.6 3528.85  19
  -6   2  -2 83948.1 7415.24  24
  -6   2   2 85932.5 5279.30  19
  -6  -2  -2 89472.5 6010.51  19
   2   6  -2 76737.9 7046.09  22
   2  -6  -2 54041.9 7021.66  10
   2   6  -2 69050.2 4742.88   1
   6   2   2 90502.2 3609.71  18
  -6  -2   2 79922.8 7874.70  21
   6  -2  -2 75140.4 5190.36   2
   6   2  -2 85274.1 6388.71  20
  -2   6  -2 66600.3 9130.26  24
   2  -6  -2 85369.6 4171.86  23
   6   2   2 80891.6 9019.61   9
   2  -6   2 62182.1 5437.09  10
   6  -2   2 66186.0 3515.63   2
   2   6   2 69334.3 5111.22   3
   6  -2  -2 82526.0 4801.25  23
  -6  -2  -2 77075.8 7509.15  10
   2   6  -2 70557.8 3956.13   3
   6   2  -2 77553.0 4252.71  12
   6   2   2 68321.5 4890.36   2
  -2  -6   2 79696.1 7939.79  10
  -2   6   2 75708.0 6449.10   3
  -2  -6   2 88295.1 4020.15  23
  -6  -2   2 93038.1 5970.22  11
  -6   2   2 84469.4 5888.19  11
   2   6  -2 86197.0 5649.96   2
  -2   6   2 83621.8 4351.47  11
  -6   2  -2 64073.6 5544.87  11
  -6  -2  -2 65217.2 5303.38  11
  -2  -6  -2 87203.4 7349.47  21
   6   2  -2 81398.9 5962.68   1
  -6   2  -2 70708.6 10019.6  21
  -6   2   2 66501.2 10097.0   3
   6   2  -2 88416.4 4483.47  23
  -2   6  -2 71740.2 7120.73  22
  -2   6  -2 50864.0 5619.02   3
   2   6   2 62546.4 6995.46  22
  -6  -2   2 86882.4 5769.07  19
  -6  -2  -2 79366.3 8745.81  21
   2  -6  -4 16645.2 1931.26  23
   2   6   4 15155.2 2691.58   3
  -6   2  -4 10103.6 4678.81  21
   6   2   4 17205.7 3570.20  20
  -2  -6   4 18215.9 2032.62  19
  -6  -2   4 17249.5 2782.90  19
   6   2  -4 17528.7 3049.80   2
  -6   2  -4 13927.6 2644.42  19
   2   6   4 15951.0 2840.53   1
   6  -2   4 16237.9 2599.62  18
   6   2   4 21041.0 2405.33  18
   2   6   4 13972.2 2380.09  18
   2   6  -4 15812.7 2189.25   1
   6  -2  -4 18384.7 3006.76   2
   6   2  -4 16257.7 2636.13   1
  -2   6  -4 11193.4 2622.37   3
   6  -2  -4 16658.5 2317.32  23
  -2  -6  -4 12515.4 2779.98  21
  -6  -2   4 14630.1 3235.39  21
   6   2   4 18847.4 1960.78  23
   2  -6   4 16461.0 2392.39  23
  -6  -2  -4 11208.4 3839.30  21
   2   6  -4 14620.7 3195.56  22
   6   2  -4 16396.6 2204.55  23
   6   2   4 19675.6 3196.24   1
   2  -6  -4 9820.78 3457.23  10
  -6   2  -4 17954.8 4200.88  24
   6   2  -4 18179.8 2694.35  12
  -6  -2  -4 18975.0 4253.40  10
  -2   6   4 15759.1 3258.63   3
  -2   6  -4 15705.2 3285.29  22
   2   6  -4 18596.4 2654.97   2
  -2  -6   4 19327.9 4520.01  10
  -6  -2   4 17033.9 2730.02  11
  -6   2   4 13886.8 2614.52  11
  -2  -6   4 16689.7 3357.08  21
  -2   6   4 14928.4 1872.35  11
   6  -2   4 13484.0 2056.55  23
   6   2   4 16728.0 4262.09   9
   6  -2  -4 17405.6 3707.80  20
  -6   2   4 13144.0 4824.35   3
   2  -6   4 11025.7 4215.55  20
  -6   2   4 15782.7 2332.79  19
  -6  -2  -4 15558.7 2768.90  19
  -2   6  -4 12599.2 4274.39  24
   6  -2   4 16012.4 3729.32  20
  -2  -6  -4 12405.5 3994.13  10
   2   6  -4 10336.0 3718.91  24
  -6  -2  -6 117.264 422.486  19
  -6   2   6 430.527 1849.94   3
  -6   2  -6 1348.68 2291.62  21
   6   2   6 572.752 537.191  23
   6   2   6 580.786 877.556  20
   2   6   6 353.660 664.074  18
  -6  -2  -6-987.310 1567.96  10
   2   6  -6 177.614 595.286   2
   6  -2   6 934.545 977.201  20
  -6  -2   6 822.976 828.778  11
  -6   2   6 866.233 768.662  19
   6   2  -6 322.101 812.939  12
  -2  -6   6 754.786 564.222  19
   6  -2  -6 299.474 528.354   2
  -6  -2   6 269.726 729.206  19
  -2  -6   6 399.370 631.034  21
   6  -2   6 819.715 841.894  18
  -2  -6  -6 179.203 583.589  21
  -2   6   6 230.267 387.534  18
  -2   6   6-624.887 826.359   3
   6   2  -6 383.441 757.706   2
   2  -6  -6 690.252 494.242  23
  -2  -6  -6-1928.88 2991.15  10
   2   6   6 769.387 919.896   1
   2  -6   6-540.947 974.535  20
   2   6   6-1119.52 882.244   3
   2  -6  -6 757.008 596.385  21
   6   2  -6 461.804 684.222   1
  -2   6  -6 1311.39 1990.78  24
  -2   6   6 1405.48 661.176  11
   6  -2   6 968.713 884.805   1
   6   2   6 236.978 1068.05   9
   6  -2  -6 790.286 680.274  23
  -6  -2  -6 1259.58 1287.68  21
   2  -6  -6-910.002 1532.95  10
   6   2   6 288.843 414.976  18
   6  -2   6 747.831 555.861  23
  -6   2   6 860.407 770.317  11
   6   2   6 1096.37 870.681   1
   2   6  -6 864.832 1250.13  24
  -6   2  -6 64.0099 1370.61  24
   2   6  -6-735.213 972.725  22
   6  -2  -6 206.185 823.348  20
   2  -6   6 521.036 702.626  23
  -2   6  -6 1270.23 1018.94  22
  -2   6   8 854.957 869.897   3
  -2   6  -8-158.054 857.941  22
  -2  -6  -8-909.662 972.967  21
  -2   6  -8 1043.05 1322.00  24
  -6   2   8-483.672 736.333  19
  -2  -6   8 33.1131 417.398  18
   2   6  -8-839.216 1424.33  22
  -2  -6   8 904.247 1056.91  21
   2  -6  -8-722.026 1599.11  10
  -6  -2  -8 2634.83 2130.56  10
   6  -2   8 360.623 479.273  23
   2  -6   8 122.907 535.970  20
   6  -2   8-1017.50 990.861  20
  -2   6   8-1160.51 692.639  11
  -2   6   8 13.3030 597.549  18
   2   6  -8 415.508 732.137   2
   2  -6   8 811.726 660.918  18
   6  -2   8 1940.71 1616.51   9
   6  -2   8 345.503 547.719  18
   6   2   8 617.857 486.745   3
   6  -2  -8 508.218 1095.59   2
  -6   2   8-17.4019 506.305  11
  -2  -6  -8 84.5890 2024.84  10
   2   6   8 109.882 379.682  18
   6   2   8 943.597 714.902   1
   6   2  -8 830.801 1098.09   2
   2   6   8 1510.47 1237.82   1
  -6  -2   8-151.080 511.738  11
  -6  -2  -8 745.447 1342.38  21
  -6   2  -8-131.756 1501.29  24
   6   2  -8 280.978 430.204   1
   2   6   8 155.702 549.940   3
   6   2  -8 331.033 771.815  12
   6  -2   8 760.046 452.143   1
   2  -6   8 332.356 540.146  23
  -6   2   8 3221.88 3351.22   3
   6  -2  -8 257.507 465.259  23
  -6  -2   8 704.904 1074.63  19
  -2  -6   8 243.332 633.727  19
   6   2   8 435.125 546.902  18
   2   6  -8-1296.63 1771.83  24
  -2   6  10 5583.79 2441.62   3
  -6   2  10 6965.18 2052.88  19
   6   2 -10 7710.23 2562.67   2
  -6  -2 -10 1357.22 1149.91  21
  -2  -6 -10 4765.38 1997.85  21
  -6   2  10 9087.63 4165.25   3
   2  -6  10 6328.02 1901.64  23
  -2  -6  10 6706.37 1968.21  19
  -6  -2  10 7891.26 2363.63  19
   6  -2  10 5771.93 1969.59  18
   6   2  10 8171.29 2296.57  18
   2   6  10 8295.01 2432.52  18
  -2   6  10 7136.16 2335.02  18
  -2  -6 -10 3685.85 2685.60  10
   2  -6 -10 9215.87 4302.05  10
   6  -2  10 6720.97 2887.71   9
   2   6 -10 2828.42 2476.11  24
   6  -2  10 7236.81 1843.56  23
   2   6 -10 8136.26 2724.60  22
  -6   2  10 6309.29 2155.84  11
   6  -2 -10 5712.25 2282.02   2
  -6  -2  10 5688.63 2045.37  11
  -2   6 -10 7252.87 4353.35  24
   6   2 -10 7458.83 2727.84  12
   2   6  10 7224.81 2408.43   3
   6   2  10 5830.06 1973.14   3
  -6   2 -10 3978.49 3220.18  24
   2  -6  10 6384.05 2390.76  18
   6   2  10 5866.37 1867.44   1
  -2  -6  10 4903.70 1768.55  18
  -6  -2 -10-3645.19 2700.38  10
  -2   6 -10 6847.88 2398.96  22
   6  -2  10 4993.24 1995.70  20
  -2  -6 -12-573.685 1857.76  10
  -6  -2 -12-2186.58 2252.84  21
   6   2  12 3441.51 1508.31  18
  -6  -2  12 2464.61 1531.19  19
  -2  -6  12 2364.86 1336.09  19
  -6   2  12 2705.79 1475.75  19
  -6   2 -12 1586.98 596.193   7
   6  -2 -12 1787.87 1617.30   2
  -6  -2 -12 2446.88 639.342   7
   2  -6  12 1463.83 1337.36  18
   6  -2  12 2548.47 1653.53  18
  -2  -6 -12 2663.30 632.768   7
  -2   6  12 2623.22 1475.00  18
   2   6  12 1189.90 1091.97  18
   2  -6  12-185.726 503.691  23
  -6  -2  12 1270.61 1284.03  11
  -2   6 -12 2687.25 588.191  14
  -2   6 -12 520.397 2209.73  24
   2   6 -12 3000.07 721.368  14
   6   2 -12 1783.42 1872.32  12
   2  -6 -12 4103.56 1829.36  10
  -6   2  12-940.059 1003.33  11
   6   2 -12 1787.10 441.629   8
   2   6 -12-241.178 1327.64  24
   2  -6 -12 1587.59 628.299   8
  -6   2 -12 1413.58 2239.63  24
   6   2  12 823.210 880.772   3
   6  -2  12 1809.33 1054.85  23
   2   6  12-865.606 996.887   3
   6   2 -12 1052.52 1562.01   2
  -2   6  12 4949.82 2514.10   3
   6  -2 -12 2399.66 553.279   8
  -2   6  14 24265.1 5928.87   3
   6   2 -14 20895.6 1608.86   8
   2  -6 -14 19311.2 1758.42   8
  -6   2  14 29531.7 5144.08  19
   6  -2 -14 23869.9 1792.12   8
  -6  -2  14 31110.6 5416.47  19
   2   6  14 23751.1 4911.15  18
  -6   2 -14 22800.5 2007.39   7
   6   2  14 23778.3 4431.24   3
  -2  -6  14 20514.0 4026.56  19
  -2  -6 -14 27076.0 2134.92   7
   2  -6  14 18729.6 4184.64  18
   6  -2  14 20622.2 4330.90  18
  -2   6  14 23641.2 4824.78  18
  -2  -6 -14 23594.6 1986.94  17
  -2  -6 -14 22467.5 8029.97  10
   2  -6 -14 19459.1 5044.56   2
   2   6 -14 30918.8 2337.01  14
   6   2 -14 33277.9 2465.02  14
  -6   2 -14 19430.4 6955.10  24
   2  -6  14 22142.3 4092.17  23
   6  -2 -14 18488.6 4450.15   2
  -6  -2 -14 14360.0 5937.16  24
   2   6  14 24406.1 5164.35   3
   6   2 -14 23161.2 5399.82  12
  -2  -6  14 26081.9 4933.92  11
  -6  -2  14 29474.2 5569.25  11
  -6   2  14 26935.7 5164.77  11
  -6  -2 -14 26189.5 2178.71   7
  -2   6 -14 11846.8 5754.19  24
   6   2  14 23428.1 4602.49  18
   6  -2  14 17519.4 3362.48  23
   6   2 -14 20719.4 4444.96   2
   2  -6 -14 24793.9 8116.30  10
  -6  -2 -16 8781.31 1332.73   7
  -2  -6 -16 9997.46 1313.10   7
  -2  -6 -16 7486.59 1112.99  17
   6   2 -16 9355.54 1023.13   8
   6  -2 -16 10610.5 1163.58   8
   2   6 -16 10050.2 1253.60  14
  -6   2 -16 8125.92 1169.85   7
   6   2 -16 9357.42 1173.10  14
   6  -2 -18 1982.12 552.807   8
  -6   2 -18 1838.99 594.246   7
  -6  -2 -18 1605.71 603.268   7
  -2  -6 -18 2336.54 629.357   7
  -2  -6 -18 1135.92 497.210  17
   2  -6 -18 860.605 343.814  17
  -6   2 -18 946.554 551.033   4
   2   6 -18 1274.89 390.165  14
   6   2 -18 1555.75 432.018  14
   6   2 -18 2415.26 524.017   8
   6  -2  18 1361.28 413.507  25
   2  -6 -18 2257.59 618.091   7
   6   2 -20 1267.23 358.096   8
   6  -2 -20 875.244 349.637   8
  -6   2 -20 1179.59 435.517   7
  -6  -2 -20 1020.32 387.828   7
  -2  -6 -20 1184.90 443.859   7
   6  -2 -20 1370.25 397.843   7
   2   6  20 2931.55 840.017   5
   6   2  20 2556.42 712.190   5
   2  -6 -20 967.180 352.452   7
  -6   2 -20 645.309 425.938   4
   6   2  22 151.896 184.564  25
  -6  -2 -22 18.5785 170.099   7
  -2  -6 -22-40.1678 145.699   7
   2  -6 -22 127.215 192.345   7
   6  -2 -22-51.6311 150.856   7
  -6   2 -22 282.051 302.940   4
  -6  -2 -22-444.306 360.822   4
   6   2  22-134.370 253.777   5
   2   6  22-645.779 403.113   5
  -3   6   1 5850.63 2218.57   3
  -6  -3   1 11596.6 2185.67  19
   3   6  -1 7172.69 1693.16   1
  -3   6  -1 5156.25 2324.33   3
   3   6   1 7105.71 1859.09   1
  -3  -6  -1 9359.66 2544.99  21
   6  -3   1 9153.99 3309.39  20
  -6   3   1 10445.1 1907.10  19
  -6   3   1 6588.01 3382.86   3
   3   6   1 7253.40 2117.56  22
  -6  -3  -1 6745.75 2489.56  10
  -3  -6  -1 6562.79 3151.23  10
   3  -6  -1 5430.05 2583.50  20
   6  -3  -1 7884.50 1564.34   2
   3  -6   1 6842.56 2921.03  20
  -6  -3  -1 10852.9 2177.84  19
   3  -6   1 9937.17 1650.49  23
   6  -3   1 7624.07 1237.38   2
  -6   3   1 5297.63 1551.63  11
  -3  -6   1 10832.0 1537.12  19
  -6   3  -1 8260.16 1909.79  22
   6  -3  -1 6632.51 2818.62  20
   6   3  -1 8466.59 2070.24   1
  -6  -3  -1 8198.88 3013.94  21
   3   6   1 8385.61 1723.73   3
   3   6  -1 7323.90 1448.51   3
   6   3  -1 8351.50 1999.32   2
   6   3   1 9351.40 2127.76   1
   3  -6  -1 11056.1 1691.16  23
  -6   3  -1 9797.54 1996.37  19
   6   3   1 8524.49 1918.70   2
  -3  -6  -1 10419.4 1543.09  19
   6  -3  -1 6766.68 1396.59  23
  -3   6  -1 5466.59 2930.22  24
  -6  -3   1 7105.92 1694.03  11
   6   3  -1 10901.3 1509.12  23
  -6  -3   1 8889.51 2883.90  21
  -3   6  -1 7414.01 2695.22  22
  -6   3  -1 4243.63 1439.71  11
  -6  -3  -1 3588.96 1335.29  11
  -3   6   1 4722.69 1219.43  11
  -6   3  -1 10227.8 2819.60  24
   6   3   1 10815.5 1353.96  23
  -6  -3   1 9535.58 2978.42  10
  -3  -6   1 7388.95 2820.28  10
   6  -3   1 7998.80 1544.78  23
   3   6  -1 7723.81 2084.72   2
  -3  -6   1 12019.7 2920.49  21
   3  -6  -1 1673.12 1569.84  10
   3   6  -1 9156.67 2516.29  22
  -6  -3   3 14565.0 2472.25  19
  -3  -6   3 15258.6 1956.06  19
  -6   3  -3 14319.9 3682.35  24
   6  -3   3 14272.4 2167.24  23
  -3  -6   3 19143.4 4527.15  10
   3  -6  -3 6711.20 3700.21  20
   3  -6   3 8523.72 3437.14  20
  -3   6  -3 8810.88 3113.14   3
  -6  -3  -3 12322.5 3601.61  21
  -6   3  -3 10954.8 2391.88  19
  -3  -6   3 15547.3 3342.25  21
  -3   6  -3 9241.04 3327.63  24
   6   3   3 17610.9 1890.01  18
   3   6   3 13551.4 2399.29   3
   3   6   3 15901.6 2382.33  18
   6  -3  -3 11134.0 2143.84   2
  -6  -3   3 12440.4 3215.21  21
   3  -6  -3 15400.7 1964.09  23
  -3  -6  -3 16798.3 3466.52  21
  -6  -3  -3 14972.2 2713.22  19
  -6   3   3 10242.2 4213.17   3
   6  -3  -3 14995.0 2196.14  23
   6   3  -3 16321.1 2687.83   1
   3  -6   3 15424.3 2234.02  23
  -3  -6  -3 13611.9 4466.90  10
   6   3  -3 16548.4 2879.57   2
   6  -3   3 12482.1 3553.42  20
   3   6   3 13511.3 2636.51   1
  -6   3   3 11688.0 2341.27  11
   3   6  -3 12857.6 2786.56  22
  -6  -3  -3 14105.8 3796.61  10
   6   3   3 16858.4 3113.12   1
   3   6  -3 11165.2 2268.27   2
  -3   6   3 14529.1 3392.58   3
  -6  -3   3 15250.3 2471.03  11
   6   3   3 17376.8 2655.79   2
  -3   6   3 14467.3 2108.68  11
   3  -6  -3 11164.6 3403.04  10
   3   6  -3 13846.8 2202.16   1
   6  -3  -3 9356.39 3269.90  20
  -3   6  -3 13567.8 3137.29  22
  -6   3   3 11923.8 1973.96  19
   3   6   3 13180.3 3391.63  22
   3  -6  -5 389.177 734.531  21
  -3  -6  -5 1881.04 1431.68  21
   6   3  -5 917.015 726.681   2
   3  -6  -5 991.747 611.691  23
  -6   3   5 436.762 483.892  19
  -6  -3   5-832.388 772.199  21
  -6   3   5 1626.04 1850.34   3
  -3  -6   5 1825.51 939.840  19
   6  -3  -5 1779.41 1378.74  20
  -3  -6   5 668.881 679.825  21
   3   6  -5 733.840 828.870   2
  -6  -3  -5 706.168 695.637  19
   6   3   5 1251.21 932.555   1
  -6  -3  -5 424.497 1413.83  21
   6   3   5 1122.18 572.817  18
   3   6   5 608.864 614.264  18
   3  -6   5 452.889 1036.10  20
  -3   6  -5 469.426 909.398  22
  -6  -3   5 1743.84 871.330  19
   6  -3  -5 1589.98 898.639  23
  -6  -3   5 54.2302 646.519  11
   3   6  -5 17.9250 747.860  22
  -6  -3  -5 1314.44 1459.67  10
  -3   6  -5-413.740 1435.69  24
   6  -3   5 669.904 979.124  20
  -3   6   5 312.849 228.812  11
   3   6   5 610.107 727.890   3
  -6   3   5 120.949 456.468  11
   3   6   5 1305.39 952.561   1
   3   6  -5 1612.08 686.343   1
  -3   6   5 728.582 1021.00   3
   3   6  -5 1052.76 1605.20  24
   6   3  -5 296.646 738.039  12
   6  -3  -5 1179.80 973.102   2
   3  -6   5 1178.25 875.622  23
   6   3  -5 725.314 752.631   1
   3  -6  -5 54.4861 1615.23  20
  -6   3  -5 1321.80 1771.34  24
   3   6   5 1498.91 1592.64  22
   6  -3   5 436.852 763.701  18
   6  -3   5 792.433 389.020  23
   3  -6  -5 1093.80 936.140  10
  -3  -6  -5 1480.96 1553.29  10
   6   3   7 7156.51 2073.02   3
  -3  -6  -7 6630.37 2527.39  21
  -3   6   7 7232.08 2871.59   3
  -3  -6   7 3036.08 1486.76  21
  -3   6  -7 6541.15 2134.13  22
   6   3  -7 7233.94 2200.26   2
  -6  -3   7 7077.28 1961.79  19
  -3   6  -7 3324.27 2944.57  24
  -3  -6  -7 6264.33 3592.89  10
  -3   6   7 4067.03 1300.08  11
  -6   3   7 5488.86 1533.28  19
   3   6  -7 3995.71 1581.78   2
  -3  -6   7 2915.29 1174.08  18
   6   3   7 3800.92 1379.12  18
   3   6   7 4592.86 1555.56  18
  -3   6   7 4680.60 1672.77  18
  -6   3   7 9001.54 4166.90   3
  -6  -3   7 5806.11 1880.04  11
   6   3   7 8074.18 2124.31   1
  -6  -3  -7 4137.78 2751.37  10
   6  -3   7 5778.09 1584.13  23
   3   6  -7 5714.24 2180.41  22
  -3  -6   7 5347.23 1619.13  19
   6  -3   7 6297.19 1693.48   1
   3   6   7 8170.76 2265.11   1
   3  -6  -7 5826.09 1430.42  23
  -3  -6   7 3254.55 1268.48  11
   6   3  -7 7478.12 2345.09  12
  -6  -3  -7 5250.34 2832.68  21
   6  -3  -7 5318.34 1480.97  23
   3  -6  -7 3556.79 2796.78  20
   6  -3   7 5109.75 1769.51  18
  -6   3  -7 4689.34 2434.27  24
   6   3  -7 3588.29 1198.55   1
   6  -3   7 5996.67 2375.63  20
   6  -3  -7 8382.77 2455.78   2
   3   6   7 6805.55 2191.69   3
  -6   3   7 3958.72 1509.68  11
   3  -6   7 5257.90 1589.70  23
   3  -6  -7 3572.60 1278.70  21
   3  -6   7 3745.21 2107.91  20
   3  -6  -7 3178.18 2425.27  10
   3   6  -7 2311.92 2209.66  24
   6  -3  -7 7961.35 2414.72  20
   3   6   9 1136.25 1228.48   1
   6  -3   9-1118.41 1303.40   9
  -3  -6  -9 157.503 1270.61  21
   6  -3  -9 465.490 1116.54   2
  -6   3   9-217.469 965.087   3
   3  -6  -9 1692.65 1761.72  20
   6  -3   9 132.794 461.242  20
   3   6  -9 1181.01 861.038   2
  -3  -6   9-77.1560 502.691  19
  -6  -3   9 1212.71 872.348  19
  -6   3   9 1029.17 727.391  19
   3  -6   9 180.123 510.918  18
   6  -3   9 452.237 980.616  18
   6   3   9 351.057 382.655  18
   3   6   9 1018.33 910.709  18
  -3   6   9 672.812 750.648  18
   3   6  -9 837.888 798.462  22
  -3  -6  -9 4319.12 3246.47  10
  -3   6   9 713.662 633.118  11
   3   6  -9 418.995 1272.59  24
  -3  -6   9-230.271 455.065  11
  -6  -3   9 125.140 553.393  11
   3  -6  -9-920.972 1673.62  10
  -6   3   9 412.889 471.790  11
   6   3  -9 28.3605 843.442  12
   6   3  -9 994.909 1193.19   2
   3   6   9-100.442 547.707   3
  -6  -3  -9 203.155 956.844  21
  -3   6  -9-1120.08 1997.04  24
  -6  -3  -9-2195.13 2228.60  10
   6   3   9 1089.19 1098.67   3
  -6   3  -9-3611.08 2726.92  24
   6   3   9 1242.70 917.117   1
   3  -6   9 1095.88 1012.39  20
   6  -3   9-478.483 547.531  23
   3  -6   9 892.574 971.991  23
  -3   6  -9 1457.40 827.306  22
  -3   6   9 1883.05 1588.86   3
  -3   6  11 7.65693 1847.34   3
   6   3 -11 870.586 958.386   2
  -6  -3  11 1192.43 838.203  19
  -6   3  11 2707.94 2654.41   3
   6  -3 -11 1347.40 431.381   8
  -6  -3 -11 1383.84 1882.07  21
   6  -3  11 2228.12 1375.73  20
  -3  -6  11 343.174 632.883  11
  -6   3  11-116.635 732.852  11
  -3  -6  11-150.823 503.737  19
  -6   3  11 714.138 1062.10  19
   3  -6 -11 633.630 1038.82   2
   6   3  11 4069.88 1627.11   1
  -6   3 -11 977.979 405.061   7
  -6  -3 -11 1730.30 567.270   7
   3  -6  11 1696.72 1568.66  18
   3  -6  11 733.752 477.084  23
   6  -3  11 2074.54 1319.66  18
  -3  -6 -11 1346.89 486.712   7
   6   3  11 1315.25 1196.53  18
   3   6  11 800.811 1370.03  18
   6  -3  11-80.3439 565.665   9
  -6  -3 -11 1447.61 548.208  17
   6  -3 -11 1566.63 1362.42   2
   6   3  11 75.5233 499.152   3
  -3  -6 -11 1266.71 587.261  17
  -3   6 -11 1688.17 604.422   4
  -6   3 -11 1769.90 580.211   4
  -3  -6 -11 3995.04 2290.68  21
  -3   6 -11 734.548 2769.03  24
   3   6  11 29.4339 504.087   1
   3   6  11-480.329 800.128   3
   3   6 -11 4715.81 3656.04  24
   6   3 -11 591.280 1258.45  12
  -3  -6 -11 1777.58 2298.65  10
   3  -6 -11 308.386 1319.26  10
  -3   6  11 751.936 911.171  18
  -6   3 -11 3391.55 2962.31  24
   6   3 -11 1412.79 471.505   8
   6  -3  11 2487.20 1208.55  23
  -6  -3 -11 6722.79 3942.31  10
  -6  -3  11-158.830 584.083  11
  -3   6  13-1012.01 1367.63   3
  -6  -3 -13-1845.20 2121.33  21
   6  -3 -13-182.196 267.329   8
   3  -6 -13-245.065 373.172   8
   6   3 -13-388.782 468.597   8
   3  -6 -13 92.9734 745.370   2
  -3   6  13 1754.10 1298.52  18
  -3  -6  13-1833.65 1259.46  19
  -6  -3  13 416.222 869.217  19
  -6   3  13-862.399 951.414  19
  -6   3 -13 106.331 256.851   7
  -6  -3 -13 39.3962 283.444   7
   3  -6  13-1842.45 1355.36  18
  -3  -6 -13 562.098 392.575   7
   6  -3  13 222.767 571.751  18
   6   3  13-1210.86 1087.20  18
   3   6  13-545.305 781.981  18
  -6  -3 -13 32.1281 232.272  17
  -6   3 -13-2302.87 2536.18  24
  -3  -6 -13-82.4220 220.960  17
  -3  -6 -13-4071.36 3615.77  10
  -3   6 -13 301.253 501.472   4
   6   3  13-634.464 815.172   3
   6   3 -13-459.425 773.142   2
   3  -6  13-144.558 436.778  23
  -3  -6  13-495.275 812.683  11
   6  -3  13 3231.48 1460.84  23
  -6   3  13 1676.94 1123.08  11
   3   6 -13-165.940 461.546  14
  -6  -3  13-384.953 735.959  11
   6   3 -13-302.900 805.585  12
   3   6  13 915.281 1504.92   3
  -3   6 -13 2453.19 2919.76  24
  -6   3 -13-127.002 490.908   4
   6  -3 -13 1373.60 597.504   2
   6  -3 -15 16455.1 1463.54   8
  -3   6 -15 15841.8 1805.86   4
   6   3 -15 14150.0 1279.94   8
  -6  -3 -15 15258.1 1711.80   7
  -6   3 -15 12627.2 1514.83   7
  -3  -6 -15 13827.5 1544.86  17
   3  -6 -15 13404.3 1438.03   8
  -6   3 -15 15443.7 1892.29   4
  -3  -6 -15 16446.4 1695.34   7
   3   6 -15 16624.1 1723.39  14
   6   3 -15 17155.2 1716.06  14
   6  -3  15 13622.2 1304.14  25
   6   3 -17 1234.84 428.407   8
  -6   3 -17 643.905 407.608   7
  -6  -3 -17 909.088 430.774   7
  -3  -6 -17 967.527 445.342   7
   6  -3 -17 1363.14 535.843   8
  -3  -6 -17 381.096 213.222  17
  -3   6 -17 732.723 532.123   4
  -6   3 -17 1022.95 560.549   4
   3   6 -17 313.508 358.986  14
   6   3 -17 205.166 274.372  14
   3   6  19 2947.95 820.537   5
  -3  -6 -19 2239.71 590.183   7
   6  -3 -19 1697.12 447.085   8
  -6   3 -19 1662.20 546.401   7
  -6  -3 -19 2413.02 697.820   7
   6   3  19 2592.37 816.243   5
   3  -6 -19 1056.25 452.460   7
  -3  -6 -19 1729.08 450.320  17
  -6   3 -19 1726.15 623.558   4
   6   3 -19 1742.42 437.653  14
   6   3 -19 2084.10 438.546   8
   6   3  21 2463.89 577.273   5
   6   3 -21 1822.33 341.793   8
  -3  -6 -21 2577.56 544.516   7
   3   6  21 2817.76 635.730   5
  -6  -3 -21 2533.84 520.215   7
   6  -3 -21 2066.39 418.509   7
  -6   3 -21 2542.64 606.840   4
   3  -6 -21 2668.63 513.443   7
  -6   4   0-307.348 1486.81   3
  -4  -6   0 1514.37 1290.78  21
  -4  -6   0 1603.03 848.660  19
   4  -6   0-419.070 1146.47  20
  -6  -4   0 1446.14 852.088  19
  -6   4   0 2062.66 975.090  19
   6   4   0 1549.05 976.251   2
   4   6   0 576.925 874.306   2
   6  -4   0 1506.00 794.419  23
  -4   6   0 499.259 1085.07  24
  -4   6   0 427.665 1029.48  22
  -6   4   0 1687.12 1230.47  24
  -6  -4   0 394.659 1786.83  10
   6  -4   0 615.264 1204.25  20
   4   6   0 1029.78 830.741  22
  -4  -6   0 878.172 1754.41  10
   4   6   0 1162.71 614.515   3
   6   4   0 2424.54 999.772  22
   4  -6   0 411.796 448.762   2
   4  -6   0 1564.28 716.469  23
  -6   4   0 967.022 965.190  11
  -6  -4   0 1706.82 868.900  11
   4   6   0 434.280 502.177   1
   6   4   0 780.018 878.115   1
  -6  -4   0 1096.17 673.996  21
   6  -4   0 531.795 402.478   2
  -4   6   0 800.229 1385.54   3
  -6  -4   2 24263.0 4489.09  21
   4   6  -2 21823.2 2996.48   1
  -4  -6  -2 25087.9 4503.10  21
   6  -4  -2 16499.2 4325.00  20
   4  -6  -2 13248.2 3421.21  10
  -6  -4   2 23983.8 3246.50  19
  -6  -4   2 24035.3 3042.89  11
   6  -4   2 19335.7 2585.71  23
   4   6   2 16522.7 3318.90  22
  -4  -6   2 21669.4 4035.51  21
  -4  -6   2 23946.0 2697.31  19
  -6  -4  -2 22751.4 3330.40  19
  -6   4  -2 22074.5 3161.04  19
  -4  -6  -2 21052.7 2656.10  19
  -6  -4  -2 19080.3 4448.35  21
  -6  -4  -2 20324.8 4959.74  10
   6  -4  -2 20439.0 2845.22   2
  -6   4  -2 20589.4 3103.14  22
  -4   6  -2 15465.3 3647.03  22
   4  -6   2 17761.0 5030.95  20
  -6   4  -2 18631.6 4436.24  24
   6   4  -2 19833.2 2768.29  22
   4   6   2 21691.6 2985.19   3
   4  -6  -2 19552.7 2417.46  23
  -6   4   2 20707.2 2649.37  19
   4   6  -2 21664.0 2336.46   3
  -4  -6  -2 18888.2 4987.60  10
   6   4  -2 23024.5 3530.52   2
   4   6   2 26392.2 3641.14   1
   6  -4   2 15022.0 4085.19  20
   6   4  -2 26569.5 3566.08   1
  -4   6  -2 15042.1 4721.16  24
   4   6  -2 23419.0 3409.29   2
   6   4   2 24780.8 3730.46   1
   6   4   2 23517.5 3363.40   2
  -6   4   2 21120.2 3183.07  11
  -6   4   2 15704.3 5315.62   3
  -4   6   2 23282.0 3046.25  11
   4  -6  -2 13393.1 4663.85  20
  -4   6   2 14919.5 4122.80   3
  -4   6  -2 15474.0 4159.71   3
  -6  -4   2 27066.5 5508.62  10
  -4  -6   2 25857.7 5456.96  10
   4  -6   2 20770.4 2596.02  23
   4   6  -2 15833.5 3113.97  22
   6  -4  -2 20369.1 2570.86  23
  -6  -4   4 56100.6 6568.92  21
   4  -6   4 40706.5 7446.24  20
   4   6  -4 54590.0 4383.85   1
   4   6   4 47555.3 4249.50  18
   4   6   4 58565.6 5681.93   1
   4  -6  -4 30822.0 6508.05  20
   6  -4  -4 40513.2 6840.78  20
   6  -4   4 48250.2 7421.16  20
   6  -4  -4 47911.5 5147.10   2
  -6  -4  -4 50919.7 5304.24  19
   4  -6  -4 33681.1 6274.92  10
  -4  -6   4 55710.6 4474.03  19
  -6   4  -4 44173.8 4841.41  19
   6   4   4 57982.8 4006.45  18
  -4   6  -4 47822.9 5637.96  22
  -4  -6  -4 56698.0 7144.46  21
   6   4   4 59959.1 5822.38   1
   6   4   4 60694.8 5633.73   3
  -6  -4  -4 48578.0 7432.26  21
   4   6   4 57611.9 5322.39   3
   6  -4  -4 49194.9 4117.49  23
   4  -6   4 50155.5 4355.23  23
   4  -6  -4 49306.8 3899.38  23
  -6   4   4 53816.4 9243.76   3
  -6  -4   4 58424.4 5311.61  19
   6   4  -4 50276.3 4769.96   1
   4   6  -4 52076.6 5182.33   2
   6  -4   4 50445.6 4338.96  23
   6   4  -4 57714.0 5793.61   2
  -6  -4   4 57026.0 5031.58  11
  -6   4   4 46917.9 4826.34  11
  -4   6   4 47267.5 4229.91  11
  -4   6   4 46440.1 6900.54   3
  -4   6  -4 44867.7 8420.81  24
  -6   4  -4 47440.4 7693.62  24
  -4  -6   4 69202.2 9357.34  10
  -6  -4  -4 48771.3 8158.92  10
  -4  -6  -4 51751.3 8625.17  10
  -6   4   4 46046.4 3976.20  19
   4   6  -4 43667.3 5226.87  22
   4   6   4 45826.3 5846.44  22
  -4  -6   4 55234.3 6393.90  21
  -6  -4  -6 39851.8 7193.78  21
   6  -4   6 45648.1 6984.83  20
   4  -6  -6 35321.2 4049.03  21
  -4  -6  -6 46887.6 6923.85  21
   4  -6  -6 28070.7 6446.34  20
  -6   4   6 44107.3 4172.60  19
  -6  -4   6 55758.0 5612.77  19
  -4  -6   6 51346.9 6230.70  21
  -6  -4  -6 31023.0 6560.00  10
   6  -4   6 37253.6 4655.96  18
   6   4   6 44259.3 4180.48  18
   6  -4  -6 35115.4 5969.87  20
   6  -4  -6 43846.3 5470.66   2
   4   6   6 41101.9 4352.15  18
   6  -4   6 42874.4 4298.70  23
   4  -6  -6 33324.5 6631.39  10
  -4   6  -6 47781.1 5617.94  22
   4  -6   6 32965.9 6449.68  20
   6  -4  -6 43762.4 4114.23  23
   6   4   6 49004.0 5377.46   3
   4   6   6 43028.3 5321.50   1
   4   6   6 42846.2 5248.19   3
  -4  -6  -6 36857.7 7537.83  10
  -6   4   6 38700.6 8387.52   3
   4   6   6 22890.2 4280.98  22
  -4  -6   6 47701.0 4608.54  19
   4   6  -6 41117.3 4852.58   2
   6   4  -6 42052.2 4160.91   1
  -6  -4   6 49729.7 5134.31  11
  -6   4   6 44450.3 5001.92  11
  -4   6   6 43939.0 4410.71  11
  -4   6   6 40993.0 6972.04   3
   4  -6  -6 45022.7 3935.79  23
  -4   6  -6 40802.0 8308.93  24
  -6   4  -6 48964.9 8727.40  24
   4  -6   6 46301.1 4539.04  23
   6   4  -6 45536.5 5429.96   2
   6   4   6 49218.5 5448.39   1
   4   6  -6 47294.2 5688.12  22
  -4   6   8 26027.0 5745.53   3
  -4  -6  -8 19492.6 6626.04  10
   4  -6   8 25114.8 5323.15  20
   6  -4   8 26379.6 5098.75  20
  -6   4   8 22477.1 6336.35   3
  -4  -6  -8 23479.1 5300.88  21
   4   6   8 24679.9 4161.62   1
   4  -6   8 26585.2 3723.15  23
  -4  -6   8 30115.9 4180.21  19
  -6  -4   8 32463.6 4734.91  19
  -6   4   8 24884.5 3378.11  19
   4  -6  -8 21744.9 4485.25   2
   4  -6   8 25747.7 4248.69  18
   6  -4   8 24071.7 4059.18  18
   6   4   8 30946.4 4048.67  18
   6  -4  -8 23906.9 4396.16   2
   4   6   8 26846.6 3933.87  18
  -6  -4  -8 22895.8 6539.77  10
   4  -6  -8 26648.3 3243.36  23
   6   4   8 28598.9 4306.83   1
   4  -6  -8 17619.1 5435.41  10
   6   4  -8 26738.0 4384.73   2
   6   4   8 29503.8 4498.81   3
   4   6   8 26415.1 4380.22   3
   4  -6  -8 16526.3 5075.18  20
   4   6  -8 30973.7 4930.14  22
   4   6  -8 23349.7 4035.11   2
  -4   6  -8 22919.4 7008.19  24
   6   4  -8 25594.2 4536.63  12
  -6  -4   8 34157.6 4737.06  11
  -6   4   8 31465.9 4555.27  11
  -4   6   8 31359.2 4079.45  11
   4   6  -8 12130.8 4752.36  24
  -6   4  -8 28041.0 7064.55  24
   6  -4  -8 26469.2 3432.51  23
   6  -4   8 25186.4 3487.09  23
  -4   6  -8 31451.0 4618.11  22
  -6  -4  -8 16419.5 4986.20  21
  -4   6  10 20531.7 5696.18   3
  -6   4  10 17776.2 5882.93   3
   6  -4  10 17733.8 3928.38  20
   4  -6  10 19987.1 4025.68  18
   4  -6  10 15520.2 3118.21  23
  -4  -6  10 21249.3 3814.30  19
  -6  -4  10 25497.1 4604.13  19
  -6   4  10 19634.7 3302.27  19
  -4   6 -10 25625.9 2288.50   4
  -6   4 -10 25702.5 2341.98   4
  -6  -4 -10 27304.1 2078.18   7
   6  -4  10 19088.2 3810.03  18
   6   4  10 20697.6 3732.73   1
   6   4  10 20275.7 3673.57  18
   4  -6 -10 18396.9 5825.24  10
   4   6  10 20433.6 3848.42  18
  -4  -6 -10 19549.9 5273.66  21
   6  -4 -10 19769.3 4315.28   2
  -4   6  10 20069.4 3919.17  18
   4   6  10 17825.2 3869.50   1
  -6  -4 -10 20007.2 1846.73  17
  -4  -6 -10 24400.7 1990.49  17
  -4   6 -10 13412.0 5389.02  24
   6  -4  10 18568.7 4891.19   9
   6   4 -10 20614.2 4062.76   2
   6   4  10 21454.2 4173.10   3
   4  -6 -10 16111.6 4128.48   2
   4   6  10 19947.5 4128.04   3
   4   6 -10 20245.4 3820.69   2
   6  -4  10 18226.8 3242.10  23
   6   4 -10 20717.4 4450.85  12
  -6  -4  10 26859.6 4705.31  11
  -6   4  10 19585.3 3921.65  11
  -4   6  10 20952.9 3591.18  11
  -6   4 -10 20867.2 1864.67   7
  -6  -4 -10 18598.0 5600.32  21
  -6   4 -10 19200.3 6052.08  24
  -4  -6 -10 13872.2 5929.61  10
  -6  -4 -10 16506.1 5947.29  10
   6   4 -10 22154.8 1501.24   8
  -6  -4 -12 3719.56 2781.38  21
  -4  -6 -12 347.509 1138.83  21
   4   6  12 921.863 1076.72   1
   6  -4 -12 7268.33 962.718   8
  -6  -4 -12 7954.19 1181.24   7
   6   4 -12 6056.14 836.653   8
   6   4  12 6783.84 2456.64   3
   6   4 -12 4299.65 1992.95   2
  -6   4  12 1818.13 2389.45   3
   4   6  12 5845.62 2397.09   3
  -6   4 -12 5751.09 1091.06   7
  -4  -6  12 7963.21 2593.28  19
  -6  -4  12 7375.99 2758.72  19
  -6   4  12 4684.15 1980.07  19
  -4   6  12 1761.78 1911.47   3
   6   4  12 5644.36 2125.47  18
   6  -4  12 4286.95 1984.17  18
   4   6  12 6700.16 2592.78  18
  -4  -6 -12 6832.17 1128.39  17
  -4   6 -12 7952.08 1361.69   4
  -6  -4 -12 2453.04 2616.86  10
  -6   4 -12 7174.27 1273.19   4
  -6  -4  12 5380.56 2310.83  11
  -4  -6 -12 8476.25 1182.20   7
  -6   4  12 4488.72 2208.54  11
   4  -6 -12 6019.23 935.913   8
   6   4 -12 4258.38 2105.98  12
   6  -4  12 4253.37 1661.32  23
   4  -6 -12 3449.10 2052.84   2
  -4   6 -12-91.5515 1384.68  24
  -6   4 -12 2224.40 2749.63  24
   4  -6  12 5411.79 2172.98  18
  -6  -4 -12 4592.95 933.575  17
   6  -4 -12 7243.27 2788.86   2
   4  -6  12 3826.06 1655.78  23
  -4  -6 -12 1275.02 2464.41  10
  -4   6  12 5412.60 1975.30  18
   6   4 -14 601.333 250.534   8
   4  -6 -14 1193.05 453.669   8
   6  -4 -14 1442.93 512.120   8
  -6   4 -14 825.127 445.021   7
  -6  -4 -14 908.233 529.863   7
  -4  -6 -14 1631.01 581.637   7
  -4  -6 -14 1950.30 683.257  17
  -4   6 -14 780.019 480.492   4
  -6   4 -14 1490.50 562.980   4
   4   6 -14 2002.90 724.464  14
   6   4 -14 1458.14 550.387  14
  -6  -4 -14 999.802 443.319  17
   4  -6 -16 12461.2 1332.77   8
  -6   4 -16 14930.0 1879.73   4
   6  -4 -16 15622.9 1415.33   8
  -6   4 -16 12692.7 1466.92   7
   6   4 -16 13150.6 1170.47   8
  -4   6 -16 14908.6 1779.74   4
  -6  -4 -16 15087.2 1686.84   7
   4   6 -16 13723.4 1487.91  14
   6   4 -16 13640.5 1481.42  14
  -4  -6 -16 15209.7 1637.44   7
  -4  -6 -16 10439.5 1355.78  17
  -4   6 -18 7104.07 1129.24   4
  -6   4 -18 5543.92 891.614   7
  -6  -4 -18 7143.85 1103.18   7
  -4  -6 -18 6186.02 976.508   7
  -6   4 -18 6055.76 1159.29   4
   4   6 -18 6197.88 921.450  14
   6   4 -18 5439.13 813.977  14
   4   6  18 9393.14 1365.63   5
   6   4  18 7870.77 1215.17   5
   6   4 -18 6942.23 777.972   8
   6  -4 -18 6534.60 877.417   8
  -4  -6 -18 4321.75 803.094  17
  -6   4 -20 5803.95 969.685   4
   6   4 -20 5041.15 595.351   8
  -4  -6 -20 7034.15 920.187   7
   4  -6 -20 5303.14 765.485   7
   6  -4 -20 4904.33 707.795   7
   4   6  20 7810.33 1067.69   5
   6   4  20 6490.55 942.020   5
  -6  -4 -20 6284.31 912.941   7
   4   6  22 4169.78 607.601   5
  -6  -4 -22 3221.40 514.926   7
  -6  -4 -22 4059.31 654.105   4
   4  -6 -22 3142.46 450.116   7
   6  -4 -22 2668.92 391.190   7
  -4  -6 -22 2728.56 417.224   7
  -6   4 -22 2658.05 492.903   4
   6   4  22 2522.31 390.773  25
   6   4  22 3624.14 546.719   5
  -6  -5  -1 34416.5 6108.59  21
  -6  -5   1 38686.2 6010.18  21
   6   5   1 29876.3 3404.81  22
  -5   6  -1 22983.4 4388.78  22
   5  -6   1 28440.2 6595.80  20
   6  -5  -1 28129.4 6291.74  20
   6  -5   1 26933.8 5992.61  20
   5   6  -1 36337.8 4289.89   1
   6  -5  -1 29974.2 3204.40   2
  -5  -6  -1 39562.8 6053.14  21
  -5  -6  -1 38952.3 3997.36  19
   5   6  -1 31875.0 4171.10  22
   5  -6  -1 29130.8 3346.59   2
  -5  -6   1 40106.7 6005.69  21
  -6   5   1 16166.3 5596.43   3
   5  -6  -1 25284.2 6187.19  20
   6   5  -1 34971.5 3612.83   3
   6   5   1 33926.3 3939.64   3
   5  -6  -1 36363.1 3547.46  23
  -6  -5  -1 34253.3 6721.38  10
   5   6   1 35883.9 3916.40   3
   6   5  -1 33079.1 3809.27  22
   5   6  -1 36696.3 3513.13   3
   6  -5   1 34098.9 3527.96  23
   6  -5  -1 35943.8 3547.99  23
  -5   6   1 28071.5 6078.55   3
  -6  -5   1 43805.0 4541.81  19
  -5  -6   1 39594.5 7222.76  10
  -5   6  -1 26712.3 5969.96  24
  -6  -5   1 41085.3 7189.51  10
  -6  -5  -1 41493.2 4486.86  19
   5  -6   1 36205.0 3583.80  23
   6   5  -1 35772.2 4519.00   2
   5   6  -1 35171.0 4384.97   2
   6   5   1 38421.7 4561.42   2
  -6   5   1 35020.5 4293.69  11
  -5   6   1 34170.6 4093.78  11
   6   5  -1 37275.4 4395.27   1
  -6   5  -1 27021.4 3971.40  11
  -6   5  -1 25126.0 5441.57  24
  -5   6  -1 22643.9 5400.99   3
   6   5   1 36410.5 4496.62   1
  -6   5  -1 22451.9 6098.97   3
  -5  -6  -1 34962.7 7059.92  10
  -6   5  -1 41903.0 4197.53  19
   5   6   1 36279.3 4527.88   1
   5   6   1 33283.1 4309.96  22
  -6   5  -1 27225.8 4409.51  22
  -6   5   1 43019.4 3936.41  19
  -5  -6   1 38846.8 3885.42  19
   5   6  -3 65060.1 5360.04   1
  -5  -6   3 68552.9 7854.62  21
   5  -6   3 51098.9 8422.40  20
   5  -6  -3 50356.3 8816.72  20
  -5  -6   3 75869.7 5647.56  19
  -6  -5  -3 67735.9 6092.27  19
  -5  -6  -3 63493.0 5380.01  19
  -6   5  -3 60845.3 5553.54  19
   5  -6  -3 53528.8 5308.68   2
   6  -5  -3 56137.0 5277.89   2
   5   6   3 75741.4 5018.35  18
  -6  -5  -3 61491.8 8433.44  21
   5  -6  -3 63988.0 4685.30  23
   6  -5  -3 52392.6 8514.80  20
   6   5   3 67468.4 5977.56   3
   6  -5   3 52253.5 8273.73  20
   5   6   3 65944.4 5722.65   3
   5  -6   3 68002.2 5090.73  23
  -6  -5   3 77810.2 8337.71  21
  -5   6   3 54170.1 8696.04   3
   6   5  -3 65340.9 6394.60   2
  -6   5   3 57001.1 9907.60   3
   5   6  -3 63975.2 6067.38   2
  -5  -6   3 81489.0 10772.8  10
  -6   5   3 65094.2 5796.14  11
  -5   6   3 63493.5 5470.19  11
   6   5  -3 62269.9 5513.69   1
  -6  -5   3 95289.9 11443.7  10
  -5   6  -3 41095.5 7237.32   3
  -5   6  -3 47522.3 8385.64  24
  -6   5  -3 47570.5 7530.42  24
   6  -5   3 66546.5 5096.11  23
  -6  -5  -3 71640.0 10014.3  10
  -5  -6  -3 61895.4 9670.44  10
   6   5   3 74236.0 6699.84   1
  -5  -6  -3 65805.8 8171.69  21
   6  -5  -3 62031.7 4741.48  23
  -6  -5   3 75992.9 6098.43  19
   6   5  -3 63920.2 5660.66  22
   5   6  -3 61081.0 6077.53  22
  -5   6  -3 62482.7 6583.28  22
   5   6   3 57438.5 5797.80  22
   5   6   3 67319.5 6411.59   1
  -6   5   3 70897.1 4926.96  19
   5  -6   5 115444. 12581.8  20
  -5  -6   5 169839. 11931.2  21
   5   6   5 147756. 9764.16   1
   5  -6  -5 111537. 13305.7  20
   6  -5  -5 118837. 12602.2  20
  -5  -6  -5 147491. 13011.6  21
   5  -6  -5 145601. 7336.15  23
  -5  -6   5 164856. 9030.41  19
  -6  -5  -5 147905. 9731.74  19
   5  -6  -5 115160. 8873.21   2
   6  -5  -5 122138. 8761.51   2
   6   5   5 150949. 7420.46  18
   5   6   5 153698. 8010.58  18
   5   6  -5 138074. 9322.90   2
   6   5   5 144908. 9653.53   1
   6  -5   5 124231. 12363.6  20
   6  -5   5 140050. 7749.00  23
  -6  -5   5 155787. 11379.5  21
   5   6   5 151465. 9495.35   3
   5   6  -5 147146. 9783.19  22
  -6   5   5 120050. 14360.6   3
   6   5  -5 137650. 7804.91   1
   6   5  -5 144773. 9721.62   2
  -6  -5   5 170497. 9762.80  19
  -6   5  -5 138275. 14542.9  24
   5  -6   5 140364. 7773.77  23
   6  -5  -5 141710. 7431.53  23
  -6  -5   5 176497. 9325.57  11
  -6   5   5 146768. 9026.10  11
  -5   6   5 146935. 8495.06  11
  -5   6   5 123623. 13324.8   3
  -5   6  -5 135906. 15416.2  24
  -6  -5  -5 149029. 13757.3  21
  -6  -5  -5 133303. 14498.4  10
  -5  -6  -5 129455. 14723.5  10
   6   5   5 149166. 9459.06   3
   6   5  -5 150723. 9450.14  22
  -5   6  -5 160671. 9985.38  22
  -6   5   5 139478. 7168.38  19
   5   6  -5 124080. 6934.37   1
   6   5   7 210931. 12047.7   1
   6  -5  -7 158293. 13843.9  20
   5  -6  -7 175230. 11922.9   2
  -5  -6  -7 202007. 16337.5  21
   6  -5   7 180869. 14544.8  20
   5   6   7 200119. 11943.1   1
  -6  -5   7 233100. 12431.4  19
  -6   5   7 189100. 8925.75  19
   6  -5  -7 166450. 11484.6   2
   6   5   7 220706. 10390.8  18
   5   6   7 219715. 10811.1  18
  -5   6  -7 188167. 19447.5  24
   6  -5   7 186867. 9543.86  23
   5  -6  -7 151982. 15261.9  20
   6  -5  -7 191771. 9128.52  23
  -6   5  -7 188667. 18430.0  24
  -6   5   7 164923. 17800.2   3
   6   5   7 214570. 12110.6   3
   5  -6   7 175703. 14781.5  20
   5   6   7 202042. 12023.6   3
   6   5  -7 203531. 12124.2   2
   5  -6   7 190369. 9772.93  23
   5   6  -7 196661. 11527.8   2
  -6  -5   7 246406. 12220.3  11
  -6   5   7 202162. 11359.5  11
  -5   6   7 207011. 10825.3  11
  -5   6   7 183303. 16641.4   3
  -6  -5  -7 179721. 18087.3  10
  -5  -6  -7 179948. 18694.5  10
   5  -6  -7 194333. 8954.80  23
   6  -5   7 168554. 10627.3  18
  -5  -6   7 229108. 11639.2  19
   5   6  -7 200647. 12306.2  22
  -6  -5  -7 192671. 16710.0  21
  -6  -5  -9 98364.6 12769.9  21
   6   5   9 112994. 9163.91   1
  -5  -6   9 118566. 9288.62  19
  -6   5   9 102791. 7175.44  19
   5  -6   9 95988.6 8606.69  18
   5  -6  -9 104145. 10007.4   2
   6  -5  -9 100867. 9643.97   2
   6   5   9 122361. 8790.62  18
   5   6   9 124933. 9099.30  18
  -6  -5  -9 131872. 4775.47  17
  -5  -6  -9 129917. 4709.01  17
   6  -5   9 98718.5 8564.82  18
   5  -6   9 93826.0 9952.09  20
  -6   5   9 109744. 15174.9   3
  -6   5  -9 104329. 15210.6  24
  -5  -6  -9 88333.3 14273.8  10
   6   5   9 117099. 9599.77   3
  -6   5  -9 138878. 5489.75   4
   6   5  -9 115973. 9598.39   2
   5   6   9 120606. 9988.68   3
   6  -5   9 105614. 7750.76  23
   5   6  -9 107414. 9029.98   2
  -6  -5  -9 82661.5 13358.4  10
   5   6   9 128607. 4587.56   5
   6   5   9 122776. 4426.13   5
  -5   6  -9 90940.6 14559.7  24
  -6  -5   9 135468. 10118.6  11
  -6   5   9 121863. 9446.36  11
  -5   6   9 125517. 9100.97  11
  -5   6   9 100229. 13312.0   3
   5   6   9 107391. 9186.00   1
  -5  -6  -9 96315.8 11919.2  21
   5  -6   9 103360. 7804.34  23
  -5   6  -9 139797. 5507.09   4
   6  -5   9 103584. 10205.0  20
  -6  -5   9 128187. 10073.6  19
   6  -5 -11 52785.2 2551.08   8
   6   5 -11 46113.5 2160.53   8
  -6   5  11 40031.9 9522.14   3
  -6   5  11 34414.8 3313.69   6
  -6  -5  11 45722.1 6424.89  19
  -6   5 -11 42005.2 2688.05   7
  -5   6 -11 50816.8 3436.60   4
  -6   5 -11 50223.8 3451.45   4
   6   5  11 42219.6 5799.66   1
  -6  -5 -11 59319.0 3211.66   7
   5  -6  11 34805.9 5478.19  18
   6  -5  11 37318.4 5548.13  18
   5  -6 -11 38823.7 6583.08   2
  -6  -5 -11 44357.9 2888.88  17
   6   5  11 47047.0 5970.64  18
   5   6  11 45692.8 6094.15  18
   6  -5 -11 37823.0 6464.79   2
   5   6  11 40418.9 5913.46   1
  -5   6  11 32734.6 3269.66   6
  -5  -6 -11 47485.7 2974.34  17
  -5  -6 -11 32940.6 7711.87  21
   5   6  11 53171.1 3143.47   5
   6   5  11 51191.7 3037.51   5
   5   6  11 35109.2 2895.84  15
   5  -6  11 39936.2 5170.45  23
   6   5 -11 36974.2 5850.95   2
   6   5  11 43408.4 6230.05   3
  -5  -6  11 47111.1 6376.49  19
   5   6  11 46047.9 6700.15   3
  -6   5 -11 37744.8 9817.42  24
   5   6 -11 44448.7 5979.69   2
  -6  -5  11 50564.0 6811.74  11
  -6   5  11 44435.3 6178.97  11
  -5   6  11 44433.8 5776.33  11
  -5   6  11 36233.5 8597.73   3
  -6  -5 -11 32607.7 9005.26  10
  -5  -6 -11 59270.7 3078.63   7
  -6  -5 -11 29415.2 7382.65  21
  -5   6 -11 28368.9 9326.20  24
   6  -5  11 37911.4 4961.74  23
  -5  -6 -11 26209.7 8374.71  10
  -5   6  13 14207.9 5626.39   3
  -5  -6 -13 36890.7 2547.28   7
   6   5 -13 27365.4 1717.24   8
  -5  -6  13 33076.6 5712.60  19
  -6  -5  13 29193.9 5426.12  19
  -5   6 -13 31867.6 2803.81   4
  -6   5 -13 32450.3 2795.26   4
  -6  -5 -13 37572.2 2652.71   7
   5  -6 -13 31019.1 1980.24   8
   5  -6  13 23416.7 4628.63  18
   6  -5  13 22811.4 4437.11  18
   6   5  13 36977.2 5770.30  18
   5   6  13 26886.5 5047.43  18
  -6  -5 -13 25374.4 2257.52  17
   6   5  13 33099.1 2577.71   5
  -5  -6 -13 28738.0 2340.36  17
   6   5 -13 27417.9 5085.28   2
  -6  -5 -13 10451.6 5299.50  10
   6  -5  13 24527.5 4120.34  23
   5   6  13 36970.7 2757.49   5
  -6   5  13 29258.7 5313.91  11
   6  -5 -13 34205.9 2111.39   8
  -6  -5 -13 18940.0 6223.12  21
  -5   6 -13 18730.4 7526.17  24
  -6   5 -13 19305.7 7397.09  24
   5  -6  13 26314.6 4394.01  23
  -6   5 -13 24445.0 2088.50   7
  -5  -6 -13 15911.6 6715.93  10
   6   5  15 7364.52 1322.69   5
   6   5 -15 5013.36 755.472   8
  -5   6 -15 7466.84 1396.65   4
  -6  -5 -15 7998.12 1255.70   7
  -5  -6 -15 8302.77 1231.06   7
  -6   5 -15 5438.47 1088.31   7
  -6  -5 -15 5364.46 1012.28  17
  -5  -6 -15 6231.15 1098.23  17
  -6   5 -15 6404.61 1279.80   4
   5   6 -15 8040.73 1231.17  14
   6   5 -15 7681.47 1185.20  14
   5  -6 -15 6895.36 958.095   8
   6  -5 -15 8243.88 1016.48   8
   5   6  15 9396.01 1511.70   5
   5  -6 -17 24220.4 1738.65   8
  -5   6 -17 29884.1 2446.91   4
  -6  -5 -17 33231.3 2393.11   7
  -5  -6 -17 34404.6 2371.41   7
   6   5 -17 24745.6 1467.94   8
  -5  -6 -17 25793.6 2066.87  17
   5   6  17 36443.2 2592.17   5
   5   6 -17 33830.3 2161.86  14
   6   5  17 34798.4 2493.87   5
  -6   5 -17 29321.6 2529.86   4
   6   5 -17 31202.4 2061.32  14
   6  -5 -17 29145.4 1835.83   8
  -5   6 -19 39343.5 2427.20   4
  -6   5 -19 43899.8 2673.54   4
  -6  -5 -19 49086.9 2603.87   7
  -5  -6 -19 47637.4 2523.23   7
   5  -6 -19 41857.1 2142.82   7
   6   5 -19 43615.8 2047.02  14
   5   6  19 52614.9 2768.74   5
   5   6 -19 42668.3 2081.95  14
   6   5  19 48205.8 2604.82   5
  -6   5 -21 30041.9 1727.09   4
  -6  -5 -21 34822.0 1770.60   7
  -5  -6 -21 34728.6 1698.22   7
   5  -6 -21 30983.8 1494.62   7
   6  -5 -21 31634.9 1486.66   7
   6   5  21 37131.1 1850.21   5
   5   6  21 40757.8 1974.30   5
  -6  -6   0 39328.0 6538.74  21
   6  -6   0 19422.7 5429.52  20
  -6   6   0 18120.6 5708.09   3
  -6  -6   0 35730.1 4246.78  19
  -6  -6   0 32560.2 7280.60  10
   6   6   0 26120.6 3322.98   3
   6   6   0 32061.1 4480.58   2
  -6   6   0 32187.3 4393.00  11
   6  -6   0 32716.6 3607.11  23
   6   6   0 32088.2 4353.58   1
   6   6   0 23552.9 3503.07  22
  -6   6   0 24273.9 4865.89  22
   6   6  -2 93721.3 7122.86   1
  -6  -6   2 109045. 7492.03  19
   6  -6   2 72294.0 10513.1  20
  -6  -6   2 114172. 13145.1  10
   6   6  -2 85974.5 6944.20  22
  -6  -6  -2 96879.1 12252.4  10
  -6  -6  -2 98154.5 10878.0  21
  -6   6   2 80538.7 11765.6   3
   6  -6  -2 69047.6 10557.6  20
   6  -6   2 91064.1 6122.76  23
   6   6   2 95895.1 7034.59   3
  -6   6  -2 74683.0 10354.6  24
  -6  -6   2 107213. 10535.4  21
   6  -6  -2 90085.7 5933.19  23
   6   6  -2 99627.8 7975.55   2
  -6   6   2 94601.6 7441.76  11
   6   6   2 105196. 8151.76   1
  -6   6  -2 62065.1 10102.9   3
  -6  -6  -2 97146.4 7322.73  19
  -6   6  -2 84570.6 7848.87  22
  -6  -6  -4 83699.8 10452.2  21
  -6  -6   4 100597. 7510.71  19
  -6  -6  -4 85891.7 7317.67  19
   6  -6  -4 64938.0 6263.11   2
   6   6  -4 85039.7 7277.47  22
   6  -6  -4 61049.8 9846.83  20
   6  -6   4 81248.5 6066.08  23
  -6   6   4 61634.5 10379.0   3
   6  -6   4 65745.0 9689.51  20
   6   6   4 76429.2 6729.56   3
   6  -6  -4 80546.3 5732.37  23
   6   6  -4 78103.0 7338.50   2
  -6  -6   4 97563.1 9842.35  21
  -6  -6   4 96481.2 12726.7  10
  -6   6   4 76450.3 6636.21  11
  -6   6  -4 66187.9 10466.7  24
  -6  -6  -4 73436.0 11134.7  10
   6   6  -4 74413.8 6035.68   1
   6   6   4 87028.6 7787.34   1
   6   6   6 121138. 9535.90   1
  -6  -6  -6 130481. 13762.8  21
   6  -6   6 114119. 12146.4  20
   6  -6  -6 103674. 8753.87   2
   6  -6  -6 95547.1 11859.2  20
   6   6   6 133068. 7937.05  18
   6   6  -6 135006. 9787.14  22
  -6   6  -6 119705. 15288.5  24
   6   6   6 121928. 9228.90   3
  -6   6   6 95577.0 13191.3   3
   6   6  -6 116778. 9289.17   2
  -6   6   6 108954. 8231.00  11
  -6  -6  -6 105855. 14340.0  10
  -6  -6   6 148450. 9855.29  19
   6  -6  -6 126550. 7464.44  23
   6  -6   6 124728. 7900.39  23
  -6   6  -8 142156. 5796.63   4
  -6  -6   8 152934. 10950.7  19
   6  -6   8 113547. 9324.67  18
   6  -6  -8 107916. 9792.00   2
   6   6   8 139415. 9117.34  18
  -6  -6  -8 155181. 5341.24  17
  -6   6   8 115244. 6460.82   6
  -6  -6  -8 118308. 14189.5  21
   6  -6   8 117500. 11705.1  20
   6   6   8 115246. 5311.33  15
  -6   6   8 97573.3 14467.7   3
   6   6   8 128759. 10197.1   3
   6   6  -8 121800. 9929.48   2
  -6   6   8 114357. 9060.76  11
   6   6  -8 146865. 4652.36   5
  -6   6  -8 125724. 17063.9  24
   6   6   8 121281. 9889.80   1
  -6  -6  -8 86997.7 14090.3  10
   6  -6  -8 120595. 7677.94  23
   6   6   8 138182. 4733.99   5
   6  -6   8 121956. 8314.39  23
   6  -6  10 66827.5 8321.40  20
   6   6  10 83352.2 8411.09   1
   6  -6  10 71944.2 7854.99  18
   6  -6 -10 72064.0 8638.03   2
  -6   6  10 73645.5 5107.78   6
  -6  -6 -10 95220.7 4338.39  17
   6   6  10 85897.2 7945.91  18
  -6  -6 -10 65693.3 11049.7  21
  -6   6  10 84296.2 13849.0   3
   6   6  10 71931.8 4222.93  15
   6   6  10 81253.9 8793.80   3
   6   6 -10 80615.0 8383.66   2
   6  -6  10 81184.3 7259.08  23
  -6   6  10 78671.4 8042.06  11
  -6   6 -10 105150. 5006.40   4
  -6   6 -10 72968.1 13584.8  24
  -6  -6 -10 62395.9 12735.7  10
   6   6  10 101138. 4242.44   5
  -6  -6  10 88615.0 8965.21  19
  -6  -6 -12 43814.5 9328.55  21
  -6   6 -12 60755.4 3880.78   4
  -6  -6  12 45361.2 6902.18  19
   6  -6 -12 59059.1 2694.12   8
  -6  -6 -12 65203.9 3479.12   7
   6  -6  12 38108.7 5949.48  18
   6   6  12 45484.7 6234.10  18
   6  -6 -12 40512.7 6769.21   2
  -6   6  12 33860.0 3506.83   6
   6   6  12 38252.5 5880.68   1
  -6  -6 -12 50176.5 3206.73  17
   6   6  12 46855.0 6990.21   3
   6   6  12 60410.9 3403.72   5
  -6   6  12 43037.0 6322.21  11
  -6   6  12 43264.4 10196.3   3
  -6   6 -12 40330.6 10995.0  24
   6  -6  12 46917.9 5750.95  23
  -6  -6 -12 27666.3 8899.58  10
  -6   6 -14 17946.9 2121.10   4
  -6  -6 -14 17603.7 1870.56   7
  -6  -6 -14 16128.7 1824.84  17
   6   6 -14 22074.8 2101.25  14
   6   6  14 19700.3 1991.23   5
   6  -6 -14 17488.6 1477.04   8
  -6  -6 -16 21128.0 1898.79   7
  -6   6 -16 15896.4 1893.59   4
   6  -6 -16 16416.3 1396.25   8
   6   6 -16 21317.7 1787.73  14
   6   6  16 20294.3 1945.02   5
   6   6 -18 37326.3 2026.86  14
   6   6  18 41542.1 2511.22   5
  -6  -6 -18 39395.9 2392.92   7
  -6   6 -20 28122.4 1790.80   4
   6  -6 -20 30971.8 1576.16   7
  -6  -6 -20 32894.3 1817.77   7
   7   0  -1 4952.55 2787.64   9
   7   0   1 7238.38 3330.04   9
   0  -7  -1 12897.7 3078.85  21
   7   0  -1 9546.01 2520.37  20
  -7   0   1 10518.9 2128.57  19
  -7   0  -1 8890.86 2098.41  19
   0   7  -1 7209.21 2726.87  22
   0   7   1 6809.78 2914.56  22
   7   0  -1 7898.39 1777.89   2
   7   0  -1 9981.31 1734.39  23
   7   0   1 10843.1 1743.15  23
   7   0   1 6372.31 1509.12   2
   0  -7  -1 6675.85 2699.88  10
   0  -7   1 10724.1 1435.39  23
   0   7  -1 8100.58 1825.04   3
  -7   0  -1 8615.97 2180.23  10
  -7   0   1 14731.9 2683.37  11
  -7   0  -1 10264.4 2332.78  11
   0  -7   1 5242.10 2205.60  10
  -7   0  -1 5628.37 2887.22  21
   7   0   1 8997.38 2670.62  20
  -7   0   1 6309.93 2968.13  21
   0   7   1 3853.72 1327.96   3
  -7   0  -3 34049.3 7052.45  21
   0  -7  -3 37628.6 5146.72  21
   7   0  -3 35328.4 4472.73  20
   7   0   3 43314.9 5729.40  20
   7   0  -3 24323.7 3494.15   2
  -7   0  -3 41954.8 4662.67  19
   7   0   3 32329.0 4168.87   1
  -7   0   3 27971.2 5510.53  21
   7   0   3 34684.9 6515.37   9
   0   7  -3 25442.3 6745.44  24
  -7   0  -3 27232.1 4167.68  10
   7   0   3 39451.7 3364.41  23
   0   7   3 26386.7 3816.99   3
   0  -7   3 42860.6 3498.14  23
   0  -7   3 27101.7 4788.86  10
   7   0   3 23464.4 2640.72   2
  -7   0   3 45576.5 4811.26  11
   0   7  -3 20055.7 2856.75   3
  -7   0  -3 43503.9 6139.34  24
   0  -7  -3 23025.5 5338.54  10
   7   0  -3 41349.8 3588.05  23
  -7   0   3 41061.4 4296.89  19
   0   7  -3 36431.2 5272.25  22
   7   0  -3 27943.6 5048.47   9
   7   0   3 42387.4 3409.41  18
  -7   0  -5 40639.9 8280.79  21
   0  -7   5 36463.6 6858.36  20
   7   0   5 59400.9 6915.78  20
   7   0  -5 62401.0 5470.05  20
  -7   0  -5 54361.2 5799.77  19
   7   0   5 53089.1 8126.49   9
   7   0   5 62581.2 4920.81  18
   0   7   5 54742.0 5357.82  18
   0  -7   5 48869.6 6109.56  10
   7   0  -5 48306.1 5272.08   2
   7   0   5 46587.7 4976.70   1
   7   0   5 61193.3 4407.38  23
   0   7   5 48369.8 5628.88   3
   0  -7   5 59642.3 4794.81  23
  -7   0   5 66674.3 6143.07  11
   0  -7  -5 57740.9 6293.59  21
   0   7  -5 47025.4 9181.71  24
  -7   0  -5 57549.0 8068.96  24
   0  -7  -5 41264.1 7862.90  10
   7   0  -5 56511.4 4481.69  23
  -7   0   5 60495.4 5422.24  19
   0   7  -5 52047.6 6287.81  22
   7   0  -5 51984.4 6210.00   9
   7   0   7 66965.7 9432.34   9
  -7   0  -7 54934.4 10309.4  21
   0  -7  -7 53117.5 9682.63  10
  -7   0   7 71306.0 6365.87  19
   7   0   7 72511.0 6045.97  18
   0   7   7 67612.9 6403.95  18
   7   0  -7 66611.1 6876.17   2
   0  -7   7 41566.6 7231.75  20
   7   0   7 73092.2 5090.15  23
   0  -7  -7 72389.2 7179.00  21
   0   7  -7 46631.4 9792.33  24
   7   0   7 67110.6 5993.66   1
   0  -7   7 64123.1 7437.78  10
   0   7   7 69425.3 7289.85   3
  -7   0   7 67787.5 6683.23  11
  -7   0  -7 60058.1 9201.60  24
   7   0   7 63847.0 7396.06  20
   0  -7   7 71018.6 5832.85  23
   0   7  -7 65243.2 7020.02  22
  -7   0  -9 24403.6 6983.78  21
   7   0   9 19727.0 5236.51   9
   7   0   9 27616.3 5030.94  20
  -7   0   9 37647.5 5010.61  19
   0  -7   9 31678.7 4705.06  18
   7   0   9 33410.1 4606.38  18
   0   7   9 30178.3 4691.15  18
   7   0   9 33011.0 3741.25  23
   7   0  -9 25351.0 4641.22   2
   0   7  -9 35057.8 5407.76  22
   0  -7  -9 31985.1 5024.51  21
   0   7   9 27979.3 5124.76   3
  -7   0   9 34554.7 5241.75  11
   7   0   9 19154.5 3176.91   1
   0  -7   9 29707.6 4192.73  23
   0   7  -9 22786.5 7342.72  24
  -7   0  -9 28858.1 6716.99  24
   0  -7  -9 16353.6 6113.98  10
  -7   0 -11 30314.5 8204.09  21
   7   0 -11 48849.2 6659.80   2
   7   0 -11 54674.4 2544.47   8
   7   0  11 56758.7 6510.31  18
  -7   0 -11 52214.3 3045.36   7
   0  -7  11 54693.2 6602.35  18
   0   7  11 56614.5 7030.68  18
  -7   0  11 60778.5 6925.01  19
   7   0  11 40361.2 5322.80   3
   0   7 -11 81880.5 3553.61  14
   0  -7  11 48963.9 5906.33  23
   0   7  11 43608.1 3721.98  13
   7   0  11 55781.0 5160.51  23
   0   7 -11 39417.0 9900.63  24
   0   7  11 50558.7 7338.69   3
  -7   0  11 68065.5 7901.48  11
  -7   0 -11 55810.7 10519.4  24
   0   7 -11 66711.0 7859.78  22
   0  -7 -11 40027.0 10072.3  10
   7   0 -13 17.8507 508.394   2
   0  -7  13-1949.19 1324.38  23
   0  -7 -13-1729.56 2532.48  10
  -7   0  13 1454.50 1326.67  19
  -7   0 -13 688.379 427.149   7
   7   0 -13-207.818 384.985   8
   0  -7  13-3859.32 1846.81  18
   7   0  13 135.606 613.303  18
   0   7  13 2320.98 1540.25  18
   0   7 -13-109.684 1445.50  24
  -7   0  13-263.220 781.939  11
   0   7 -13 225.697 375.391  14
   0   7  13 3933.87 2244.87   3
   7   0 -13-3418.86 1983.43  12
  -7   0 -13 3151.13 2921.13  24
   7   0  13 1787.33 1197.98   3
   7   0 -15 15879.5 1407.21   8
  -7   0 -15 14453.0 1684.78   7
   0  -7 -15 16688.1 1683.19   7
   0   7 -15 17131.0 1638.51  14
   7   0 -17 4824.94 779.938   8
   0  -7 -17 5575.19 924.309  17
  -7   0 -17 4423.92 953.366   7
   0  -7 -17 3718.26 796.726   7
   7   0 -19 16513.7 1247.07   8
  -7   0 -19 15223.5 1533.35   7
  -7   0 -19 16463.4 1771.22   4
   0  -7 -19 16046.5 1437.40   7
   7   0 -19 13780.2 1122.75   7
   0  -7 -19 13598.2 1219.00  17
   7   0  19 13783.7 1188.35  25
   7   0  19 13066.5 1281.27   5
  -7   0 -21 17044.4 1331.33   7
  -7   0 -21 19362.4 1617.24   4
   0  -7 -21 20354.3 1341.03   7
   7   0 -21 17269.8 1085.67   8
   0   7  21 22506.7 1445.10   5
   7   0  21 17635.6 1048.92  25
   7   0  21 17675.0 1136.54   5
   7   0 -21 16002.4 936.742   7
   7   1   0 422.503 932.254   9
   7  -1   0 1396.44 1336.87  20
   7   1   0 718.442 856.126  20
   1   7   0 176.994 448.391   1
  -7  -1   0 387.394 662.232  19
  -7   1   0 78.0476 505.742  19
  -7   1   0 597.873 532.567  10
   7  -1   0 737.659 549.165   2
   7   1   0 544.792 805.994   1
  -1  -7   0 1251.96 1007.93  21
   7   1   0 990.570 686.308  23
  -7  -1   0 118.061 546.842  11
  -7   1   0 205.307 659.975  11
   1  -7   0 1469.93 602.415  23
  -1   7   0 1574.17 926.515   3
  -7  -1   0-58.7582 1162.67  10
  -1  -7   0 1523.09 1699.04  10
   7  -1   0 676.538 499.084  23
   1   7   0 1169.67 1497.11  22
   1  -7   0 2692.83 2164.88  10
   1   7   0 358.974 465.777   3
  -7  -1   0 962.880 1408.51  21
  -7   1   0-519.932 2021.94  21
   7   1   0-131.674 444.019   2
  -1   7   0 196.121 1051.40  22
  -7   1   2 2287.50 1989.66  21
  -1   7   2 990.306 981.906   3
   1   7  -2 2587.81 1015.09   3
   7   1   2 3122.78 2061.46   9
   7  -1  -2 1650.12 1075.22   2
  -7  -1  -2 961.987 1795.31  21
   7   1  -2 1607.76 1047.27   2
   7  -1  -2 1321.68 1379.53  20
  -7   1   2 2560.22 1229.70  19
   7   1   2 2860.99 1105.57   2
  -7  -1  -2 3303.77 1342.96  19
  -7   1  -2 1839.63 1209.53  19
   1  -7  -2 3109.80 809.892  23
   7  -1   2 3693.55 1044.97  18
   1  -7   2 2884.79 848.410  23
   7  -1   2 646.314 467.037  23
  -1   7  -2 2346.36 1171.22   3
   7   1  -2 260.974 850.388  20
  -1   7  -2 2843.73 1813.32  22
   7  -1  -2 2603.96 1010.97  23
   1  -7  -2 1613.92 1312.78  10
   1   7   2 194.554 746.704   3
   1  -7   2 2745.68 1265.48  10
   7   1   2 3468.33 1023.37  23
  -1   7  -2-273.785 1266.43  24
   7   1   2 2316.26 1238.14   1
  -1  -7  -2 3811.41 1702.45  21
   1   7   2 835.159 1571.46  22
  -7  -1   2 1484.34 974.942  11
  -7   1   2 2750.69 1288.97  11
   7   1   2 903.413 959.747  20
  -7   1  -2 207.218 487.347  11
  -7  -1  -2 1524.36 973.468  11
  -7  -1   2 2968.47 1204.96  19
  -7   1  -2 2452.96 1589.45  24
   7  -1   2 2245.68 1877.23  20
  -1  -7   2 3778.08 2293.11  10
  -7  -1  -2 3782.81 1737.80  10
   7  -1   2 2219.64 790.191   2
  -1  -7  -2 3013.22 2455.41  10
   7   1  -2 2817.68 972.005  23
   1   7  -2 2193.86 1766.21  22
  -1  -7   2 4123.46 918.117  23
   1   7   2 862.924 1150.30   1
   7   1  -2 1794.07 1716.79   9
  -7  -1   2 1535.71 1826.31  21
  -7   1  -2 2562.02 2001.21  21
   7   1  -4 9340.12 2729.69   9
  -1  -7  -4 15038.6 3408.96  21
  -7  -1   4 7681.26 2668.54  21
   1  -7   4 10557.9 3904.30  20
  -7  -1  -4 10698.6 4281.91  21
   7   1   4 14682.6 2091.33  18
   7   1  -4 13189.3 2613.97  20
   7  -1   4 11723.1 3989.62   9
   7  -1  -4 8342.42 2368.27  20
  -7   1   4 12698.7 2505.95  19
  -7  -1   4 14001.2 2692.36  19
  -1   7  -4 9537.31 2817.26  22
  -7  -1  -4 14303.3 2895.60  19
   7  -1   4 11977.3 2180.36  18
   7  -1   4 14000.5 2780.40   1
   7  -1  -4 11705.1 2509.39   2
   1   7   4 12127.9 2813.88   1
   7   1  -4 12191.4 2644.00   2
   7  -1  -4 14377.9 2233.07  23
   7   1   4 14799.9 2910.02   1
   1  -7   4 13425.0 2181.91  23
   1  -7   4 10219.9 2839.97  10
   1   7   4 11221.5 2555.31   3
   1  -7  -4 9024.30 3509.75  10
   1   7  -4 7007.12 3996.42  24
   7   1  -4 13439.6 2418.02  12
   7   1   4 13178.0 1884.78  23
  -1   7   4 12274.5 2893.09   3
  -7   1  -4 14196.5 2877.35  19
  -7  -1   4 17719.0 3149.48  11
  -7   1   4 16701.2 3000.01  11
   7   1   4 11753.4 3130.21  20
  -1   7  -4 9889.09 4789.98  24
  -7   1  -4 13521.6 3773.50  24
   7   1  -4 15621.4 2263.94  23
   7  -1   4 14597.7 2189.01  23
   1  -7  -4 14196.6 3150.67  21
  -1  -7  -4 7770.77 3255.64  10
  -1  -7   4 14790.5 2213.06  23
  -7  -1  -4 7248.50 2703.80  10
   7   1   4 13495.3 4290.24   9
  -1  -7   4 12693.9 3288.88  10
   7  -1   4 14140.1 3622.37  20
   1   7  -4 12645.0 3310.29  22
  -7   1  -4 10080.3 4425.19  21
  -1  -7  -6 9835.79 2650.21  21
   1  -7  -6 3873.26 2741.55  10
   7  -1  -6 10512.2 2818.74   9
   7  -1   6 11681.9 3880.24   9
   7   1   6 6855.26 2965.98   9
  -7  -1  -6 5094.77 3213.36  21
   1   7  -6 8168.85 2736.34  22
   7  -1  -6 11667.7 2434.53  20
   1  -7   6 4305.50 2405.03  20
  -7   1  -6 6643.95 2924.81  24
  -1   7   6 5726.50 2100.47   3
   7   1   6 9229.01 2732.85  20
  -7   1   6 2919.39 3324.65   3
  -7  -1   6 8678.40 2201.70  19
  -7   1   6 7375.45 1944.31  19
  -7   1  -6 5730.40 3718.82  21
  -7  -1  -6 6634.25 2159.18  19
  -7   1  -6 4196.06 2068.23  19
   7  -1   6 6953.24 1818.41  18
   7   1   6 5320.11 1583.73  18
   1   7   6 7312.34 1978.28  18
  -1   7  -6 8367.87 2656.25  22
   1  -7  -6 8049.01 2391.74  21
   7   1  -6 6671.52 2194.34   2
  -1  -7   6 8031.48 1928.05  23
  -7  -1  -6 5330.29 2671.73  10
  -1   7  -6 6946.17 3921.30  24
   1   7   6 6518.18 2435.15   1
   7  -1   6 8563.87 2740.79  20
   1  -7   6 7910.41 1868.01  23
  -7  -1   6 13127.5 2887.88  11
  -7   1   6 12455.3 2839.02  11
   7  -1   6 4969.90 1719.10   1
  -1  -7  -6 10533.2 4280.72  10
   1   7  -6 3940.87 2931.86  24
  -1  -7   6 8635.57 3202.93  20
   7  -1  -6 7445.62 1741.23  23
  -1  -7   6 3419.93 2131.46  10
   7  -1   6 8391.53 1806.07  23
  -1   7   6 9072.99 2317.47  18
   7   1   6 5080.82 1253.62  23
   1   7   6 4882.39 2031.60   3
   7   1   6 5530.09 1957.05   1
   7  -1  -6 6113.59 1886.25   2
   7  -1   8 8159.75 3221.31   9
  -1  -7  -8 12955.0 3320.47  21
   7   1   8 10609.6 4016.68   9
  -7  -1  -8 10249.7 4419.04  21
   7  -1  -8 9635.23 2741.14   2
  -7   1   8 12300.6 2712.14  19
   7   1   8 10936.4 3218.22  20
  -7  -1   8 11655.8 2841.78  19
   1   7  -8 13387.7 3262.36  22
  -1  -7   8 9918.71 2638.70  18
   7   1   8 7569.43 1972.29   1
   7  -1   8 11369.4 2606.04  18
   7   1   8 9365.93 2317.73  18
   1   7   8 11377.1 2715.24  18
   1  -7  -8 11156.1 2711.68  21
   1   7   8 7727.66 2590.70   3
   7   1  -8 10653.8 2855.86   2
  -1   7  -8 9087.33 4128.54  24
   1   7  -8 7519.86 3508.30  24
  -7  -1   8 12763.4 3042.79  11
  -7   1   8 13300.6 3159.24  11
  -1   7   8 9872.09 3025.98   3
  -1   7  -8 12147.1 2984.15  22
  -1   7   8 10141.4 2642.24  18
  -7   1  -8 8028.50 4121.79  24
   7   1   8 11975.3 2049.46  23
   7  -1   8 10766.9 2131.73  23
   1  -7   8 9513.28 2387.38  23
  -7   1   8 8385.42 5115.00   3
  -1  -7  -8 3930.53 3303.54  10
   1  -7  -8 4434.24 3118.34  10
   7  -1   8 7698.31 1974.02   1
  -7   1  -8 11001.1 5254.82  21
   7  -1   8 9399.37 2943.38  20
  -7   1 -10 5913.39 4354.91  21
   7  -1  10 3238.57 2217.01   9
  -7  -1 -10 8360.17 4474.07  21
   7   1 -10 6524.50 875.115   8
  -7   1 -10 5162.51 969.063   7
   7  -1 -10 5863.93 836.304   8
  -7  -1 -10 6009.91 1031.77   7
  -7  -1  10 8883.05 2727.63  19
  -7   1  10 8444.85 2514.16  19
  -1   7 -10 4402.66 4055.57  24
   1  -7  10 6274.34 2109.41  18
  -1  -7  10 6565.94 2110.37  18
   7  -1  10 7949.04 2345.21  18
   7   1  10 9221.95 2583.96  18
   1   7  10 8437.35 2540.83  18
  -1   7  10 6454.19 2224.01  18
  -7  -1  10 10657.1 3040.71  11
   7   1  10 3094.26 1524.80   3
   1   7 -10 6774.01 4559.24  24
   1   7 -10 13583.0 1481.09  14
  -1   7 -10 9657.61 2876.74  22
  -7   1  10 8238.45 2681.12  11
   7   1  10 3735.29 1478.42   1
   7   1 -10 7487.22 2566.47  12
   1  -7  10 8641.95 2357.39  23
   7   1 -10 5588.76 2208.37   2
  -7   1 -10 3487.67 3399.24  24
  -7  -1 -10 2760.02 2234.57  24
   7  -1  10 4495.53 2147.75  20
   7  -1  10 5936.41 1709.94  23
  -1  -7 -10 2433.01 2285.26  10
   1   7  10 6042.76 2307.61   3
   1  -7 -10 999.129 1904.33  10
   7  -1 -10 6732.01 2360.78   2
   1   7 -10 9835.08 2995.93  22
  -1   7  10 5766.02 2541.86   3
  -1  -7 -10 5855.18 2411.22  21
   7   1 -12 5282.42 2272.52   2
   7  -1 -12 3148.56 688.404   8
   7   1 -12 3907.85 715.341   8
   1   7  12 4120.72 2507.51   3
   7  -1  12 2283.67 1286.02   3
  -7  -1 -12 3927.06 971.297   7
  -7  -1  12 5815.05 2528.14  19
  -7   1  12 5646.77 2462.27  19
  -7   1 -12 3212.28 892.683   7
   1  -7  12 4276.14 1991.80  18
  -1  -7  12 1466.24 1093.59  18
   7   1  12 5048.67 1969.44  18
  -1  -7 -12 4190.86 766.082   7
   1   7  12 5024.88 2283.73  18
  -1   7  12 3534.62 1831.86  18
  -7   1 -12-733.078 1709.06  24
  -7  -1 -12 2268.69 2544.17  21
  -7   1  12 5638.39 2515.54  11
  -1   7 -12 6961.65 1066.61  14
   1   7 -12 6726.60 1116.97  14
   1  -7 -12 4263.63 3524.57  10
   1   7  12 3327.22 911.731  13
  -7  -1  12 5824.48 2430.86  11
   7   1 -12 4632.27 2053.92  12
  -1   7  12 2369.80 1791.89   3
   7  -1  12 4472.27 1581.89  23
   1   7 -12 9598.79 5001.85  24
  -1   7 -12 6450.42 4284.22  24
   7   1  12 5505.28 2043.80   3
  -7  -1 -12 2139.59 2629.99  24
   1  -7  12 1347.08 977.239  23
   7  -1  12 2344.30 1428.34  18
  -1  -7 -12 2866.88 3107.95  10
   7  -1 -12 3649.48 1939.10   2
   7   1 -14 387.374 298.049   8
   7  -1 -14 127.074 277.334   8
  -7   1 -14 359.623 398.735   7
  -7  -1 -14 701.496 527.268   7
   1  -7  14-643.715 889.854  18
   7  -1  14-661.825 868.327  18
  -1  -7 -14 1179.94 539.560   7
   7   1  14 1282.79 1133.70  18
  -1  -7  14-928.172 971.933  23
  -1   7 -14 52.5107 469.830  14
   1   7 -14 971.254 609.588  14
   7   1 -14-1921.90 1581.99  12
   1   7 -14 1140.92 2066.02  24
   1  -7  14-896.385 953.426  23
  -7  -1 -14-714.354 2366.50  24
   7  -1 -16 501.832 350.093   8
   7   1 -16 26.4401 330.166   8
  -7   1 -16 676.663 534.167   7
  -7  -1 -16 195.267 344.804   7
  -1  -7 -16 173.113 288.031   7
   1  -7 -16 346.152 322.379   7
   1   7 -16 426.424 321.091  14
  -1  -7 -16 634.837 374.237  17
   7   1 -18 762.911 401.754   8
   7  -1 -18 963.632 402.488   8
  -7   1 -18 529.854 408.916   7
  -7  -1 -18 567.391 392.275   7
  -1  -7 -18 479.165 321.691   7
   1  -7 -18 549.873 330.007   7
  -1  -7 -18 644.487 363.534  17
   1  -7 -18 695.130 320.205  17
   7  -1  18 895.371 354.250  25
  -7   1 -18 160.207 455.580   4
  -1  -7 -20 3590.04 573.232  17
   1   7  20 5421.89 894.346   5
   7   1  20 3962.83 685.522   5
   7  -1  20 3413.46 601.289   5
   1  -7 -20 3857.77 666.752   7
   7  -1 -20 3551.94 557.421   7
  -7   1 -20 2898.45 644.581   7
   7  -1 -20 4210.78 600.460   8
  -7   1 -20 4575.71 909.253   4
  -1  -7 -20 3960.44 686.051   7
  -7  -1 -20 4853.21 927.972   4
   7   1  20 4799.12 652.332  25
   7  -1  20 4289.08 573.802  25
  -7  -1 -20 4123.11 766.544   7
   7   1 -20 4061.59 603.738   8
  -1   7  20 5573.13 849.730   5
   7   1  22 2134.33 366.159   5
  -1  -7 -22 2329.00 399.910   7
  -7  -1 -22 1520.49 376.815   7
  -7   1 -22 3033.63 566.062   4
  -7  -1 -22 2483.61 525.918   4
   1  -7 -22 2255.36 376.752   7
  -2   7   1 789.192 1783.82  22
   7   2   1 473.437 1553.08   9
   7  -2  -1 1397.86 787.717   2
  -2   7   1 1308.20 997.359   3
  -2   7  -1 1544.35 1619.47  22
   2  -7   1 1092.98 1659.60  20
   2  -7  -1 1549.48 716.726  23
   7  -2  -1-574.984 639.228  20
   7  -2   1 1298.43 1745.19  20
   7   2   1 880.387 829.684  20
   7   2  -1 319.767 497.926  20
   7   2   1 1449.40 667.259  23
   7   2   1 1522.33 955.425   2
  -7  -2   1 1158.28 896.077  19
  -7   2   1 370.618 601.209  19
  -7  -2  -1 1532.19 1149.10  19
  -7   2  -1 122.269 495.248  19
  -7  -2   1 1084.17 1399.88  10
   7  -2  -1 1152.54 657.237  23
   2   7  -1 249.878 1205.93  22
  -2  -7   1 283.741 636.410  21
   7   2  -1 984.435 573.617   2
  -7  -2  -1 708.149 1282.69  10
   2   7   1 1036.08 1407.81  22
   7  -2   1 1092.97 781.621  23
   7   2  -1 703.178 596.615  23
   2   7   1 1228.09 737.541   1
  -2   7  -1-1751.89 1170.62   3
   2   7   1 339.354 574.438   3
   2   7  -1 350.149 778.557   1
   7   2   1 2090.59 1296.16   1
   7   2  -1 2306.02 1286.74   1
  -2   7  -1 1763.62 2429.87  24
   2  -7  -1 3345.05 1858.10  10
  -7  -2   1 1198.74 806.280  11
  -7   2   1 491.423 721.523  11
  -7   2  -1 240.954 529.414  11
  -7  -2  -1 191.716 717.146  11
  -2  -7   1 1503.27 1695.88  10
  -2  -7  -1 2246.30 2400.43  10
   7   2  -1 1598.43 875.057   9
  -7  -2   1 1051.48 1649.69  21
   2  -7   1-1131.19 1472.52  10
   2  -7   1 1270.95 596.286  23
   7  -2   1 924.053 512.374   2
   2   7  -1 2091.70 834.913   3
  -2  -7  -1 1626.77 1468.89  21
  -7  -2  -1 2111.80 2186.38  21
  -7   2  -3 22482.7 6569.85  21
   7   2  -3 28203.7 5048.29   9
  -7  -2   3 23452.1 4926.09  21
  -7  -2  -3 24589.7 5977.35  21
  -2  -7  -3 30668.7 4947.21  21
  -2  -7   3 29813.8 4968.77  21
  -7   2   3 29198.8 3536.40  19
   7  -2  -3 25186.8 4606.47  20
   7  -2   3 27159.2 5088.66  20
   2   7   3 22550.2 4724.34  22
   7   2   3 31894.5 4955.38  20
   7   2  -3 22489.5 3450.54  20
  -7  -2   3 29191.6 3884.48  19
  -7   2   3 25736.6 7571.90   3
  -7  -2  -3 28145.9 3926.63  19
  -7   2  -3 27403.1 3730.15  19
   7  -2   3 27938.5 3299.81  18
   2   7   3 33859.4 4458.21   1
   2  -7   3 17264.3 5253.90  20
   2   7  -3 30840.8 3517.72   1
   7  -2  -3 29581.8 3872.25   2
   7   2  -3 39600.9 4654.44   1
  -7  -2  -3 24723.2 4731.50  10
   7   2   3 33138.0 6473.98   9
   7   2   3 28105.3 2519.80  23
   7   2  -3 34488.6 4257.73   2
   7   2   3 34767.5 4542.12   1
   2   7   3 28968.0 3899.19   3
  -2   7  -3 20113.3 3877.08   3
   2   7  -3 25361.3 4453.30  22
  -2  -7   3 36930.6 6376.85  10
  -2   7   3 35330.1 5031.79   3
   7   2   3 30815.5 3523.69   2
  -7  -2   3 31023.1 4041.08  11
  -7   2   3 26293.8 3817.69  11
  -2   7  -3 23027.3 6286.78  24
  -7   2  -3 27951.1 4910.49  24
  -2  -7  -3 32640.3 7032.03  10
   2  -7  -3 25340.4 5420.93  10
   7   2  -3 25748.7 2771.61  23
   7  -2  -3 26753.3 3081.23  23
   2  -7  -3 26017.3 2465.61  23
   7  -2   3 27582.0 3077.30  23
   2  -7   3 26885.7 2979.70  23
  -2   7  -3 24542.8 4465.27  22
  -7   2  -5 1150.76 2479.43  21
  -2   7   5 3116.88 1723.11   3
  -7   2   5 2547.82 3770.72   3
   7   2   5 2384.36 2092.57   9
   7   2   5 3792.00 1465.36   1
  -2  -7  -5 2373.08 1351.35  21
   7  -2   5 1835.82 1023.58  20
  -2  -7   5-922.398 1018.29  21
   2  -7   5-48.1785 1465.26  20
  -7   2   5 2514.51 1057.99  19
   7  -2  -5 1884.60 1210.80  20
   7   2   5 2545.72 1701.23  20
   2   7   5 3680.15 1501.14   1
  -7  -2  -5 3297.68 1436.85  19
  -7   2  -5 1410.71 957.501  19
  -2  -7  -5 946.126 1516.59  10
   2   7   5 2279.51 1209.07  18
   7  -2   5 2776.83 1385.10  18
   2   7  -5 1365.47 1123.85   2
   7   2   5 3517.00 1193.58  18
  -7  -2   5 1513.60 1068.62  11
   7  -2   5 2882.24 1087.85  23
   2   7  -5 3842.93 2142.21  22
   2  -7  -5 2999.93 923.491  23
   2  -7  -5 2667.80 1496.36  21
  -2   7  -5 2960.78 1624.04  22
   7   2  -5 3481.21 1454.70   2
   7  -2  -5 2795.02 1423.20   2
   7   2  -5 2018.74 1155.69   1
  -7  -2  -5 2153.97 2392.49  21
  -7   2   5 1339.87 1227.19  11
   7   2  -5 995.076 983.823  12
  -7  -2   5 1892.74 1048.22  19
   2   7  -5 1364.08 1838.35  24
   2  -7   5 1804.78 965.662  23
   2   7   5 1948.61 1332.54   3
  -2  -7   5 5357.24 2463.62  10
  -2   7  -5 1403.40 2115.22  24
  -7   2  -5-82.6039 811.275  24
  -7  -2  -5 1452.58 1343.60  10
   7   2   5 2594.82 832.500  23
   7  -2  -5 2119.48 1014.95  23
  -2  -7   5 2819.63 1000.97  23
   2  -7  -5 2780.06 2207.20  10
  -2   7   7-859.800 1009.49   3
  -2  -7  -7 434.953 784.590  21
  -7  -2  -7 1624.49 1220.14  21
   2  -7  -7 1053.12 1104.57  21
   2  -7   7-1030.33 1239.32  20
   7  -2   7 971.946 1460.44  20
  -7   2   7 1699.65 1145.25  11
  -7   2   7 1335.88 3142.50   3
  -7   2   7 914.696 1094.79  19
   7   2   7 1266.40 805.914   1
   2   7  -7 1215.59 773.232   2
   7  -2   7 1139.10 1017.06  18
   7   2   7 803.183 712.016  18
   2   7   7 1378.03 1129.19  18
  -2   7   7 1587.91 995.613  18
   7  -2   7 335.934 1079.03   9
   7  -2  -7 1820.35 852.208  23
  -2  -7   7-446.908 770.276  21
  -7  -2   7 3002.57 1251.17  11
   7   2  -7 402.730 1134.35   2
   7   2  -7 1086.74 831.104   1
   7   2  -7 251.496 1037.09  12
   7  -2   7 1725.81 966.077   1
   2   7   7 945.719 1003.30   1
   2   7   7-65.3741 458.311   3
  -7  -2   7 1025.14 866.696  19
  -7  -2  -7 1734.68 1733.72  10
   2   7  -7 3020.36 2891.07  24
  -2   7  -7 630.628 2678.04  24
  -7   2  -7-145.696 1996.64  24
   2  -7  -7 2348.64 2334.75  10
   7  -2   7 1419.33 774.947  23
  -2  -7  -7 1611.89 3088.74  10
   2  -7   7 1962.41 1040.79  23
   7  -2  -7 1458.93 1127.23   2
   2   7  -7 1630.08 983.811  22
  -2   7  -7 1234.97 1110.83  22
  -7  -2  -9 6583.20 3648.23  21
   7  -2   9 10481.6 3057.07  20
   2  -7  -9 8228.42 3850.73  20
  -2   7   9 11921.2 3064.84  18
  -7   2   9 11010.0 6633.83   3
  -7  -2   9 14638.0 3321.27  19
  -7   2   9 12479.4 2855.22  19
  -2  -7   9 11221.3 2797.58  18
   7  -2   9 10761.1 2700.94  18
   7   2   9 12699.0 2765.69  18
   2   7   9 12255.5 3037.76  18
   2  -7   9 9953.75 2824.74  18
   7  -2  -9 14458.5 3551.26   2
   7   2  -9 16004.6 3634.75   2
   7   2   9 11837.3 2821.06   1
   7   2   9 16509.1 3377.08   3
   2   7   9 16223.7 3741.00   3
   7  -2   9 11073.7 2332.81  23
  -2   7  -9 9810.57 5151.93  24
   7   2  -9 13639.6 3299.47  12
  -2   7   9 19035.7 4601.66   3
  -2  -7  -9 14245.3 3806.91  21
  -7  -2   9 15457.6 3610.23  11
  -7   2   9 13610.8 3310.83  11
   7  -2   9 12958.3 4448.22   9
  -7   2  -9 11409.1 4774.19  24
   2  -7   9 10268.1 2544.57  23
   2   7  -9 7395.08 4219.33  24
  -2  -7  -9 8785.60 4403.14  10
   2  -7  -9 16524.7 5878.77  10
   2   7  -9 14781.1 3565.85  22
  -2   7  -9 9764.36 2829.85  22
  -2   7  11 20018.8 4972.49   3
  -7  -2 -11 13594.7 5445.72  21
   7  -2 -11 24937.7 1766.59   8
   7   2 -11 21544.9 1592.38   8
   7  -2  11 15239.4 3628.60  20
  -7  -2  11 20686.3 4243.36  19
  -7   2  11 18055.9 3649.84  19
  -7   2 -11 21108.8 1963.40   7
  -7  -2 -11 26405.1 2139.09   7
   2  -7  11 14690.5 3447.02  18
   7  -2  11 16672.8 3556.50  18
   7   2  11 17852.3 3657.03  18
   2   7  11 15770.9 3621.56  18
  -2   7  11 16617.7 3937.89  18
  -2   7  11 11343.4 1875.52   6
   7  -2 -11 18647.5 4344.74   2
  -7   2 -11 25993.3 2476.38   4
   7   2 -11 20633.3 4358.77   2
  -2   7 -11 14049.3 6125.03  24
  -2   7 -11 22984.0 1807.89  14
   7   2  11 16846.8 3578.86   3
   2   7 -11 26439.2 2228.02  14
   2   7  11 14463.0 2203.02  13
  -7   2 -11 16942.1 6133.44  24
   2  -7 -11 14303.9 5927.36  10
   2   7  11 23114.3 4837.35   3
   7  -2  11 16827.0 3033.39  23
   7   2 -11 15566.3 3872.63  12
  -7  -2  11 22176.5 4570.27  11
  -7   2  11 15210.9 3797.29  11
   7  -2  11 15250.1 4670.65   9
   2   7 -11 15696.0 6574.27  24
   2  -7  11 13676.4 2990.97  23
  -2   7 -11 20297.0 4295.01  22
  -2  -7 -11 10157.2 3695.93  10
  -2   7  13 3071.25 2299.47   3
  -7  -2 -13-4916.08 3516.19  21
   7   2 -13 4764.23 2190.97   2
  -7   2 -13 1991.79 4000.96  24
   7   2 -13 2071.10 548.879   8
   7   2  13 2235.89 450.891   3
  -7  -2  13 1590.11 1475.30  19
  -7   2  13 1574.05 1294.16  19
   2  -7 -13 5415.26 2688.81   2
  -7   2 -13 1951.94 774.248   7
  -7  -2 -13 2472.98 707.553   7
   2  -7  13 1852.08 1350.24  18
  -2  -7 -13 2294.96 674.310   7
   7  -2  13 3446.51 1759.12  18
   7   2  13 1185.91 1051.66  18
   2   7  13-308.706 709.208  18
  -2   7  13 2115.95 1637.85  18
   7  -2 -13 1525.63 422.202   8
  -2  -7 -13 3412.40 810.130  17
  -7  -2  13 2367.50 1432.91  11
  -7   2  13 1906.62 1502.31  11
  -7   2 -13 2475.64 845.227   4
  -2   7 -13 2159.66 499.437  14
   2   7 -13 3482.09 856.746  14
   2   7 -13 5999.70 3949.97  24
   7   2 -13 4237.48 2115.02  12
   2  -7 -13-2066.65 2743.20  10
   2  -7  13 1453.37 1304.04  23
  -2   7 -13-7606.36 4777.59  24
  -7  -2 -13-12.9275 1498.54  24
   7  -2  13 768.200 769.482  23
   2   7  13 1686.29 1491.28   3
  -2  -7 -13 10119.8 5488.11  10
   7  -2 -13 4475.33 2181.76   2
   7   2 -15 11025.4 1136.34   8
   7  -2 -15 13383.6 1313.65   8
  -7   2 -15 9769.50 1407.73   7
  -7  -2 -15 10724.4 1497.33   7
  -7   2 -15 11522.5 1728.25   4
  -2  -7 -15 11962.2 1439.00   7
  -2  -7 -15 9020.40 1281.28  17
   2   7 -15 10462.7 1320.11  14
   7   2 -15 12427.0 1399.49  14
   7  -2  15 9766.05 1140.31  25
   7  -2 -17 5854.93 847.953   8
  -7   2 -17 4528.19 911.674   7
  -2  -7 -17 5529.32 985.156   7
   2  -7 -17 4857.88 905.472   7
  -7  -2 -17 4738.93 954.538   7
  -7   2 -17 5534.88 1203.91   4
   7  -2  17 2712.97 586.287  25
   2   7 -17 4035.42 788.381  14
   7   2 -17 3541.69 687.493  14
   7   2 -17 5171.04 759.904   8
  -2  -7 -17 3297.50 756.180  17
   2   7  17 7893.05 1370.96   5
   2   7  19 3862.00 879.452   5
   7   2  19 2950.83 711.695   5
  -7   2 -19 2640.86 619.995   7
  -7  -2 -19 2769.96 657.553   7
  -2  -7 -19 2884.24 612.353   7
   2  -7 -19 2435.41 587.565   7
  -2  -7 -19 1812.74 479.062  17
   2  -7 -19 2156.23 477.266  17
  -7   2 -19 3248.12 887.333   4
   7  -2 -19 3037.48 575.450   8
   7   2 -19 2956.12 540.025   8
   7  -2  19 2592.44 487.963  25
   7  -2 -21 3981.32 519.834   8
  -7  -2 -21 4075.17 682.209   7
   2  -7 -21 4482.01 615.584   7
  -7   2 -21 5144.63 804.060   4
  -2  -7 -21 4981.38 661.480   7
   7  -2 -21 3978.83 523.497   7
  -7  -2 -21 4165.19 747.769   4
   7   2  21 3698.62 524.455  25
   7   2 -21 3648.42 467.897   8
   2   7  21 5280.03 779.066   5
   7   2  21 4618.55 666.959   5
  -3  -7   0 5504.73 2185.05  21
   3  -7   0 3200.33 2904.83  20
   7   3   0 5401.44 1677.85   2
  -7  -3   0 5248.69 1695.55  19
  -7   3   0 4898.52 1463.81  19
  -3   7   0 1135.49 1161.42  22
   7   3   0 7136.92 2104.58   1
   7  -3   0 4407.48 1131.10   2
  -7  -3   0 6078.18 2993.99  21
   3   7   0 7022.01 1831.70   1
  -7  -3   0 6472.04 2706.10  10
  -7   3   0 2674.87 1333.32  11
  -7  -3   0 4577.44 1568.22  11
   3  -7   0 3113.72 1042.80  23
  -3   7   0 4565.09 2116.31   3
   7   3   0 5011.37 1089.09  23
   7  -3   0 5491.16 1460.15  23
  -3  -7   0 5581.68 3197.77  10
   3   7   0 5423.26 1461.90   3
   7  -3   0 4335.24 2149.57  20
   3   7   0 4621.47 2354.23  22
   3  -7   2 11312.2 2012.88  23
  -7  -3  -2 10669.0 3727.57  21
   3  -7  -2 8542.23 4157.63  20
  -3  -7   2 15690.1 3723.17  21
  -3  -7  -2 15418.1 3650.87  21
   7  -3   2 11773.4 3639.97  20
   3   7   2 14848.2 2905.40   1
  -7   3   2 12496.6 2332.70  19
  -7  -3  -2 15047.2 2908.50  19
   3   7  -2 12848.8 2396.44   1
  -7   3  -2 13380.5 2631.39  19
  -7   3  -2 10403.8 2848.61  24
  -7  -3   2 16155.8 2888.75  19
   7  -3  -2 12119.2 3505.23  20
   7  -3  -2 12383.6 2247.29   2
   7   3  -2 16921.4 3029.20   1
   7   3  -2 18093.2 3100.42   2
   3   7   2 12676.2 2451.28   3
  -3   7  -2 8083.55 3871.94  24
   7   3   2 16630.8 3128.48   1
  -7  -3   2 11750.4 3813.27  21
   7   3   2 14468.0 2709.95   2
   3   7  -2 12064.8 3133.17  22
  -3   7   2 13564.7 3482.29   3
  -7  -3   2 19121.6 3049.42  11
  -7   3   2 14371.9 2879.41  11
  -7   3  -2 11535.1 2752.01  11
  -7   3   2 12808.6 5107.41   3
  -7  -3   2 21584.5 4972.06  10
   7   3  -2 14398.4 2007.73  23
   7  -3  -2 13770.7 2247.51  23
   3  -7  -2 14113.6 2017.64  23
  -3  -7   2 16124.4 4610.05  10
   7  -3   2 13937.0 2262.73  23
  -7  -3  -2 17172.5 4337.98  10
   3  -7   2 7992.46 3445.95  20
  -3  -7  -2 13507.8 4585.84  10
  -3   7  -2 8719.34 3010.28   3
   3  -7  -2 9124.76 3101.55  10
  -3   7  -2 11638.2 3305.35  22
   3   7   2 9433.03 3251.27  22
  -7  -3   4 61253.8 5785.11  19
  -7  -3   4 48737.5 6856.80  21
  -7  -3  -4 49490.0 8326.75  21
  -3  -7  -4 59214.8 7336.26  21
  -3  -7   4 62763.1 7348.38  21
   3  -7  -4 33823.7 7572.33  20
   3  -7   4 33838.2 7144.44  20
   7  -3   4 52684.7 4566.62  23
   7  -3  -4 50995.1 6868.73  20
   7  -3   4 49365.8 7245.19  20
  -7  -3  -4 52500.5 5747.39  19
   3   7   4 62116.3 6133.11   1
   7  -3   4 51351.7 4951.46  18
   3   7  -4 37759.3 3656.21   1
   3   7   4 50712.4 4846.18  18
   7  -3  -4 52059.8 5321.02   2
  -7  -3  -4 56089.3 8277.86  10
  -3  -7   4 63604.5 9057.58  10
  -7   3   4 53602.8 4824.32  19
   7   3  -4 60977.9 5711.08   1
   7   3  -4 63221.6 6221.76   2
   3  -7  -4 53741.3 3944.81  23
   3   7   4 55613.9 5505.64   3
  -7   3  -4 54698.6 8016.31  24
   3  -7   4 51642.8 4475.68  23
   7   3   4 63300.9 6291.54   1
   3   7  -4 55120.1 5456.26   2
  -3   7   4 60783.9 7567.70   3
  -7  -3   4 60729.8 5775.80  11
  -7   3   4 48251.5 5270.01  11
  -3   7  -4 37838.6 8407.38  24
  -7   3   4 52726.5 10280.5   3
  -3   7  -4 25318.0 4613.42   3
  -3  -7  -4 53813.4 9506.77  10
   3  -7  -4 36927.4 6971.93  10
   7  -3  -4 53114.5 4480.15  23
  -7   3  -4 52264.1 5541.78  19
   3   7  -4 49806.4 6123.92  22
  -3   7  -4 50907.2 6406.91  22
   3   7   4 41274.5 6375.26  22
   3   7   6 5134.89 2431.41  22
   3  -7   6 5925.91 2946.20  20
  -7   3   6 8102.26 1898.46  19
  -3   7   6 8398.19 3096.00   3
  -7  -3   6 11071.7 2618.85  19
   3  -7  -6 8398.30 2293.79  21
  -3  -7   6 7945.72 2633.85  21
   3  -7  -6 11012.9 4240.10  20
   7  -3  -6 7455.96 2395.33  20
   7  -3   6 8266.08 2851.49  20
  -7   3   6 8496.02 4209.54   3
  -3  -7  -6 8195.87 2919.56  21
  -7  -3  -6 10131.3 2708.34  19
   3   7  -6 7440.32 1959.66   2
   7  -3   6 7428.17 2141.59  18
   7   3   6 6565.80 1661.18  18
   7   3   6 9958.68 2630.86   1
   3   7   6 6816.70 1971.05  18
   3   7   6 9277.71 2530.19   1
   3   7   6 7469.00 2325.86   3
  -3   7  -6 6764.37 4064.71  24
   7   3  -6 10629.4 2773.59   2
   7   3  -6 7839.68 1984.03   1
  -7  -3  -6 4491.75 2564.64  21
   7  -3   6 9348.76 2030.96  23
  -3  -7   6 10953.7 3979.13  10
   7   3  -6 8785.92 2336.54  12
  -3  -7  -6 5724.49 3432.27  10
  -7  -3   6 11383.6 2737.62  11
  -7   3   6 10422.3 2721.09  11
  -3   7  -6 10110.3 2675.92  22
   3   7  -6 6838.19 4074.62  24
  -7   3  -6 6327.63 3067.32  24
   3  -7  -6 9283.63 1770.89  23
   7  -3  -6 8151.29 1892.52  23
   3  -7   6 8239.21 2025.23  23
  -7  -3  -6 5668.73 2224.63  10
   7  -3  -6 9032.40 2639.57   2
   3  -7  -6 3420.57 2506.81  10
   3   7  -6 9758.96 2791.11  22
  -3  -7  -8 15270.9 4151.65  21
   7  -3   8 15984.4 2731.10  23
   3  -7  -8 9279.34 3814.75  20
  -7   3   8 8255.73 4426.12   3
   7  -3   8 15368.5 3869.34  20
   3   7  -8 13818.2 5680.20  24
  -7  -3   8 19826.0 3780.23  19
  -7   3   8 16509.7 3012.08  19
   7  -3   8 15989.3 3262.68  18
   7   3   8 17631.4 3101.06  18
   3   7   8 17184.2 3375.30  18
   7  -3  -8 16130.0 2803.87  23
   7   3   8 17343.8 3575.38   3
   7   3  -8 16409.3 3657.40   2
  -7  -3  -8 6084.90 3008.32  10
   3   7   8 17028.1 3857.00   3
   7   3   8 15501.0 3193.42   1
  -3   7  -8 8909.16 5164.44  24
   7   3  -8 16253.7 3571.90  12
   3   7  -8 12542.8 2770.33   2
  -3   7   8 16314.8 4317.76   3
  -7  -3   8 19030.6 3779.50  11
  -7   3   8 17970.7 3661.01  11
   7  -3   8 15184.5 4739.15   9
   3   7   8 13976.7 3419.57   1
  -3  -7  -8 13112.9 5612.13  10
  -7   3  -8 19106.9 5755.33  24
   3  -7   8 15224.1 2923.10  23
  -7  -3  -8 13294.2 4654.27  21
   3  -7   8 11465.5 3686.39  20
   7  -3  -8 12405.2 3141.24   2
   3   7  -8 17407.7 3810.35  22
  -3   7  -8 18998.8 3834.57  22
   3  -7  -8 13032.5 4983.43  10
   7   3  10 28237.0 4368.04   1
  -3  -7 -10 25038.3 5732.84  21
   7  -3 -10 40310.8 2151.61   8
   7   3 -10 29965.6 1937.34   8
   7  -3  10 30073.8 5245.66  20
  -7  -3 -10 41804.8 2673.36   7
   7  -3  10 24992.6 3730.93  23
  -7   3  10 28695.7 8379.61   3
  -7  -3  10 35045.0 5462.73  19
  -7   3  10 29197.5 4511.23  19
  -7   3 -10 38840.0 2926.07   4
   3  -7  10 27973.6 4801.66  18
   7  -3  10 24699.0 4286.38  18
   7   3  10 31535.1 4552.08  18
   3   7  10 29999.7 4849.16  18
  -3   7  10 28666.8 4947.94  18
   7  -3 -10 28138.0 5124.54   2
  -3   7  10 21698.2 2672.31   6
  -7   3 -10 32677.5 2450.28   7
  -3  -7 -10 35124.2 2437.92  17
  -3   7 -10 25748.0 8412.93  24
   7   3 -10 33269.2 5371.23   2
   7   3  10 36853.1 5410.52   3
   3   7  10 24315.2 4866.42   1
  -7  -3 -10 22360.2 6798.66  21
   3   7  10 25065.8 2930.58  13
   7  -3  10 30851.1 1895.72  25
   3   7  10 34080.7 5697.14   3
   7   3 -10 26129.9 4863.46  12
  -7  -3  10 40947.0 6031.01  11
  -3   7  10 34634.3 6783.60   3
  -7   3  10 31612.0 5176.14  11
   7  -3  10 24239.7 5853.41   9
   3  -7 -10 17050.6 6092.34  10
   3   7 -10 21927.5 7070.22  24
  -7   3 -10 21984.2 6587.74  24
   3   7  10 40014.2 2668.61   5
   7   3  10 32310.1 2252.41   5
   3  -7  10 26231.9 4122.52  23
   3   7 -10 34988.5 5680.86  22
  -3   7 -10 34808.0 5366.68  22
  -3  -7 -10 24750.1 7974.02  10
  -7  -3 -12 6097.14 3776.27  21
  -3  -7 -12 9896.42 5480.07  10
   7   3 -12 11217.4 3258.73   2
   7  -3 -12 15413.7 1400.05   8
   7   3 -12 11774.9 1239.32   8
  -3   7 -12 13560.4 1720.70   4
  -7   3 -12 13133.1 1625.31   7
  -7  -3 -12 14898.6 1735.78   7
  -7   3 -12 17187.3 2003.86   4
  -7  -3  12 15195.8 4015.46  19
  -7   3  12 10612.1 2889.11  19
  -3  -7 -12 15713.4 1587.17   7
   3  -7 -12 2376.16 2571.85  10
   3  -7  12 10847.3 3196.57  18
   7  -3  12 8717.69 2743.26  18
   7   3  12 10449.4 2867.38  18
   3   7  12 10160.3 3023.66  18
  -3   7  12 9639.70 2802.64  18
  -3  -7 -12 11871.3 1481.13  17
  -3   7  12 7415.46 1721.37   6
  -7   3 -12 11766.5 5209.15  24
   3  -7  12 7462.93 2332.49  23
  -3   7 -12 17887.5 7189.08  24
   3   7 -12 15421.7 1776.75  14
  -7  -3  12 15440.0 3992.33  11
  -7   3  12 12311.5 3455.55  11
  -3   7  12 13229.5 4043.11   3
   7   3 -12 9198.86 3089.79  12
   3  -7 -12 9884.17 3565.42   2
   7  -3  12 9887.87 1138.88  25
   7   3  12 10813.7 3099.93   3
   7  -3  12 10606.0 2582.66  23
   3   7  12 11663.8 3672.16   3
   7  -3 -12 13911.1 3966.14   2
   7  -3 -14 439.471 339.507   8
  -7   3 -14 577.759 374.702   7
  -7  -3 -14 835.304 509.383   7
  -3  -7 -14 752.525 437.660   7
  -3  -7 -14 151.148 257.892  17
  -7   3 -14 808.571 560.880   4
   3   7 -14 198.299 358.089  14
   7   3 -14 851.016 514.708  14
   7  -3  14 183.205 300.509  25
   7   3 -14 674.501 305.052   8
   7   3 -16 15693.8 1299.57   8
  -7  -3 -16 16905.4 1801.46   7
   7   3  16 16967.6 1768.62   5
  -7   3 -16 16453.7 1981.39   4
  -3  -7 -16 18738.0 1760.98   7
  -3  -7 -16 12956.2 1506.85  17
   7  -3  16 12471.3 1206.07  25
   3   7 -16 15961.5 1565.53  14
   7   3 -16 15209.1 1484.67  14
   7  -3 -16 18051.1 1494.26   8
   3   7  16 21077.5 2081.44   5
  -7   3 -16 15022.7 1641.71   7
   7  -3 -18 6504.67 882.685   8
  -7   3 -18 5313.39 923.501   7
   3   7  18 7838.51 1235.68   5
  -7  -3 -18 6337.64 1104.42   7
  -7   3 -18 6452.07 1203.05   4
   3  -7 -18 5062.24 855.728   7
  -3  -7 -18 4548.19 813.186  17
   3  -7 -18 5155.66 749.939  17
   3   7 -18 4971.08 794.237  14
   7   3 -18 5795.41 777.659  14
   7   3 -18 6410.42 771.748   8
  -3  -7 -18 6755.47 983.638   7
   7   3  18 6514.44 1065.48   5
  -7   3 -20 10838.6 1329.78   4
   7   3 -20 9638.40 811.744   8
  -7  -3 -20 11366.9 1226.96   7
  -3  -7 -20 12521.7 1133.96   7
   3  -7 -20 11454.6 1076.39   7
   7  -3 -20 10450.6 953.703   7
   3   7  20 14691.7 1382.76   5
   7  -3 -20 10530.8 929.099   8
   7   3  20 13164.7 1201.47   5
   7  -3 -22 8782.71 637.391   7
  -7   3 -22 10462.5 946.755   4
  -7  -3 -22 11182.2 992.000   4
   3  -7 -22 10044.2 735.543   7
   7   3  22 9066.60 667.292  25
   3   7  22 12268.3 925.698   5
   7   3  22 10039.6 784.872   5
  -7  -3 -22 8932.00 808.981   7
  -4   7   1 1545.13 1962.95  22
  -4  -7   1 934.401 969.476  21
  -4  -7  -1 324.532 715.745  21
   7  -4  -1 1548.36 1984.50  20
  -4   7   1 1576.35 1741.74   3
  -4   7  -1 1705.98 1188.22   3
   4  -7   1 727.803 1565.90  20
   7  -4  -1 2029.06 814.734   2
  -7  -4   1 1724.39 1569.15  21
  -7   4   1-209.234 2024.31   3
   7   4  -1 1507.64 1016.89   2
  -7  -4   1 1875.82 1160.25  19
  -7   4   1 925.523 695.896  19
  -7  -4  -1 616.325 721.904  19
  -7   4  -1 1705.23 944.807  19
  -4  -7   1 2470.40 2081.34  10
   7   4   1 1322.69 927.327   2
   4   7  -1 2042.12 850.725   3
   7  -4  -1 1032.49 771.316  23
   4   7  -1 1260.68 914.783   1
   4   7   1 1924.60 1112.14   1
  -7  -4  -1 1096.32 1506.39  21
   4  -7  -1 1396.79 879.550  23
   7  -4   1 910.880 795.576  23
  -4   7  -1 1406.72 1961.39  22
   4  -7  -1 549.791 1246.18  20
  -4   7  -1 1688.95 2076.44  24
   7   4  -1 1829.96 1143.25   1
   7   4   1 109.340 647.199   1
  -7  -4   1 1533.77 1046.92  11
  -7   4   1 280.906 425.913  11
   4  -7   1 1060.07 659.132  23
  -7   4  -1 1030.94 840.016  11
  -7  -4   1-617.316 1353.60  10
  -7  -4  -1 1102.62 2326.10  10
  -4  -7  -1 3162.44 2347.75  10
   4   7   1 1058.07 979.707   3
   7  -4   1 1575.60 1936.36  20
   4   7  -1-207.354 761.191  22
   4   7   1 748.307 719.524  22
  -4   7   3 1034.80 1528.95   3
  -4  -7   3 1215.52 1572.20  21
  -7  -4  -3 432.098 1115.08  21
   4  -7  -3 1125.13 1947.42  20
   4  -7   3 283.256 2072.26  20
   7  -4  -3-155.635 777.549  20
   7  -4   3 1471.23 1247.14  20
  -7   4   3-560.931 2047.41   3
   7   4  -3 1327.36 982.281   2
  -7  -4   3 1426.89 992.869  19
  -7   4   3 998.815 724.206  19
   4   7   3 1154.96 1037.30   1
   7   4   3 608.300 664.705   1
  -7   4  -3 1003.65 852.865  19
  -7  -4  -3 2642.07 1568.77  19
   7  -4   3 1420.25 903.021  23
   4   7  -3 2159.84 1001.33   1
  -4   7  -3 1474.91 1477.10  22
  -7  -4   3 2307.94 1643.25  21
  -7   4  -3 2019.80 1958.51  24
  -4   7  -3 753.962 1661.07  24
  -7  -4   3 87.2811 547.905  11
   4  -7   3 840.715 684.113  23
  -7   4   3 914.537 842.566  11
  -4   7   3 1177.03 605.448  11
  -7  -4   3 2155.28 2006.25  10
  -4  -7   3 1038.45 1316.07  10
   4   7   3 1600.26 962.625   3
  -7  -4  -3 2477.46 2463.96  10
  -4  -7  -3 3220.84 2396.67  10
   4  -7  -3 1354.54 819.178  23
   7  -4  -3 1389.30 862.114  23
   4   7  -3 913.334 984.189   2
   7  -4  -3 885.078 682.893   2
  -4  -7  -3 2080.71 1792.10  21
   4   7  -3 2212.25 1703.88  22
  -4   7  -3 3934.85 2153.33   3
   7   4  -3 97.0808 448.158   1
   4   7   3 2174.94 1524.81  22
   7   4  -5 4894.72 1526.20   1
  -7  -4  -5 1466.69 1628.88  21
  -4  -7  -5 4032.59 1985.64  21
   7  -4  -5 3155.31 1329.14   2
   7   4  -5 4939.93 1923.94   2
   7  -4  -5 335.265 936.278  20
   7  -4   5 2412.99 1690.59  20
   4  -7  -5 19.3958 1175.78  20
   4  -7   5 2110.64 1897.62  20
  -7  -4   5 2055.73 1365.58  19
  -7   4   5 3548.07 1256.63  19
  -7  -4  -5 3306.16 1639.48  19
   4   7  -5 3095.41 1380.03   2
  -7  -4  -5 3137.00 2584.00  10
  -4  -7   5 4101.58 2554.35  10
   4   7   5 3023.04 1480.56  18
   7  -4   5 1867.71 1149.33  18
  -4   7   5 5161.88 2427.83   3
  -4  -7  -5-855.443 2512.82  10
   7   4   5 5409.89 2002.59   1
  -7   4   5 1692.36 1267.02   3
   7  -4  -5 2890.86 1113.56  23
  -4   7  -5 3433.90 1351.48  22
   7   4   5 4193.38 1563.03   3
  -7  -4   5 2165.27 1195.63  11
   4  -7   5 2429.37 1103.91  23
   4   7   5 3839.58 2318.99  22
  -7   4   5 2124.88 1238.29  11
  -4  -7   5 4718.49 2153.71  21
  -7   4  -5 1158.81 1889.52  24
   4   7   5 4071.26 1870.15   1
   4  -7  -5 3525.28 1165.33  23
   7  -4   5 1685.59 958.797  23
  -4   7  -5 1127.74 2401.70  24
   4   7   5 2709.56 1418.61   3
   4   7  -5 3520.33 1733.94  22
   4  -7  -5 4799.07 2823.43  10
  -7  -4  -7-1781.36 1869.12  21
  -4   7   7 1396.52 1584.85   3
  -4  -7   7 2525.60 1538.34  21
   4  -7  -7 3938.93 2711.02  20
   7   4  -7 71.4160 646.026   2
  -7   4   7 62.4156 1208.62   3
  -7  -4   7 643.657 577.993  19
  -7   4   7 1722.65 983.474  19
   4   7   7 1866.49 1603.64   1
   4   7  -7 116.239 1000.40   2
   7   4   7-910.686 693.215  18
   4   7   7 603.190 406.935  18
   4  -7   7-508.423 853.778  23
   7  -4  -7 842.777 656.408  23
  -4  -7  -7 42.4879 558.228  21
   4  -7   7 106.272 672.878  20
  -4  -7  -7 643.066 2344.41  10
  -7  -4   7 739.792 757.551  11
  -7   4   7 733.124 811.524  11
   7   4   7 794.614 884.725   3
   7   4   7 608.923 752.525   1
   4  -7  -7 654.115 469.434  23
  -7  -4  -7-1693.35 2914.48  10
  -4   7  -7-480.736 2270.17  24
  -7   4  -7 699.205 2132.48  24
   7  -4   7-176.187 532.962  18
   4   7   7 126.794 520.636   3
   7  -4   7 1970.04 1523.46  20
   7  -4   7 1243.25 813.990  23
   7  -4  -7 2024.88 1291.69   2
   4   7  -7 340.902 886.727  22
  -4   7  -7 744.871 1031.05  22
   4  -7  -7 290.915 1038.71  10
   4   7   7 1232.73 957.627  22
   7  -4   9 2242.24 1917.23   9
   7   4   9 42.8090 434.469   1
  -7  -4  -9-1415.89 1878.34  21
  -4  -7  -9 153.582 822.494  21
   4   7   9 1380.27 807.744   5
   7   4   9 370.396 547.093   5
   7   4  -9 2507.65 1504.14   2
  -7   4   9 8422.91 4523.88   3
   4  -7   9 399.627 724.824  20
   7   4  -9 473.469 279.350   8
  -7  -4   9 978.854 1055.92  19
  -7   4   9 535.289 889.414  19
   4   7   9-202.316 526.893  18
   4   7  -9-2957.77 1434.38   2
  -7   4  -9 562.184 384.294   7
  -7  -4  -9 780.917 493.551   7
   4  -7   9-325.219 836.805  18
   7  -4   9-301.318 860.917  18
   7   4   9-251.275 458.307  18
   7  -4   9-528.905 609.635  23
  -7  -4  -9 77.4009 287.649  17
  -4   7  -9 1474.04 596.041   4
  -4  -7  -9-315.828 310.207  17
  -7   4  -9 209.838 516.016   4
  -4   7   9 536.953 708.110   6
   4   7  -9 681.105 3259.64  24
   7  -4   9-1118.72 1156.94  20
  -7   4   9 1979.68 1030.82   6
   4   7   9 528.044 622.103  13
  -7   4   9 671.625 855.859  11
   7   4  -9-958.201 1064.48  12
   7  -4   9-211.057 325.741  25
   7  -4  -9 1031.27 1077.13   2
  -4   7   9-2141.65 1986.31   3
   4  -7  -9 2432.53 1666.81   2
   7  -4  -9 473.313 361.054   8
   4  -7  -9-593.771 1377.00  10
  -7  -4   9 389.082 692.739  11
  -4   7  -9 1473.24 1514.91  24
  -7   4  -9-1249.38 1974.96  24
   7   4   9 439.300 706.763   3
   4   7   9 1859.94 1357.93   1
   4   7   9-183.398 621.092   3
   4  -7   9 1314.36 949.857  23
  -4  -7  -9 928.301 1867.49  10
  -7  -4  -9 830.390 1785.65  10
   4   7  -9-759.564 1356.57  22
   7   4 -11 723.104 978.043   2
  -7  -4 -11-4238.72 3057.91  21
  -7   4  11 1556.32 2390.25   3
   4   7  11 2569.62 1074.77   5
   7   4  11 2139.16 846.412   5
  -7  -4  11 2141.42 1155.92  19
  -7   4  11-197.256 610.490  19
  -7   4 -11 708.547 421.601   7
  -7  -4 -11 1046.36 550.896   7
   4  -7  11-476.838 816.030  18
   7  -4  11 397.303 628.484  18
   7   4  11 1746.35 1171.35  18
   4   7  11 123.397 462.102  18
   7   4  11 1569.23 1193.15   1
  -7   4  11 4284.17 2021.28  11
   4  -7 -11-1897.48 1601.55   2
  -4  -7 -11 798.530 392.693  17
  -4   7 -11 807.282 440.081   4
   7   4  11 1189.42 526.065   3
  -7  -4  11-2094.47 1520.77  11
  -4   7  11 1397.36 832.026   6
   7   4 -11 814.880 333.692   8
  -7   4 -11 1631.90 731.178   4
   7  -4 -11-485.974 860.285   2
   4   7  11-429.136 717.351   1
   7   4 -11 788.737 1814.39  12
   7  -4  11 1161.34 375.988  25
   4   7  11 895.615 1058.88   3
  -4   7 -11 609.064 1988.85  24
  -7   4 -11 3453.04 2436.13  24
  -4  -7 -11 2893.61 2114.04  21
   7  -4  11 182.511 480.709  23
   4  -7  11 1633.31 1281.61  23
  -4  -7 -11-16.4411 1704.81  10
  -4   7  11-1109.13 1023.38   3
   7  -4 -11 1080.91 351.912   8
   4   7  13 4525.08 1236.51   5
   7   4  13 3532.24 910.351   5
   7  -4 -13 3391.43 726.664   8
   7   4 -13 2106.54 563.996   8
  -7   4 -13 2204.87 698.875   7
  -7  -4 -13 2861.13 849.288   7
  -4  -7 -13 4001.24 851.953   7
   7   4  13-992.870 1037.86  18
  -4  -7 -13 3262.28 784.827  17
  -4   7 -13 2450.68 858.014   4
  -7   4 -13 3274.62 1024.42   4
   4   7 -13 2453.25 826.057  14
   7  -4  13 2381.00 559.377  25
   7   4 -13-688.343 1091.00  12
  -7   4 -13 1955.86 2553.49  24
   4   7  15 2273.07 969.369   5
   7   4  15 3159.82 966.304   5
  -7   4 -15 1049.14 532.851   7
  -7  -4 -15 1393.52 531.342   7
  -4  -7 -15 1041.67 482.213   7
  -4  -7 -15 876.265 471.261  17
  -4   7 -15 915.887 566.196   4
  -7   4 -15 1797.98 792.402   4
   4   7 -15 1185.50 613.512  14
   7   4 -15 701.565 472.002  14
   7   4 -15 1069.51 319.513   8
   7  -4 -15 1477.53 465.871   8
   4   7  17 160.281 697.558   5
   7   4  17-581.883 449.310   5
   7   4 -17 106.458 221.927   8
  -7   4 -17-266.107 308.332   7
  -7  -4 -17-204.700 397.366   7
  -4  -7 -17-153.886 216.263   7
  -4   7 -17-467.339 453.380   4
  -4  -7 -17-107.334 213.093  17
  -7   4 -17 150.733 441.720   4
   4   7 -17 177.486 278.498  14
   7   4 -17 457.654 341.039  14
   7  -4 -17 121.986 277.058   8
   4   7  19 1580.92 592.823   5
   7   4  19 2247.00 665.458   5
   7  -4 -19 1256.73 342.414   8
   7   4 -19 1930.67 386.521   8
  -7  -4 -19 1162.25 444.015   7
  -4  -7 -19 2044.14 522.948   7
   4  -7 -19 1400.41 456.295   7
  -7   4 -19 1503.45 562.731   4
   4   7 -19 727.142 215.698  14
   7   4 -19 940.021 299.541  14
   7   4  21 1766.08 431.733   5
   4   7  21 1260.72 458.630   5
  -7  -4 -21 1218.48 387.040   7
  -4  -7 -21 1082.86 269.353   7
   4  -7 -21 1257.55 312.868   7
   7  -4 -21 1467.41 331.208   7
  -7   4 -21 1054.42 428.231   4
  -7  -4 -21 1122.81 392.345   4
   7   4  21 924.699 257.653  25
  -7  -5   0 35589.2 6510.50  21
   7  -5   0 26338.3 6320.01  20
   5  -7   0 19530.3 5758.07  20
  -5  -7   0 34738.9 7558.86  10
  -7  -5   0 37388.5 4704.00  19
  -7   5   0 23620.9 7110.66   3
  -7   5   0 32162.3 3952.14  19
   7   5   0 35072.4 4147.16   3
   5   7   0 27224.8 3396.22   3
  -5   7   0 24971.1 5958.47   3
  -7  -5   0 36467.4 7239.00  10
   7   5   0 31816.6 4486.13   2
   7   5   0 31147.8 4513.86   1
   5   7   0 30042.2 4279.25   1
  -7   5   0 24401.4 4089.76  11
   7  -5   0 30804.4 3585.34  23
   5  -7   0 32120.2 3535.49  23
   5   7   0 26043.4 4240.72  22
  -5   7   0 22834.9 4938.33  22
  -5  -7   0 36569.4 6222.57  21
  -7  -5   2 17612.1 4628.74  21
   7  -5  -2 11395.4 4002.57  20
  -7  -5  -2 14097.2 4296.75  21
   5   7  -2 13289.3 2616.62   1
   5   7   2 14323.8 3099.70   1
  -5   7   2 12796.4 4360.06   3
   5  -7  -2 9879.20 4332.91  20
   7  -5   2 14036.4 4398.91  20
  -7   5   2 9573.35 4335.63   3
   5  -7   2 12326.8 4607.47  20
  -5   7  -2 10344.1 3754.07   3
  -7  -5   2 18334.0 3373.60  19
  -7   5   2 13768.2 2562.09  19
  -7  -5  -2 17029.1 3353.90  19
  -7   5  -2 13855.1 2723.78  19
  -7  -5   2 19272.8 5564.09  10
   7  -5  -2 16769.3 2668.89  23
   7  -5  -2 11474.0 2231.20   2
   7   5  -2 12754.0 2289.44   3
  -5  -7  -2 16659.8 4351.85  21
   5  -7  -2 16530.9 2521.82  23
   7   5   2 13929.6 2835.92   3
   5   7   2 15704.8 2840.61   3
   7   5  -2 13721.0 3021.40   2
   5   7  -2 16691.3 3308.18   2
   7   5  -2 14773.7 3006.74   1
  -7   5   2 16463.8 3212.38  11
  -5   7   2 11348.9 2578.31  11
   5   7   2 9830.34 2728.59  22
   7   5  -2 13874.0 2564.43  22
   7   5   2 15941.3 3334.63   1
  -5   7  -2 14666.1 5221.07  24
  -5  -7   2 19250.4 5825.46  10
   7  -5   2 15147.7 2534.34  23
   5  -7   2 15593.1 2589.39  23
  -7  -5  -2 15646.7 5171.10  10
  -5  -7  -2 12676.7 4735.95  10
   5   7  -2 14684.4 3156.26  22
  -5  -7   2 16507.3 4125.48  21
  -5   7  -2 11913.0 3457.95  22
  -5  -7   4 15799.3 4119.05  21
   7  -5  -4 5204.65 2575.25  20
  -7   5   4 5306.57 3391.14   3
  -7  -5  -4 8184.60 3411.31  21
  -5   7   4 5480.68 3201.77   3
  -7  -5   4 14369.6 3106.94  19
   5  -7  -4 7338.06 3777.97  20
   5  -7   4 9120.83 4032.97  20
   7  -5   4 12498.1 4200.60  20
  -7   5   4 10213.4 2134.57  19
   7   5  -4 7732.69 2366.68   2
   5   7  -4 6338.44 1713.06   1
  -7  -5   4 13919.3 5236.77  10
   5   7   4 9441.81 2607.26   1
  -7  -5  -4 11621.6 2876.63  19
   5   7  -4 5186.91 1843.27   2
   7  -5  -4 11621.9 2276.11  23
   7   5  -4 7964.29 2129.29   1
   5   7   4 10456.9 2998.07  22
   5  -7  -4 4772.74 1718.11   2
   7  -5  -4 6340.53 1870.26   2
  -7  -5   4 15268.0 4072.43  21
   7   5   4 8800.96 2578.67   1
   5  -7   4 10799.2 2235.50  23
  -7   5   4 12869.3 2894.73  11
  -5   7   4 9774.13 2323.17  11
  -5   7  -4 7496.28 4228.49  24
  -7   5  -4 10695.6 4235.01  24
   7   5   4 7814.75 2331.71   3
  -5  -7  -4 10766.7 3631.43  21
   5  -7  -4 10140.3 2014.10  23
  -5  -7   4 5503.22 3245.33  10
   7  -5   4 12963.1 2422.38  23
   5   7   4 6222.40 1931.80   3
  -7  -5  -4 5250.95 3976.26  10
  -5  -7  -4 9031.38 4242.89  10
   5   7  -4 8637.29 2624.56  22
  -5   7  -4 9224.67 2755.19  22
  -7  -5  -6 8961.77 3919.93  21
  -5  -7   6 12624.8 3479.14  21
   5  -7   6 4505.42 2574.55  20
   7  -5  -6 7629.93 3048.23  20
   7   5  -6 8110.36 2498.91   2
  -7   5   6 10832.1 2260.63  19
  -7  -5   6 12136.0 3063.54  19
   5   7  -6 6698.60 2302.34   2
   5   7   6 10132.7 2383.36  18
   7  -5   6 9269.27 2515.41  18
   5  -7   6 10227.0 2320.21  23
   5   7   6 7888.65 2447.98   1
   5  -7  -6 7686.04 3869.55  20
   5  -7  -6 6575.24 2294.97   2
   7   5   6 10295.6 2807.80   1
  -5   7   6 9045.26 3910.75   3
  -7   5   6 10520.5 2805.09  11
  -5   7   6 10192.1 2466.10  11
  -5   7  -6 10126.2 4718.88  24
  -7   5  -6 12149.9 4660.10  24
   7   5   6 9861.12 2660.42   3
   5  -7  -6 9051.97 1997.92  23
   7  -5  -6 10260.4 2228.48  23
   7  -5   6 9741.87 2261.03  23
   5   7   6 10612.8 2785.09   3
   7  -5   6 9046.48 3330.40  20
   7  -5  -6 8484.89 2441.98   2
  -7  -5  -6 3584.99 2435.55  10
  -5  -7  -6 7765.94 2923.05  10
  -5  -7   6 10595.0 4381.94  10
  -5  -7  -6 12757.2 4125.18  21
   5   7  -6 9329.84 2913.07  22
  -7   5   6 7639.81 5081.15   3
  -7  -5  -8 27563.8 7052.57  21
   5   7   8 29421.7 4981.60   1
  -5  -7  -8 28725.6 6585.04  21
  -5  -7  -8 40275.1 2708.41  17
   5  -7   8 25513.2 5795.35  20
   7  -5   8 32089.6 6211.27  20
   7   5  -8 30488.0 1795.18   8
  -7   5   8 28013.6 8643.21   3
   5  -7  -8 21817.6 6263.97  20
  -5   7  -8 36018.4 2974.42   4
  -7   5  -8 40134.5 3052.42   4
  -7  -5   8 33626.4 5372.61  19
  -5   7   8 24763.5 6881.90   3
   5  -7  -8 23707.1 4738.14   2
   5  -7   8 26118.2 4494.15  18
   7  -5   8 27619.0 4513.56  18
   5   7   8 31435.1 4576.83  18
   7  -5  -8 26512.8 4679.38   2
  -7  -5  -8 29019.0 7910.26  10
  -7  -5  -8 37155.6 2655.53  17
  -5   7   8 27378.8 3222.10   6
  -7   5   8 30878.0 3439.05   6
   7   5   8 28233.8 4682.58   1
   7   5   8 31819.3 2800.17  15
   5   7   8 37312.9 2545.00   5
   7   5   8 30629.4 5048.08   3
   7   5  -8 30381.3 5128.24   2
   5   7   8 35086.0 5447.08   3
   5   7  -8 27184.6 4663.64   2
  -7   5   8 29634.6 4842.61  11
   5   7  -8 38739.9 2459.88   5
   7   5  -8 36389.0 2371.89   5
   7  -5   8 30011.3 4108.28  23
  -5  -7  -8 33524.2 9024.31  10
  -5   7  -8 23535.5 8053.61  24
  -7   5  -8 30663.0 7881.23  24
   5  -7  -8 30976.0 3856.63  23
   7  -5  -8 28396.0 3847.11  23
   5  -7   8 30017.0 4221.98  23
   5   7  -8 35627.9 5623.81  22
   7   5   8 34953.1 2352.77   5
   7  -5  10 14964.3 4704.66   9
  -7  -5 -10 10337.7 4977.07  21
  -5   7  10 10731.9 4564.42   3
  -5   7  10 10451.8 2179.59   6
   7   5 -10 14104.5 3663.68   2
   7  -5  10 12508.2 3538.54  20
  -5   7 -10 14348.4 1829.27   4
  -7  -5 -10 15337.2 1709.26   7
   5   7 -10 10352.4 2838.16   2
  -7  -5  10 13820.9 3476.20  19
   5  -7  10 10278.0 3024.85  18
   7   5  10 14255.0 1605.30   5
   7  -5  10 12864.8 3251.13  18
   7   5  10 10187.0 2905.25   1
   5   7  10 12370.9 3161.20  18
  -7  -5 -10 14414.4 1705.51  17
  -5  -7 -10 16204.3 1761.97  17
   7  -5 -10 13094.4 1319.19   8
   7   5  10 14088.2 1840.58  15
   5   7  10 10638.4 1751.78  15
   5   7  10 15867.3 1790.52   5
  -7   5  10 13550.1 3655.31  11
  -7   5  10 10077.7 1925.77   6
  -5  -7 -10 14432.6 4947.29  21
   7   5  10 11474.5 3254.90   3
   5   7  10 11377.8 3255.55   1
  -7   5 -10 15040.8 1951.53   4
   5  -7 -10 9715.32 3333.18   2
  -5   7 -10 13161.0 6231.10  24
  -7   5 -10 14089.5 5921.88  24
  -7   5  10 15168.6 6338.03   3
   7  -5  10 12307.7 2741.43  23
   7  -5 -10 11588.1 3373.26   2
   5   7  10 13984.9 3680.32   3
   5  -7  10 11093.6 2645.46  23
  -5  -7 -10 8116.60 4899.33  10
  -7  -5 -10 7841.84 4584.63  10
   7   5 -10 12049.2 1178.61   8
  -7  -5 -12 3428.62 2972.32  21
   5   7  12 7825.88 1357.78   5
   7   5  12 5852.60 1107.15   5
   7   5 -12 3831.88 708.858   8
  -7   5  12-6502.48 4498.32   3
  -5  -7 -12 5628.14 3262.96  21
  -7  -5 -12 6227.35 1118.86   7
   5  -7  12 3600.23 1946.90  18
   7  -5  12 3616.14 1582.59  18
   5   7  12 4464.64 2069.43  18
  -7  -5 -12 5534.18 1112.48  17
  -5  -7 -12 5674.78 1129.38  17
  -7  -5  12 3303.33 1999.11  19
  -7   5 -12 6783.65 1364.72   4
  -5   7  12 3134.22 1174.38   6
   5   7  12 4661.30 1251.57  15
   7  -5 -12 5101.11 852.682   8
  -5   7 -12 6083.08 1209.64   4
  -7   5  12 8427.45 2870.89  11
  -5   7 -12 2604.01 3132.18  24
  -7   5 -12 5418.73 3183.04  24
   7   5 -12 8991.82 2981.30   2
   7  -5  12 4745.61 1787.97  23
   5  -7  12 1972.64 1247.06  23
   5   7  12-4344.26 2127.65   1
  -5  -7 -12 2839.97 3368.80  10
   7  -5 -14 3432.32 677.687   8
   5   7  14 4219.34 1056.10   5
   7   5  14 2792.26 789.957   5
   7   5 -14 2585.36 519.237   8
  -7  -5 -14 3262.28 876.245   7
  -5  -7 -14 3003.48 784.902   7
  -5  -7 -14 2577.13 748.011  17
  -5   7 -14 3464.99 986.583   4
  -7   5 -14 3359.85 997.948   4
   5   7 -14 3482.85 867.138  14
   7  -5 -16 18115.6 1479.38   8
  -5   7 -16 15695.4 1835.90   4
   5   7  16 21208.5 2058.65   5
  -7   5 -16 18741.8 2100.53   4
  -7  -5 -16 19739.0 1916.94   7
  -5  -7 -16 19842.3 1830.84   7
  -5  -7 -16 17071.4 1744.51  17
   7   5 -16 17051.3 1245.10   8
   5   7 -16 19857.5 1692.44  14
   7   5 -16 20689.5 1735.64  14
   7   5  16 18462.3 1810.99   5
   7   5 -18 3648.99 523.137   8
   5   7  18 5696.15 1040.16   5
   7   5  18 4094.25 834.381   5
   7  -5 -18 3102.88 557.577   8
  -5  -7 -18 4340.99 789.730   7
  -7  -5 -18 3360.82 718.810   7
  -5   7 -18 2595.63 635.993   4
  -7   5 -18 3341.71 867.344   4
   5   7 -18 4240.39 699.951  14
   7   5 -18 4171.83 660.279  14
   5   7  20 1578.55 522.816   5
  -7  -5 -20 1702.21 433.104   7
  -5  -7 -20 1050.05 247.078   7
   5  -7 -20 1513.55 356.139   7
   7  -5 -20 1794.86 408.029   7
  -7   5 -20 2006.12 561.275   4
  -7  -5 -20 2675.76 626.942   4
   7   5  20 2679.92 586.873   5
   6   7  -1 39292.8 4990.19   1
  -7  -6  -1 40624.0 7652.43  21
  -6  -7  -1 47767.4 7988.85  21
   6   7   1 41810.3 5297.06   1
  -6  -7   1 49150.5 7824.83  21
   6  -7  -1 29148.3 7242.90  20
   6  -7   1 31894.2 7524.79  20
   7  -6  -1 32000.6 7310.93  20
   7  -6   1 30423.4 6928.74  20
  -7   6   1 24251.0 7329.78   3
  -7  -6   1 47178.3 5513.02  19
  -7  -6  -1 49825.0 5734.92  19
  -7   6  -1 25220.3 7215.04   3
  -6   7   1 25788.9 6572.75   3
  -7   6   1 30113.5 5481.43  22
   6  -7   1 39513.1 4238.94  23
   7  -6   1 40327.1 4302.84  23
  -6   7  -1 26774.0 7286.71   3
   7   6   1 39049.1 4690.19   3
   7   6  -1 37965.7 4177.27   3
   6   7   1 40992.6 4601.86   3
  -7  -6   1 46708.2 7909.88  21
  -6   7  -1 27220.9 6710.48  24
   7   6  -1 42136.6 5523.55   2
   6   7   1 34719.1 4688.46  22
   6   7  -1 39999.0 5349.36   2
  -7   6   1 30342.4 4699.75  11
  -6   7  -1 39220.7 6161.41  22
  -7  -6   1 43572.3 8751.67  10
  -6  -7   1 42339.7 8884.34  10
  -7  -6  -1 48982.7 9245.58  10
  -6  -7  -1 40437.2 8768.27  10
   7  -6  -1 40020.3 4240.63  23
   6  -7  -1 40680.1 4176.44  23
   7   6   1 43462.2 5518.97   1
   7   6  -1 43529.6 5452.78   1
   6   7  -1 39610.0 5018.09  22
  -6   7   1 32867.5 6128.58  22
  -7  -6   3 30584.9 6464.77  21
   6   7   3 28359.4 4577.68   1
   7  -6   3 22767.4 5858.35  20
   6  -7  -3 22315.5 6180.84  20
  -7  -6  -3 26796.3 6382.77  21
  -6  -7   3 27925.4 7671.73  10
   7  -6  -3 22147.9 5937.35  20
  -7   6   3 12791.9 5439.45   3
  -7  -6   3 28130.6 4328.02  19
  -7  -6  -3 32721.2 4845.11  19
  -6  -7   3 31982.7 6180.44  21
   7   6   3 21584.0 4206.13   1
  -6  -7  -3 24453.7 5905.88  21
   6  -7   3 13046.7 4602.49  20
   7   6   3 22732.3 3832.56   3
   7  -6   3 26712.2 3616.04  23
  -7   6  -3 20401.7 5731.91  24
   6   7   3 21784.2 3758.58   3
   7   6  -3 21929.1 4117.76   2
   7  -6  -3 27253.1 3533.50  23
   6   7  -3 23486.1 4243.21   2
   6  -7  -3 24530.4 3316.78  23
  -7   6   3 22432.8 3972.95  11
  -6   7   3 20643.2 3680.62  11
  -6   7  -3 18991.0 6125.33  24
   7   6  -3 22517.4 3806.97   1
  -7  -6   3 26390.7 7175.21  10
  -6   7   3 15849.4 5456.93   3
   6  -7   3 25353.5 3502.70  23
  -7  -6  -3 20753.5 6609.39  10
  -6  -7  -3 21332.6 6854.91  10
   7   6  -3 26315.2 3963.52  22
   6   7  -3 25173.4 4239.63  22
   6   7  -3 20053.8 3433.95   1
  -7  -6  -5 17219.8 5517.52  21
  -6  -7   5 16642.5 4356.14  21
   6   7   5 13073.2 3313.63   1
   6  -7  -5 15505.5 5184.42  20
  -6   7   5 6244.86 4176.15   3
   6  -7   5 14432.6 4891.75  20
  -6   7  -5 13737.8 1934.88   4
  -7  -6   5 19409.8 3723.88  19
   7   6  -5 10343.6 2927.72   2
   6   7  -5 11339.6 3013.82   2
   6   7  -5 15328.8 3506.30  22
   6  -7  -5 15381.4 2707.97  23
  -6   7   5 13084.2 2474.07   6
   7  -6   5 15946.9 4769.94  20
   7  -6   5 15637.4 2859.13  23
   6   7   5 15684.0 2028.75  15
   7   6   5 12236.6 3021.35   3
  -7   6   5 13075.4 2424.99   6
  -7   6  -5 11533.5 4724.67  24
  -6  -7  -5 14565.8 4915.06  21
   6   7  -5 15187.5 1518.55   5
   7  -6  -5 12375.7 4340.15  20
   7   6  -5 15080.5 1500.30   5
  -7  -6  -5 11546.3 5209.96  10
  -7   6   5 15344.1 3305.94  11
  -6   7   5 15108.7 3102.98  11
  -7   6  -5 15747.8 1973.85   4
  -6   7  -5 11703.3 5329.76  24
   6  -7  -5 10365.8 2687.52   2
   6   7   5 15300.8 1558.64   5
   7   6   5 15214.7 1540.57   5
  -6  -7   5 13374.5 6020.76  10
   7  -6  -5 15381.2 2718.80  23
  -7  -6   5 16316.6 6050.84  10
   6   7   5 11506.3 2931.44   3
   6  -7   5 16654.2 2979.67  23
   7  -6  -5 7714.21 2249.59   2
  -7   6   5 12027.9 4903.05   3
  -6  -7  -5 5982.51 3859.73  10
   7   6   5 13033.9 3416.28   1
  -7  -6  -7 12929.5 4904.64  21
  -6  -7  -7 8295.09 3745.73  21
   7   6   7 10834.0 3032.38   1
  -6   7   7 5464.28 4612.88   3
  -7   6   7 14320.4 5923.42   3
  -7  -6   7 16219.1 3694.52  19
   6  -7  -7 3407.38 2481.18  20
   7  -6   7 8016.61 3205.38  20
  -6   7  -7 11144.4 1726.22   4
  -7   6  -7 11009.9 1735.73   4
   7   6  -7 7834.45 2658.02   2
   6   7  -7 8709.55 2663.97   2
   6  -7   7 10729.6 2785.84  18
   7  -6   7 11247.4 2949.77  18
   7  -6   7 10464.7 2444.25  23
  -7  -6  -7 15725.4 1772.89  17
  -6  -7  -7 16857.1 1793.87  17
   7   6   7 12693.3 1854.49  15
   6   7   7 11244.3 1789.79  15
   6   7   7 6186.79 2338.78   1
  -6   7   7 8843.78 2176.81   6
  -7   6   7 9788.26 2085.16   6
   6   7  -7 11593.3 1393.28   5
   7   6  -7 11286.3 1384.54   5
   6  -7   7 14315.7 4395.87  20
  -7   6   7 8950.61 2761.19  11
  -6   7   7 9906.98 2601.05  11
  -6   7  -7 12647.7 5574.46  24
  -7   6  -7 12400.8 5283.11  24
   6  -7  -7 8241.31 2676.00   2
   6   7   7 10158.3 1375.02   5
   7   6   7 9950.09 1312.49   5
   6  -7  -7 12425.0 2478.39  23
  -6  -7   7 10684.3 5430.37  10
   6   7   7 10268.1 2937.97   3
   7  -6  -7 5949.26 2309.85   2
   6  -7   7 11746.7 2634.84  23
  -7  -6  -7 5102.74 2010.87  10
  -6  -7  -7 3234.22 2380.63  10
   7   6   7 11958.1 3199.26   3
   7  -6  -7 11705.4 2505.11  23
  -7  -6  -9 14842.8 5467.04  21
   7   6   9 13576.7 3383.04   1
  -6   7   9 13341.7 5501.30   3
   6   7   9 15172.8 3712.42   1
   7   6  -9 14996.5 1253.63   8
   6   7  -9 8856.91 2953.04   2
   7  -6   9 15516.8 4171.03  20
  -6   7  -9 17947.0 2150.71   4
  -7   6  -9 17533.1 2144.80   4
   7   6  -9 13210.7 3574.67   2
  -7  -6   9 20388.4 4398.02  19
   6  -7   9 17819.5 3949.86  18
   7  -6   9 15715.0 3569.03  18
   6   7   9 21593.2 3941.47  18
  -7  -6  -9 20517.8 2095.71  17
  -6   7   9 15199.9 2476.73   6
  -6  -7  -9 22813.9 2200.43  17
  -7   6   9 10077.9 5146.36   3
   7   6   9 17811.6 2273.92  15
   6   7   9 17350.3 2257.87  15
  -7   6   9 12025.8 2306.64   6
   7   6   9 18350.2 4097.76   3
  -6  -7  -9 18478.4 5879.28  21
   6   7   9 16115.7 3911.15   3
   6  -7   9 15692.2 4318.85  20
  -7   6   9 15176.3 3551.43  11
  -6   7  -9 14913.5 5528.75  24
  -7   6  -9 21949.4 7607.62  24
   6  -7  -9 10517.8 3217.80   2
   6   7   9 19421.5 1932.57   5
   7   6   9 17773.9 1827.64   5
   7  -6   9 16865.9 3237.55  23
   7  -6  -9 10243.3 3082.90   2
   6  -7   9 16133.0 3331.84  23
  -6  -7  -9 16275.4 6856.58  10
  -7  -6  -9 10237.2 5366.91  10
  -7   6  11 19840.2 7463.21   3
  -7  -6 -11 18878.2 6705.94  21
  -6  -7 -11 19125.3 6245.48  21
   7   6 -11 13528.6 1219.62   8
  -6   7  11 17915.3 6652.29   3
  -6   7 -11 16808.5 2138.58   4
  -7   6 -11 17669.8 2161.86   4
   7   6  11 13482.3 3695.12   1
   7   6 -11 13430.1 3571.93   2
  -7  -6  11 25073.1 5200.30  19
   6  -7  11 9612.46 3024.03  18
   7  -6  11 12461.3 3184.51  18
   6   7  11 13319.2 3347.55  18
  -7  -6 -11 18802.4 2101.65  17
  -6   7  11 12233.0 2276.29   6
  -6  -7 -11 19343.8 2075.41  17
  -7   6  11 13285.1 3445.32  11
   7   6  11 18747.8 2176.45  15
   6   7  11 17002.1 2155.43  15
  -7   6  11 10975.3 2016.02   6
  -7   6 -11 19146.4 7215.48  24
   6  -7  11 13322.3 3121.07  23
  -6   7 -11 16960.5 8082.12  24
   6  -7 -11 11997.3 3620.35   2
   6   7  11 17484.4 1897.68   5
   7   6  11 17802.3 1845.83   5
   7  -6  11 15343.1 3201.02  23
   7  -6 -11 10466.3 3347.94   2
  -6  -7 -11 3073.34 3264.35  10
   6   7  11 14432.3 3893.85   1
  -7  -6 -11 2334.83 2893.90  10
   7  -6 -13 10468.8 1187.47   8
   7   6 -13 9041.95 954.707   8
  -6   7 -13 10414.2 1742.02   4
  -7   6 -13 11524.4 1777.11   4
  -7  -6 -13 11784.2 1487.69   7
   6   7  13 12481.4 1634.61   5
  -6  -7 -13 11594.6 1555.52  17
  -6   7  13 6649.06 1622.30   6
   7   6  13 11683.5 1516.62   5
   7   6 -15 8731.78 907.128   8
   7  -6 -15 10012.7 1075.65   8
  -6   7 -15 8099.36 1486.30   4
  -7   6 -15 9059.43 1469.76   4
  -7  -6 -15 10464.8 1428.12   7
  -6  -7 -15 10585.9 1361.72   7
  -6  -7 -15 9971.15 1426.77  17
   6   7 -15 13209.0 1527.47  14
   7   6 -15 12460.2 1428.75  14
   7   6  15 10101.8 1400.86   5
   6   7  15 11322.0 1512.81   5
   7  -6 -17 4548.04 656.894   8
   6   7  17 7138.10 1098.09   5
  -6   7 -17 6153.15 1095.95   4
  -7  -6 -17 5165.93 903.849   7
  -6  -7 -17 5218.35 905.035   7
  -7   6 -17 4998.00 1030.17   4
   6   7 -17 7145.77 975.403  14
   7   6 -17 7284.16 940.077  14
   7   6  17 5919.66 989.906   5
   6   7  19 4545.92 805.716   5
   6  -7 -19 2796.37 542.730   7
  -7  -6 -19 3086.00 612.538   7
  -6  -7 -19 3706.68 606.138   7
  -6   7 -19 2575.24 607.073   4
  -7   6 -19 3933.37 821.591   4
   6   7 -19 4538.42 611.395  14
   7   6 -19 4660.14 599.391  14
   7   6  19 3882.44 744.207   5
   6   7  21 3586.35 503.366   5
   6  -7 -21 2284.35 340.036   7
   7  -6 -21 2471.53 358.288   7
   7   6  21 3402.78 502.319   5
  -7  -7   0 24110.9 6137.50  21
  -7   7   0 26922.1 2730.90   4
   7  -7   0 22898.9 6294.46  20
  -7   7   0 17934.4 5995.23   3
   7   7   0 26103.1 1979.96   5
   7  -7   0 25042.3 3546.67  23
  -7  -7   0 22493.2 6804.24  10
   7   7   0 24808.7 4227.78   1
  -7   7   2 2905.76 2168.49  22
   7   7   2 548.645 409.918   5
  -7  -7  -2-795.725 1360.02  21
  -7  -7   2 3918.57 2446.32  21
   7  -7   2-933.844 1445.34  20
   7  -7  -2-386.351 1207.22  20
  -7   7   2 3534.70 2926.82   3
  -7   7   2 1058.74 629.400   4
  -7   7  -2 596.926 440.719   4
   7   7  -2 2463.45 1436.95   2
   7  -7   2 288.570 749.651  23
   7  -7  -2 516.434 592.131  23
   7   7   2 571.615 412.363  15
  -7   7   2 2312.61 1285.41   6
  -7   7   2-1743.67 1237.12  11
   7   7   2 1334.47 989.188   3
  -7  -7   2-2282.24 2809.51  10
   7   7  -2 2141.33 1256.85   1
  -7  -7  -2 5942.30 4703.25  10
   7   7   2 1088.25 1180.67   1
   7   7  -2 1085.23 407.653   5
   7   7   4 1160.19 1021.01   1
  -7  -7   4 2055.21 1778.41  21
   7  -7  -4 1265.81 1752.99  20
  -7   7   4-727.474 1542.49   3
  -7  -7  -4-857.638 1439.63  21
   7  -7   4-1174.83 1506.22  20
   7   7  -4-1170.37 1083.48   2
   7   7  -4 374.184 389.952   5
  -7   7  -4-188.322 572.095   4
  -7  -7  -4 763.322 464.173  17
   7   7   4 350.922 494.466   5
   7   7   4 704.346 442.673  15
  -7   7   4-1059.41 1357.09   6
   7  -7  -4-40.7502 480.906  23
   7  -7   4-454.393 572.881  23
  -7   7   4 131.723 1043.99  11
  -7   7  -4-4808.15 3264.41  24
   7   7   4 730.938 835.169   3
  -7  -7   4 206.874 2479.78  10
  -7  -7  -4 2233.90 3257.85  10
   7   7  -4 1262.92 1117.80  22
   7   7  -4 314.253 521.087   1
  -7   7   6 2558.32 2694.53   3
   7  -7  -6-1319.99 1554.03  20
   7  -7   6-2500.22 1938.02  20
   7   7   6-320.149 722.332   1
   7  -7   6-1002.95 954.619  18
   7   7  -6-179.106 970.721   2
  -7  -7   6 1205.42 3745.51  10
  -7   7  -6 567.201 530.257   4
   7  -7   6 1062.93 1044.76  23
  -7  -7  -6-38.5951 454.620  17
   7  -7  -6-871.938 752.515  23
  -7  -7  -6 2778.21 1930.87  10
   7   7   6-289.843 668.799  15
  -7   7   6 2355.79 1257.49   6
  -7  -7  -6 3321.48 2571.45  21
  -7   7   6 1629.92 1195.82  11
   7   7  -6 1034.76 508.387   5
   7   7   6 1594.54 1216.63   3
   7  -7  -6 509.134 777.766   2
  -7   7  -6 575.893 3167.53  24
   7   7   6 428.145 605.884   5
  -7  -7  -8 1764.18 1997.98  21
   7  -7   8-162.960 491.369  23
   7   7  -8 1105.04 1094.00   2
   7  -7   8 491.563 951.951  20
   7   7   8 1481.58 811.680   5
   7  -7   8 2043.61 1407.06  18
  -7  -7  -8-90.1728 381.179  17
  -7  -7  -8-8296.46 4896.98  10
  -7   7   8-3073.53 3009.45   3
   7   7   8-83.1087 488.591  15
  -7   7   8 2770.76 1343.45   6
   7   7   8-1767.66 1378.27   1
  -7  -7   8-5339.77 4343.02  10
   7   7  -8 727.430 631.616   5
  -7   7  -8-3249.51 3215.40  24
   7  -7  -8 1211.49 1100.88   2
   7   7   8 542.166 744.233   3
   7  -7  -8 1176.04 883.988  23
  -7   7  -8 9.32737 610.487   4
  -7  -7 -10-1022.38 1784.37  21
   7   7 -10-2116.60 1490.63   2
   7  -7  10-1146.81 1583.28  18
  -7   7 -10 123.049 484.026   4
  -7  -7 -10-161.871 307.366  17
   7  -7  10 1076.75 935.802  23
  -7   7  10 560.944 1006.16   6
   7   7  10 136.491 469.644  15
  -7   7 -10 1702.60 2397.90  24
   7   7  10 1304.30 539.400   5
   7   7  12 713.061 632.569   5
  -7   7 -12 1196.45 783.565   4
  -7  -7 -12 2442.99 837.276  17
  -7   7  12 163.555 730.033   6
   7   7  12 2363.07 842.086  15
   7   7  14 3728.22 989.508   5
  -7   7 -14 3323.15 1003.12   4
   7   7 -14 4876.18 983.456  14
   7   7  16 1941.04 701.897   5
  -7  -7 -16 585.853 351.118   7
  -7   7 -16 2043.68 760.202   4
   7   7 -16 630.702 387.123  14
   7   7  18-333.761 399.830   5
  -7  -7 -18 419.143 322.941   7
  -7   7 -18 339.609 289.590   4
   7   7 -18-170.189 245.990  14
   7  -7 -20 338.955 184.814   7
   7   7  20 133.539 170.370  25
   8   0   0 1142.24 1966.85   9
   0   8   0 1739.48 999.314   3
   8   0   0 1622.84 937.544   2
   8   0   0 1960.90 1432.40  20
  -8   0   0 6204.73 3872.86  21
   8   0   0 2545.90 1130.26  23
  -8   0   0 2594.20 1480.20  19
  -8   0   0 3295.49 1638.70  11
  -8   0   0 3573.85 1792.60  10
   0  -8   0 2599.18 2659.73  10
   0  -8   0 5138.12 2325.04  21
   0   8   0 2583.79 2046.59  22
   8   0   2 8833.87 3446.86   9
  -8   0  -2 7994.51 3473.04  21
   0  -8  -2 10970.4 3228.63  21
  -8   0   2 5334.26 2784.86  21
   0   8  -2 5483.56 1578.30   3
  -8   0  -2 12200.1 2747.00  19
   8   0  -2 10057.0 3408.96   9
  -8   0   2 10990.5 2537.30  19
   8   0   2 9089.64 2559.28   1
   8   0   2 9369.64 1857.83  23
   0   8  -2 9060.56 3105.76  22
   8   0  -2 6632.89 2008.81   2
   0   8   2 8304.18 2336.71   3
   8   0   2 10882.9 3136.89  20
   8   0   2 7735.17 1686.01   2
   0  -8  -2 7075.13 3198.14  10
  -8   0   2 10134.9 2634.55  11
  -8   0  -2 7353.15 2242.59  11
   8   0  -2 10349.1 1904.22  23
   0  -8   2 10503.5 3456.51  10
   8   0  -2 10640.9 2686.55  20
   0   8   2 7632.85 3307.41  22
   0  -8  -4 20129.1 4174.63  21
   8   0   4 15479.4 4760.02   9
   8   0  -4 15447.4 4004.76   9
  -8   0  -4 14127.3 5238.81  21
   0  -8   4 12642.6 4516.64  20
   8   0   4 21520.3 4460.33  20
  -8   0   4 19917.3 3451.47  19
  -8   0  -4 20710.2 3763.24  19
   8   0  -4 16640.3 3304.25  20
   8   0   4 17844.4 3395.12   1
   8   0  -4 14536.0 2987.04   2
   0   8  -4 17917.4 3987.68  22
   0   8  -4 13456.9 5566.30  24
   0   8   4 14323.7 3122.77   3
   0  -8  -4 15479.0 5112.71  10
  -8   0   4 13537.0 3002.37  11
  -8   0  -4 22592.6 4897.46  24
   8   0   4 19694.9 2616.01  23
   8   0  -4 20658.1 2825.91  23
   0  -8   4 12474.5 3691.24  10
   0  -8   4 15807.6 2339.67  23
   0  -8  -6 13295.5 3367.91  21
   8   0  -6 9219.45 2658.65   2
   8   0   6 11730.6 3295.09  20
  -8   0   6 10389.7 2645.58  19
   8   0   6 11716.6 2428.97  18
  -8   0  -6 12185.7 3046.58  19
   8   0   6 9926.02 4141.06   9
   0   8  -6 11343.8 3443.55  22
   0   8  -6 8081.17 5182.31  24
   8   0   6 10283.8 2577.01   1
  -8   0  -6 10928.1 4713.42  21
   0  -8   6 15318.6 2714.41  23
   8   0   6 14199.4 2319.57  23
   0  -8   6 7442.68 3262.88  20
  -8   0   6 8406.91 2635.66  11
  -8   0  -6 9155.89 3883.35  24
   8   0  -6 11442.6 2229.63  23
   0  -8  -6 8766.08 4614.55  10
   0   8   6 8785.36 2946.65   3
  -8   0  -8 11568.0 5137.19  21
  -8   0   8 18252.0 3726.78  19
  -8   0  -8 16874.0 1754.06   7
   8   0   8 12838.7 4507.55   9
   8   0   8 14128.5 2901.33  18
   0   8   8 14764.3 3379.70  18
   0  -8  -8 5432.60 3670.07  10
   8   0  -8 14439.4 3416.26   2
   0  -8  -8 16099.6 3790.94  21
   0  -8   8 14065.6 2888.55  23
   0   8   8 15220.6 3862.14   3
   8   0   8 14482.8 3067.05   1
  -8   0   8 13446.9 3468.13  11
   0   8  -8 8103.86 4972.55  24
  -8   0  -8 9967.25 4170.93  24
   8   0   8 17771.6 2777.73  23
   8   0   8 15905.7 3948.22  20
   0   8  -8 14364.8 3551.00  22
   8   0  10 22914.3 6051.56   9
  -8   0 -10 19025.0 7193.26  21
   8   0 -10 27408.3 1855.96   8
  -8   0 -10 25033.6 2253.22   7
   0  -8  10 23873.8 4490.09  18
   8   0  10 21747.0 3854.03  18
   0   8  10 26095.5 4801.17  18
   8   0 -10 23505.9 4756.19   2
   0   8 -10 15733.3 6896.42  24
   0   8 -10 39139.6 2426.19  14
   0   8  10 18365.9 2599.27  13
   0   8  10 25085.0 5368.30   3
  -8   0  10 27795.6 5234.41  11
  -8   0  10 26192.2 4637.68  19
  -8   0 -10 20384.7 6360.06  24
   8   0  10 27138.3 5389.18  20
   0  -8  10 24164.9 4155.79  23
   0   8 -10 28104.5 5121.58  22
   0  -8 -10 22134.0 7522.47  10
   8   0 -12 16269.6 4024.95   2
   8   0 -12 18640.4 1572.36   8
  -8   0  12 13963.1 3604.98  19
   0  -8 -12 17527.8 1682.44   7
   0   8  12 19541.8 4599.01  18
   0  -8  12 14970.5 3609.51  18
   8   0  12 17265.2 3782.91  18
   0   8 -12 25400.5 1994.17  14
  -8   0 -12 15616.4 1946.56   7
   0   8  12 15698.0 2443.66  13
   8   0 -12 20274.9 4629.71  12
  -8   0  12 26530.1 5486.09  11
   0   8 -12 16026.1 6811.97  24
   8   0  12 13931.3 3251.36   3
  -8   0 -12 16494.7 5919.70  24
   0  -8  12 16827.2 3527.52  23
   0  -8 -12 16105.7 6811.38  10
   0   8  12 18392.7 4938.68   3
   8   0 -14 785.310 354.559   8
  -8   0 -14 652.060 500.891   7
   0  -8 -14 1388.46 466.299   7
   0   8 -14 1316.08 541.012  14
   8   0 -16 1585.58 426.259   8
   0   8  16 1925.04 745.307   5
   8   0  16 1217.25 640.026   5
  -8   0 -16 1630.37 596.379   7
   0  -8 -16 1501.33 514.127   7
   0  -8 -16 1534.89 488.727  17
  -8   0 -16 1990.74 783.752   4
   0   8  18 1472.94 602.271   5
   8   0  18 713.168 362.694   5
   8   0 -18 1620.48 451.718   8
  -8   0 -18 756.593 514.058   7
   0  -8 -18 1086.66 430.630   7
   0  -8 -18 1688.44 469.780  17
  -8   0 -18 1223.16 611.827   4
   8   0  18 1848.49 482.477  25
   8   0 -20 590.137 251.855   8
  -8   0 -20 201.628 232.751   7
   0  -8 -20 84.2588 197.045   7
   8   0 -20 204.665 161.841   7
   0  -8 -20 269.684 186.103  17
  -8   0 -20 247.575 356.006   4
   8   0  20 198.611 190.931  25
  -8   0 -22 1266.21 349.818   4
  -8   1   1 12821.0 4722.63  21
   8  -1   1 16302.1 5039.70   9
  -1  -8  -1 20372.7 4365.46  21
  -8   1  -1 12599.4 4968.24  21
  -8  -1  -1 14683.6 4954.45  21
  -8  -1  -1 17359.4 3216.99  19
   8  -1  -1 16393.7 3868.50  20
   8  -1   1 17810.0 3993.79  20
   8   1  -1 17076.8 3575.86  20
   1  -8   1 14846.5 3915.40  10
   8   1  -1 18437.3 4848.05   9
   8  -1  -1 16652.0 4788.12   9
  -8  -1   1 17612.4 3165.51  19
  -8   1   1 17822.4 3091.10  19
  -8   1  -1 16960.1 3109.88  19
   8   1  -1 21162.3 3875.22   1
   8   1   1 18589.6 3621.79   1
   8  -1  -1 18159.6 2550.08  23
   1   8   1 14371.3 4042.12  22
   8  -1  -1 15767.6 2620.07   2
   1  -8  -1 13894.5 3949.18  10
   1   8  -1 14329.4 3812.79  22
   1  -8   1 17535.4 2143.65  23
   8   1  -1 16155.0 2910.38   2
  -1  -8   1 17076.9 4169.27  21
   8  -1   1 17986.1 2563.17   2
   8   1   1 16203.5 2669.94   2
   1   8   1 17017.6 2964.67   3
  -8  -1   1 22432.3 4444.16  10
   1   8  -1 17514.4 2750.86   3
  -1   8   1 18399.7 3568.11   3
  -1   8  -1 14703.1 3089.42   3
  -8  -1   1 18777.9 3409.59  11
  -8   1   1 16207.0 3328.75  11
  -8   1  -1 13474.8 3050.53  11
  -8  -1  -1 16512.8 3336.87  11
   8   1   1 19623.8 5004.92   9
  -8  -1   1 18205.6 5380.86  21
   8   1  -1 20816.5 2624.88  23
   8   1   1 18422.5 2423.37  23
   8  -1   1 17235.5 2481.56  23
  -8  -1  -1 10150.8 2759.58  10
  -1  -8   1 16410.5 4347.56  10
  -1  -8  -1 12885.4 4307.81  10
  -1   8  -1 17028.9 4509.22  22
  -1   8   1 13396.7 4077.82  22
   8   1   1 17482.7 3784.60  20
  -1  -8   3 1395.39 949.862  21
   8  -1  -3 815.504 1471.65   9
  -1   8   3 836.402 1040.45   3
   8   1   3-69.8569 1758.19   9
   8   1  -3-1395.88 1310.40   9
  -8   1  -3-33.8439 2276.46  21
  -8  -1   3-215.695 847.224  21
   8   1  -3 187.393 770.674  20
   8  -1   3 122.140 758.543  20
  -1  -8  -3 467.545 778.268  21
   1  -8  -3-161.923 705.580  21
   8   1  -3-494.224 649.876   2
   1  -8   3 990.271 2404.08  20
   8  -1  -3 1378.76 1079.00  20
   8   1   3 359.498 768.106  20
  -8  -1   3-115.183 917.496  19
  -8   1   3 314.285 666.950  19
  -1   8  -3-1459.02 1450.00  22
  -8  -1  -3 424.721 551.239  19
  -8   1  -3 967.228 883.880  19
   8   1   3 141.306 360.304   2
  -8  -1  -3-9.94559 1081.14  21
   8  -1  -3 160.187 399.859  23
   8  -1   3-77.7250 353.199  23
   1   8   3 142.722 1220.22  22
  -1  -8  -3-935.084 1922.10  10
   8  -1  -3 1134.66 828.681   2
   8   1   3 360.216 424.648  23
   8   1   3 1325.12 1069.27   1
   8  -1   3 458.858 1295.25   9
  -8  -1   3-77.7008 428.995  11
  -8   1   3 17.9446 433.672  11
  -1   8  -3 1904.29 2341.29  24
  -1   8   3 350.856 1281.83  22
  -1  -8   3 549.196 1051.94  10
   8   1  -3-266.860 543.263  23
   1  -8  -3 3119.92 2420.89  10
   1  -8   3-334.183 391.291  23
   1   8   3 332.718 727.268   3
   1   8  -3 5.07360 868.208  22
   8  -1  -5 2958.95 1725.16   9
   8  -1  -5 688.288 889.335   2
   8   1   5 734.841 1020.95   9
  -1  -8  -5 955.455 871.448  21
  -8   1  -5 589.345 1376.91  21
   8   1  -5 574.624 816.837   2
  -1  -8   5 1482.80 1589.93  20
   1  -8   5 1714.54 1781.77  20
  -8  -1   5 182.138 536.449  11
   8  -1  -5 390.170 606.099  20
   8  -1   5 33.0278 525.941  20
   8   1   5 129.858 644.809  20
   8   1  -5 270.621 459.033  20
   8   1  -5-121.601 560.806   9
  -8  -1   5 122.284 605.817  19
  -8   1   5 270.521 666.305  19
  -8  -1  -5 209.922 736.915  19
  -8   1  -5 586.324 734.569  19
   8  -1   5-1340.52 809.984  18
   8  -1   5 424.733 1090.45   9
  -1   8   5 1065.52 1481.68   3
  -1  -8  -5 1526.16 2293.58  10
   1  -8   5 671.648 688.642  23
  -8   1   5-166.965 809.690  11
   8  -1   5 544.964 678.015   1
   8  -1  -5 539.454 473.983  23
   8   1  -5 30.2413 434.509  23
   8  -1   5 368.052 551.649  23
   1  -8  -5 444.766 893.812  21
  -8  -1  -5 1620.42 2807.20  21
   1   8  -5-1295.69 1564.43  24
  -1   8  -5 272.079 1861.12  24
   1   8   5 2063.61 2674.58  22
  -8   1  -5 84.5005 887.569  24
  -8  -1  -5 630.156 1206.08  24
  -1  -8   5 2784.43 1976.18  10
   8   1   5-464.415 814.128   1
   8   1   5 660.514 420.517  23
  -1  -8   5 998.725 849.589  23
   1  -8  -5-1177.78 1814.82  10
   1   8   5 597.554 742.865   3
   1   8  -5-482.792 1117.17  22
  -1   8  -5-524.088 929.319  22
   8  -1  -7 2959.38 1505.08   2
   8  -1   7-489.938 1258.90   9
  -1  -8  -7 300.145 1071.55  21
   8   1   7 568.635 731.574   1
   1  -8   7-993.211 1388.12  20
  -1   8   7 2416.78 1710.86   3
  -8  -1  -7 3013.87 2160.88  21
   8  -1   7 721.443 756.875   1
   8  -1   7-5.69178 918.135  20
   1  -8  -7-811.220 853.111  21
  -8  -1   7 2205.65 1417.32  19
   8   1   7 3021.19 2301.63   9
   8  -1   7 492.968 634.067  18
   8   1  -7 130.970 541.276   2
   1   8   7 1560.00 1096.69  18
   8   1   7 2493.37 1761.36  20
  -8   1   7 600.001 493.167  19
   8  -1   7 479.228 324.920  23
  -8   1   7-398.941 1099.39  11
   1   8  -7-1585.09 2260.23  24
  -1  -8   7 1953.62 1923.79  10
   1   8  -7-463.184 1373.24  22
  -8  -1   7 95.8808 757.703  11
   1   8   7 1441.29 1171.84   3
   8   1  -7-363.431 477.090  12
  -8   1  -7 53.5275 976.872  24
  -8  -1  -7-1003.80 1603.66  24
   8  -1  -7 732.417 833.357  23
   1  -8   7-713.277 672.449  23
  -1  -8  -7 1545.95 2055.23  10
  -1  -8   7 275.239 482.058  23
  -1   8  -7-868.830 2025.64  24
   1  -8  -7 195.021 1483.38  10
  -1   8  -7 968.079 1291.55  22
  -8   1  -7 1221.63 3174.38  21
  -8   1  -9-355.646 1449.46  21
   8  -1   9-3582.48 2563.31   9
  -8  -1  -9 3202.69 2761.97  21
  -1  -8  -9-702.685 947.194  21
  -1  -8   9 1920.85 1517.94  21
   1   8   9 1116.78 1112.06   3
   8  -1   9 2024.11 1497.83  20
   8  -1  -9 1698.52 534.563   8
   8   1  -9 1299.90 422.516   8
  -8  -1   9 251.658 1003.23  19
  -8   1   9 1875.50 1240.00  19
  -8   1  -9 1399.78 563.834   7
  -8  -1  -9 2095.20 689.702   7
   1  -8   9 898.785 1062.16  18
  -1  -8   9 2779.16 1464.89  18
   8  -1   9 1460.51 846.326  18
   8   1   9 158.856 408.214  18
  -1   8   9-154.112 686.463   6
   1   8   9 576.905 580.223  18
  -1   8   9 590.159 565.649  18
  -8   1   9 1245.67 1014.16  11
   8   1  -9 688.355 949.813   2
   8   1   9 2982.23 1461.40   1
  -1   8   9 1426.99 1364.11   3
   8  -1   9 1362.99 409.383  25
  -8   1  -9 1816.63 834.244   4
  -1   8  -9 1662.02 2428.57  24
  -1   8  -9 2663.86 673.142  14
   1   8  -9 1988.99 663.344  14
  -8  -1   9 1467.76 1260.78  11
   1   8   9 1384.63 784.844  13
  -1   8   9 1356.25 880.850  13
   8   1  -9 1860.63 1310.65  12
   1  -8  -9 5554.16 3751.86  10
   8  -1  -9 1725.74 1301.71   2
   1   8  -9 784.052 3735.99  24
  -8   1  -9-415.123 1673.47  24
  -8  -1  -9-95.3844 1333.71  24
   8  -1   9 1638.85 908.849  23
   1  -8   9 1144.00 836.852  23
  -1  -8   9 1735.74 1112.78  23
  -1  -8  -9 2662.75 2404.75  10
   1   8  -9 532.727 1025.95  22
  -1   8  -9 1868.61 1339.99  22
  -1   8  11 3970.44 2325.94   3
  -8  -1 -11 1344.59 2470.65  21
   8   1 -11 1062.39 1041.40   2
   1   8  11 3431.56 1041.59   5
   8   1  11 2333.61 716.995   5
  -1   8 -11 3486.15 1990.76  22
   8  -1  11 1261.81 1543.07   9
   8  -1 -11 2551.44 601.732   8
   8  -1  11 3070.36 1782.35  20
  -8  -1  11 2369.08 1796.06  19
  -8   1  11 1371.97 704.911  19
   8   1 -11 2580.33 649.804   8
  -8   1 -11 2561.19 838.144   7
  -8  -1 -11 2079.62 700.697   7
   1  -8  11 1876.73 1535.67  18
  -1  -8  11 1560.93 1516.61  18
   8  -1  11 2153.34 1318.12  18
   8   1  11 2579.32 1398.54  18
   1   8  11 1991.34 1444.34  18
  -1   8  11 2496.30 1574.19  18
   8  -1 -11 2814.24 1674.91   2
  -8   1 -11 3322.93 1039.69   4
   8  -1  11 2276.67 1558.71   3
  -1   8 -11 3284.18 737.163  14
   1   8 -11 3558.15 879.413  14
  -8  -1  11 6155.54 2570.05  11
   1   8  11 1827.42 1036.43  13
  -8   1  11 2499.30 1936.70  11
  -1   8  11 2400.37 1101.81  13
  -1   8 -11 2030.95 3187.77  24
   8   1 -11 570.844 644.428  12
   1   8 -11 7749.58 4720.58  24
   8   1  11 1801.41 1266.89   3
  -8   1 -11 7557.62 4116.31  24
  -8  -1 -11 3093.02 2749.83  24
   8  -1  11 3833.58 1432.94  23
   1  -8  11 183.628 541.410  23
  -1  -8  11 1226.52 1067.26  23
   1   8 -11 2886.28 1924.22  22
  -1  -8 -11 2472.24 2971.06  10
   1  -8 -11-45.7542 1269.36  10
   1   8  11 248.126 692.972   3
  -8  -1 -13 9548.71 4893.53  21
   8   1 -13 8643.01 1076.85   8
  -8   1 -13 8212.59 1368.92   7
  -8  -1 -13 8970.14 1397.23   7
  -8   1 -13 8484.29 1529.64   4
  -1  -8 -13 8624.19 1214.97   7
   8  -1 -13 7583.37 1049.84   8
   8  -1  13 6603.01 2325.59  18
   8   1  13 13291.9 3321.43  18
   1  -8  13 6890.67 2384.11  23
  -1   8 -13 8924.79 1163.97  14
   1   8 -13 9695.65 1280.40  14
   1   8  13 6208.08 1522.97  13
   8   1 -13 6519.57 2779.82  12
   1   8 -13 7275.98 4576.43  24
  -8   1 -13-1891.82 2571.60  24
  -8  -1 -13 4472.02 3398.93  24
   1   8  13 11962.0 1553.84   5
   8   1  13 6528.10 1138.36   5
  -1  -8  13 9667.07 2903.47  23
   1   8  15 4452.06 1098.70   5
   8   1  15 2054.25 688.026   5
   8  -1 -15 1773.86 511.034   8
   8   1 -15 2155.57 520.477   8
  -8   1 -15 1070.57 502.750   7
  -8  -1 -15 1855.47 687.748   7
  -1  -8 -15 1811.46 578.208   7
   1  -8 -15 1842.84 573.264   7
  -1  -8 -15 1297.68 484.799  17
  -8   1 -15 2631.32 829.185   4
   1   8 -15 1570.06 505.775  14
   8  -1  15 1328.16 451.874  25
   1   8  17 783.336 638.968   5
   8   1  17 850.091 549.000   5
   8  -1 -17 1137.81 447.680   8
   8   1 -17 469.004 312.028   8
  -8   1 -17 466.449 459.670   7
  -8  -1 -17 567.338 428.092   7
  -1  -8 -17 261.742 237.509   7
   1  -8 -17 453.547 284.392   7
  -1  -8 -17 374.104 306.220  17
   1  -8 -17 271.654 222.750  17
  -8   1 -17 873.071 614.834   4
  -8  -1 -17 267.528 513.670   4
   1   8 -17-232.759 398.139  14
   8  -1  17 536.848 311.286  25
   1   8  19 876.197 439.061   5
   8  -1 -19 560.291 297.407   8
   8   1 -19 791.500 320.686   8
   8   1  19 1011.24 399.362   5
  -8   1 -19 111.556 275.957   7
  -8  -1 -19 660.089 383.644   7
  -1  -8 -19 163.501 190.638   7
   1  -8 -19 248.836 177.750   7
  -1  -8 -19 689.711 333.071  17
   1  -8 -19 595.795 241.788  17
  -8   1 -19 1213.36 550.350   4
  -8  -1 -19 507.363 359.099   4
   8  -1  19 513.981 260.981  25
   8   1  19 527.710 242.009  25
   8  -1 -21-42.0812 145.510   8
   8   1 -21 361.053 186.651   8
  -1  -8 -21 144.250 180.843   7
   1  -8 -21 373.517 212.292   7
   8  -1 -21 188.097 126.259   7
  -8   1 -21 413.916 317.721   4
  -8  -1 -21 477.910 294.745   4
   8   1  21 125.280 100.560  25
   8   2   0 13109.0 4029.22   9
   8  -2   0 13405.5 3782.75  20
  -8  -2   0 18496.4 3310.62  19
  -2   8   0 10732.0 2957.73   3
  -8   2   0 15801.0 2923.31  19
  -2  -8   0 17226.1 4117.88  21
   2   8   0 10645.4 2577.36   1
   8   2   0 14587.3 3343.49  20
   2  -8   0 17357.2 2263.45  23
   8   2   0 16073.7 3351.34   1
   8  -2   0 10707.6 1917.79   2
   2   8   0 10691.2 3352.33  22
   8   2   0 11478.8 2554.16   2
   2   8   0 8389.17 2052.93   3
  -8   2   0 16357.6 3312.31  11
  -8  -2   0 15938.1 3175.75  11
  -2   8   0 16157.8 4572.67  22
   2  -8   0 10174.1 4676.75  20
  -8  -2   0 12065.2 4525.91  21
   8   2   0 16186.8 2154.92  23
   8  -2   0 17157.7 2592.26  23
  -8  -2   0 14438.9 3837.04  10
  -2  -8   0 15914.1 4806.84  10
   2  -8   2 42088.2 8528.87  20
   8   2   2 65191.7 9413.19   9
   8   2  -2 53733.1 7969.35   9
  -8  -2   2 54327.3 8611.12  21
  -2  -8   2 67227.7 8196.14  21
   8  -2  -2 59929.8 7413.35  20
   8  -2   2 63643.0 7955.91  20
   8   2   2 64788.3 7358.62  20
   8   2  -2 55022.0 6149.91  20
  -8  -2   2 70270.6 6490.18  19
  -8   2   2 61645.5 5669.44  19
  -8  -2  -2 66694.7 6520.14  19
  -8   2  -2 63592.9 6072.98  19
   2  -8  -2 40359.5 8368.61  20
  -8  -2  -2 55571.9 9506.22  21
   2   8   2 54395.0 5963.91   1
  -2  -8  -2 71258.5 8189.87  21
   8   2  -2 71299.4 6802.60   1
   8  -2  -2 54253.3 4884.02   2
   2   8  -2 48445.0 4972.43   1
   8  -2  -2 61942.5 4875.15  23
   8   2   2 61766.3 6459.12   1
  -2   8  -2 36997.2 5453.32   3
   8   2  -2 59611.7 5870.57   2
   2   8  -2 56337.7 7035.90  22
   2   8   2 51759.6 5261.03   3
  -2   8  -2 35452.2 8380.44  24
   8   2   2 56449.4 5133.57   2
  -2   8   2 50930.5 6518.84   3
  -8  -2   2 67102.0 6377.49  11
  -8   2   2 60574.8 6247.46  11
  -8   2  -2 42738.4 5568.78  11
  -8  -2   2 78083.8 9296.19  10
  -2  -8   2 61279.3 8940.23  10
  -8  -2  -2 57685.9 7592.96  10
  -2  -8  -2 57304.5 9385.43  10
   2  -8  -2 36256.5 6489.77  10
   8   2  -2 65872.3 4713.79  23
   8   2   2 68481.9 4402.58  23
   2  -8  -2 61198.5 3983.80  23
   8  -2   2 57613.1 4724.08  23
   2  -8   2 62966.5 4558.16  23
  -2   8  -2 54872.3 7462.36  22
   2   8   2 54659.9 7801.47  22
  -2   8   2 44807.2 7731.26  22
  -2  -8  -4 24501.8 4925.44  21
   8   2   4 18975.5 5542.13   9
  -2  -8   4 24489.5 5058.53  21
   2  -8  -4 23260.3 4352.71  21
  -8  -2  -4 18397.8 5789.67  21
   8  -2   4 22703.2 4739.92  20
   8  -2  -4 20694.3 4144.64  20
   8   2   4 22532.2 4521.08  20
  -8   2   4 22062.6 3501.82  19
  -8  -2  -4 24864.6 4235.04  19
  -8   2  -4 21540.1 3839.20  19
   8  -2   4 19656.7 2923.98  18
   8  -2  -4 19589.9 3450.38   2
   8   2  -4 26535.7 4177.38   1
   2   8   4 18227.9 3752.51   1
   2  -8  -4 11347.8 4365.03  10
   2   8   4 16711.9 4494.28  22
   8   2  -4 21720.3 3728.96   2
  -8  -2   4 23871.3 3868.46  19
   2   8   4 20904.5 3629.28   3
   8   2   4 19872.6 3756.27   1
  -2   8   4 24306.8 4747.15   3
  -8  -2   4 27585.6 4231.51  11
  -8   2   4 24263.9 4139.98  11
   2  -8   4 18504.4 5443.24  20
   8   2  -4 23224.3 2934.84  23
   8  -2  -4 20941.7 2971.71  23
  -2  -8   4 21040.6 5309.96  10
   8  -2   4 22217.6 3036.97  23
   2  -8   4 22170.6 3002.30  23
  -2  -8  -4 14290.0 4860.60  10
  -8  -2  -4 16368.9 4340.52  10
  -2   8  -4 15196.8 5654.54  24
   2   8  -4 22804.2 4478.52  22
  -2   8  -4 21792.3 4525.20  22
   8  -2   4 24231.4 5912.28   9
   8  -2   6 12286.5 4384.63   9
   8   2   6 10242.3 4046.30   9
   2  -8  -6 9862.61 2696.30  21
  -2  -8  -6 12635.3 3522.18  21
  -2  -8   6 8149.86 3086.33  21
   8   2  -6 11326.5 2856.93   2
   2  -8   6 6716.65 3558.41  20
  -2  -8   6 10350.7 3914.18  10
   8   2   6 11750.6 2768.36   1
   8  -2   6 10434.0 3220.05  20
   8   2   6 13051.1 3551.24  20
  -8   2   6 9474.61 5449.46   3
  -8  -2   6 11929.7 2676.36  19
  -8   2   6 10843.9 2489.24  19
  -8  -2  -6 11306.3 2927.51  19
   2   8   6 11130.3 2705.30  18
   8  -2   6 8405.12 2075.79  18
   2   8  -6 5755.00 4280.84  24
  -8  -2  -6 6695.30 3946.48  21
   2   8   6 9889.68 2860.83   1
   8  -2   6 10102.5 2449.81   1
   8   2  -6 9146.43 2374.30   1
  -8  -2   6 15968.5 3422.91  11
  -8   2   6 15917.9 3486.24  11
  -2   8   6 10273.1 3260.98   3
  -2   8  -6 10065.4 2944.05  22
  -2  -8  -6 10303.3 4972.38  10
   2   8   6 5707.55 3463.16  22
  -2   8  -6 7527.61 4453.98  24
  -8   2  -6 9463.83 4280.87  24
   8  -2  -6 9854.24 2188.44  23
   8  -2   6 9266.57 2037.40  23
   2  -8   6 11234.9 2407.91  23
   2   8   6 10013.3 2722.37   3
  -2  -8   6 2541.68 1902.58  20
   2  -8  -6 4249.47 2352.27  10
   2   8  -6 9977.62 2842.96  22
   8  -2  -6 9334.94 2545.11   2
  -2  -8  -8 26680.5 5363.26  21
  -8  -2   8 30435.8 5030.45  19
   8  -2  -8 31494.2 1865.84   8
   8  -2   8 22990.7 4936.71  20
   8   2   8 26986.5 4355.83   1
  -8   2   8 26367.9 4197.39  19
  -8   2  -8 26712.8 2272.26   7
  -8  -2  -8 33001.2 2397.92   7
  -8   2   8 32407.5 9195.76   3
  -8   2  -8 31194.2 2595.66   4
   2  -8  -8 9566.10 4743.83  20
  -2  -8   8 20769.7 3699.31  18
   8  -2   8 21092.6 3631.30  18
   2   8   8 25447.3 4358.02  18
  -2   8   8 18502.5 2642.16   6
   8  -2  -8 23593.9 4405.33   2
  -8  -2  -8 15558.8 5736.31  21
  -2  -8   8 29472.5 6568.96  10
   8   2  -8 21940.0 4318.46   2
  -2  -8   8 29911.5 5830.45  21
   2   8   8 20396.6 2741.62  13
   8  -2   8 27774.2 1785.19  25
   8  -2   8 22315.9 3577.26   1
   2   8   8 29646.5 5113.29   3
   8   2  -8 26814.5 4564.43  12
  -2   8   8 27825.7 5645.60   3
  -2  -8   8 24631.8 3857.65  23
  -8  -2   8 35157.8 5555.22  11
  -8   2   8 30056.3 5024.93  11
   2   8  -8 19081.1 7217.14  24
  -2   8  -8 17484.5 7325.29  24
  -8   2  -8 24145.4 6617.76  24
   8  -2  -8 23835.9 3533.63  23
   8  -2   8 23642.9 3404.83  23
   2  -8   8 22587.3 3711.66  23
  -2  -8  -8 24319.7 7684.66  10
   2   8  -8 24783.2 4795.49  22
  -2   8  -8 25282.7 4848.44  22
   2  -8  -8 18671.5 6215.02  10
   8  -2   8 26120.6 6628.23   9
   8  -2  10 42553.1 8137.97   9
  -8  -2 -10 26314.2 7864.40  21
   8  -2 -10 55282.4 2575.21   8
   8   2 -10 47232.3 2373.38   8
   8  -2  10 38690.4 6317.51  20
  -8  -2  10 54984.7 7273.98  19
  -8   2  10 48229.9 6073.34  19
  -8   2 -10 46351.2 3055.42   7
  -8  -2 -10 55026.3 3246.57   7
  -8   2 -10 54033.9 3567.05   4
   2  -8  10 43364.6 6237.54  18
   8  -2  10 45266.1 5832.08  18
   2   8  10 51740.2 6800.83  18
  -2   8  10 28860.2 3207.83   6
   8  -2 -10 42378.6 6268.83   2
  -2  -8 -10 41820.6 7077.10  21
  -2  -8  10 36606.8 7931.66  10
   8   2 -10 45136.0 6477.58   2
   8   2  10 45025.8 6065.12   3
   2   8  10 51752.5 3043.92   5
  -2   8 -10 65820.8 2981.01  14
   2   8  10 38180.3 3752.71  13
  -2   8  10 31162.9 3405.80  13
   8   2  10 42472.4 5440.96   1
   2   8  10 52532.9 7526.12   3
   8   2 -10 51061.4 6869.63  12
  -2   8  10 51091.5 8187.23   3
  -8  -2  10 58593.2 7708.48  11
  -8   2  10 52518.4 7139.33  11
   8  -2  10 50114.1 2522.36  25
  -8   2 -10 41923.3 9404.36  24
  -8  -2 -10 45132.7 9276.33  24
   2   8 -10 37849.4 9525.05  24
  -2   8 -10 31448.9 9577.78  24
   8   2  10 43191.6 2534.79   5
   8  -2  10 42822.7 4884.79  23
   2  -8  10 44437.9 5518.60  23
  -2  -8  10 44672.7 5860.69  23
   2   8 -10 50607.1 7264.13  22
  -2   8 -10 51605.9 6881.66  22
  -2  -8 -10 33831.2 9856.78  10
   2  -8 -10 32651.1 8779.35  10
  -2   8  12-441.536 1008.62   3
  -8  -2 -12-509.227 2675.34  21
   2   8  12 5378.51 1109.29   5
   8   2  12 3060.63 814.388   5
   8   2 -12 2624.23 1708.75   2
   8  -2 -12 3483.90 754.018   8
   8   2 -12 2662.92 652.551   8
  -8  -2  12 2258.46 1641.13  19
  -8   2  12 2775.59 1360.16  19
  -8   2 -12 3464.46 939.834   7
  -8  -2 -12 3579.19 911.139   7
   2  -8  12 4443.01 2053.23  18
   8  -2  12 1003.23 806.011  18
   8   2  12 5496.25 2084.93  18
   2   8  12 2988.40 2170.76  18
  -2   8  12 4421.33 2121.96  18
  -2  -8 -12-4047.03 3566.21  10
  -2  -8 -12 3611.33 819.674  17
   8  -2  12 3021.20 685.443  25
  -8   2 -12 3273.48 1011.85   4
  -8   2  12 5987.54 2603.23  11
  -2   8 -12 3591.50 652.324  14
   2   8 -12 5055.41 1033.75  14
   2   8  12 1710.76 924.923  13
   8   2 -12 8221.07 3217.50  12
   2   8 -12 12399.5 5746.24  24
  -2   8 -12-986.428 1997.10  24
  -8   2 -12 11034.7 5049.40  24
  -8  -2 -12 8243.09 4309.21  24
   8   2  12 1216.58 1081.31   3
   8  -2  12 3569.57 1457.68  23
   2  -8  12 2027.63 1296.31  23
  -2  -8  12 577.051 885.440  23
   2   8  12 3438.34 2056.26   3
  -8  -2  12 7099.53 2896.82  11
   2  -8 -12 1000.12 1944.01  10
   8  -2 -12 3970.66 2044.46   2
   8  -2 -14 49151.6 2487.90   8
   8   2 -14 45536.8 2335.13   8
  -8   2 -14 44422.4 3040.17   7
  -8  -2 -14 45924.8 3091.16   7
  -8   2 -14 46451.6 3439.72   4
  -2  -8 -14 48587.6 2820.32   7
  -2  -8 -14 45717.9 2915.01  17
   8  -2  14 41157.3 2334.87  25
   2   8 -14 51813.7 2846.57  14
   8   2 -14 58055.0 3078.35  14
   2   8  14 57912.1 3356.01   5
   8   2  14 46171.8 2681.40   5
   8  -2 -16 30818.6 1893.31   8
   8   2 -16 27243.2 1723.84   8
  -8   2 -16 25539.4 2194.61   7
  -8  -2 -16 26435.2 2371.39   7
  -8   2 -16 26136.9 2530.60   4
  -2  -8 -16 30227.1 2147.06   7
   2  -8 -16 26136.3 2049.01   7
   8   2  16 23948.3 1953.39   5
  -2  -8 -16 25942.0 2113.55  17
   8  -2  16 23287.3 1689.62  25
   2   8 -16 31299.8 2091.37  14
   8   2 -16 28415.5 1831.79  14
   2   8  16 32654.3 2481.30   5
  -8   2 -18 9977.64 1267.39   7
  -8   2 -18 13228.2 1637.50   4
  -8  -2 -18 14202.0 1666.48   4
  -2  -8 -18 12291.3 1239.76   7
   2  -8 -18 12863.2 1275.02   7
  -2  -8 -18 12602.8 1312.53  17
   8  -2 -18 14406.2 1212.43   8
   2  -8 -18 12165.1 1176.96  17
   8  -2  18 12624.6 1079.99  25
  -8  -2 -18 12215.5 1461.51   7
   8   2 -18 13977.1 1142.78   8
   2   8  18 16982.2 1699.14   5
   8   2  18 13170.3 1275.40   5
   8  -2 -20 6089.71 661.741   8
   8   2 -20 6139.17 625.195   8
  -8  -2 -20 5781.37 846.946   7
  -8  -2 -20 6808.63 986.048   4
  -2  -8 -20 6753.52 766.530   7
   2  -8 -20 6701.36 772.584   7
   8  -2 -20 5069.83 608.875   7
   2  -8 -20 4838.99 567.345  17
  -8   2 -20 7547.66 1070.69   4
   8   2  20 5898.25 684.430  25
   2   8  20 8294.23 944.285   5
   8   2  20 5788.59 728.550   5
  -8  -3   1 36539.5 7130.12  21
  -8  -3  -1 34732.9 7294.80  21
  -3  -8  -1 47051.6 6972.01  21
   3  -8  -1 26492.5 6904.73  20
   3  -8   1 31276.7 7399.60  20
   8  -3  -1 38844.7 6384.51  20
   8  -3   1 36186.4 6490.13  20
  -8  -3   1 41737.6 5150.85  19
  -8   3   1 37318.9 4452.94  19
  -8  -3  -1 46147.6 5419.51  19
  -8   3  -1 40375.3 4793.99  19
  -3  -8   1 44657.6 6814.04  21
   3   8   1 34181.4 4563.58   1
   3   8  -1 37772.1 4559.63   1
   8  -3  -1 34402.5 3568.93   2
   8   3  -1 43804.2 5432.48   1
  -3   8  -1 29471.0 5453.42   3
   8   3   1 45096.1 5615.38   1
   3   8   1 36441.1 4211.78   3
   8   3  -1 42301.4 5008.73   2
   8  -3  -1 38117.8 3942.42  23
  -8  -3   1 45744.3 7510.38  10
   8   3   1 36627.1 4559.41   2
  -8  -3   1 56924.5 6001.60  11
  -8   3   1 48582.3 5781.28  11
  -3   8   1 28065.1 5387.08   3
  -8   3  -1 39564.6 5358.89  11
  -8  -3  -1 39962.6 5206.34  11
  -8  -3  -1 39933.5 6929.61  10
  -3  -8   1 37000.2 7291.87  10
  -3  -8  -1 45048.0 8747.95  10
   8   3  -1 43885.4 3606.70  23
   3  -8  -1 42229.2 3697.88  23
   8  -3   1 40514.0 4068.10  23
   3  -8   1 43212.3 3876.10  23
   3   8  -1 31814.3 5369.73  22
   3   8   1 34451.9 5867.11  22
  -3   8  -1 35213.8 6230.31  22
  -3   8   1 29937.5 6180.96  22
  -8  -3   3 62537.0 9047.25  21
  -8  -3  -3 57699.1 9819.90  21
  -3  -8   3 72651.0 8746.74  21
   3  -8  -3 38472.4 8355.68  20
   3  -8   3 43098.3 8462.08  20
   8  -3  -3 60545.6 7910.32  20
   8  -3   3 64777.1 8538.65  20
   3  -8  -3 63466.7 4463.33  23
  -8  -3   3 75389.7 7018.58  19
  -8   3   3 64606.3 5828.04  19
  -8  -3  -3 74475.2 7263.09  19
  -8   3  -3 61468.3 6288.75  19
   8  -3   3 61552.2 5331.05  18
   3   8   3 57159.8 6291.53   1
   3   8  -3 49555.3 4945.32   1
   8  -3  -3 54239.4 5173.46   2
  -3  -8  -3 79785.1 9083.08  21
   8   3  -3 63677.1 6492.57   1
   8   3  -3 57302.4 6080.01   2
   3   8   3 55915.4 5754.92   3
  -8  -3  -3 59820.5 8766.20  10
   8   3   3 67981.8 6920.81   1
  -3   8   3 49286.4 7190.09   3
  -8  -3   3 80894.0 7105.54  11
  -8   3   3 70263.2 6863.43  11
   8   3   3 58912.5 5533.24   2
  -3   8  -3 44452.3 9692.15  24
  -3   8  -3 33905.0 5756.20   3
  -8   3   3 39755.1 10252.2   3
  -3  -8   3 64112.7 9752.52  10
  -3  -8  -3 57942.6 10144.0  10
   8  -3  -3 63645.3 5202.49  23
   8  -3   3 59220.1 5017.18  23
   3  -8   3 67035.4 5131.15  23
   3   8  -3 61936.7 7293.36  22
  -3   8  -3 59151.9 7663.67  22
   3   8   3 52314.9 7566.92  22
  -3  -8  -5 45988.1 7173.91  21
   3  -8  -5 39576.7 5618.64  21
   3  -8  -5 31006.0 7916.88  20
   8  -3  -5 39306.3 5945.36  20
   8  -3   5 42565.1 6836.26  20
  -3  -8   5 46153.5 6966.86  21
  -8   3  -5 48818.9 8416.11  24
  -8  -3   5 44832.5 5655.33  19
  -8   3   5 44533.3 4978.37  19
  -8   3   5 27328.3 8465.68   3
  -8  -3  -5 42699.2 5940.99  19
  -8   3  -5 38864.9 5394.35  19
   8  -3   5 38464.9 4562.55  18
   3   8   5 35541.2 5371.33   1
  -8  -3  -5 37290.3 8194.44  21
   8  -3  -5 35461.9 4797.60   2
  -3  -8   5 38375.4 7576.46  10
  -3  -8  -5 33151.9 8148.18  10
   8   3  -5 36891.9 4872.57   1
   8   3  -5 37154.0 5212.97   2
  -3   8  -5 30785.8 8559.29  24
   3   8   5 32288.5 4876.60   3
   8   3   5 39648.6 5436.63   1
  -3   8   5 33897.2 6326.21   3
  -8  -3   5 48797.5 5851.36  11
  -8   3   5 45109.0 5637.31  11
   8  -3  -5 39584.1 4269.69  23
   8  -3   5 38997.1 4219.92  23
   3  -8   5 37322.3 4133.61  23
   3  -8   5 23645.5 6222.58  20
  -8  -3  -5 30566.8 6617.47  10
   3   8  -5 36785.3 5673.18  22
  -3   8  -5 39505.7 5933.95  22
   3  -8  -5 21944.2 5501.00  10
   3   8   5 28997.7 6140.82  22
  -8  -3  -7 40993.6 8988.97  21
  -3  -8   7 48043.4 7184.79  21
   3  -8   7 34652.4 7000.44  20
   8  -3   7 46356.2 7088.55  20
  -8  -3  -7 26994.8 6699.65  10
  -8  -3   7 53109.1 6606.35  19
  -8   3   7 46562.0 5363.11  19
  -8   3  -7 55551.4 3454.70   4
   8  -3   7 39222.9 5000.84  18
   3   8   7 44080.7 5597.86  18
  -3   8   7 38048.4 3702.55   6
   8  -3  -7 40634.6 5525.44   2
   3   8   7 44974.4 6236.73   1
   8  -3   7 40589.5 4848.52   1
  -3  -8   7 48095.1 8925.66  10
   8   3   7 49147.9 6214.09   3
   8   3  -7 46456.2 6075.32   2
   8   3  -7 40834.6 4893.75   1
   3   8   7 43238.3 6039.98   3
  -3   8   7 43939.4 7673.58   3
  -8  -3   7 58691.4 7001.09  11
  -8   3   7 52989.7 6639.02  11
   3  -8  -7 31759.4 7737.08  20
  -3  -8  -7 47696.8 7635.23  21
  -8   3  -7 44661.9 8818.28  24
  -8   3   7 47159.0 11207.9   3
   8   3   7 49744.4 6115.54   1
  -3   8  -7 35949.5 9367.02  24
  -3  -8  -7 40812.8 10082.9  10
   8  -3  -7 42076.3 4599.69  23
   8  -3   7 41443.5 4543.16  23
   3  -8   7 46270.6 5042.35  23
   3   8  -7 45293.2 6376.28  22
  -3   8  -7 45034.2 6213.48  22
   3  -8  -7 32934.0 7651.36  10
   3   8   7 32437.0 6802.33  22
   8  -3   7 44294.0 8493.51   9
  -8  -3  -9 56264.3 11394.7  21
  -3  -8  -9 55884.0 8758.66  21
   3  -8  -9 48160.8 9543.35  20
   8  -3  -9 72397.0 2911.38   8
   8  -3   9 59266.3 7922.73  20
   8   3  -9 63033.6 2688.51   8
  -8  -3   9 81635.8 8664.55  19
  -8   3  -9 48849.7 3234.00   7
  -8   3   9 68052.4 6938.76  19
  -8  -3  -9 68232.8 3672.97   7
  -8   3  -9 71273.7 4077.97   4
   3  -8   9 53200.7 6704.63  18
   8  -3   9 58268.8 6537.33  18
   3   8   9 69062.2 7516.01  18
  -3   8   9 40494.3 4031.90   6
   8  -3  -9 56821.6 7049.80   2
  -8   3   9 55768.0 4537.27   6
   3  -8  -9 39717.8 9287.01  10
  -3  -8  -9 86603.6 3958.46  17
   8  -3   9 50390.8 9048.65   9
   8   3   9 60631.9 6968.42   3
   8   3  -9 59374.9 7391.18   2
   3   8   9 51167.4 7205.90   1
   3   8   9 57688.3 4586.36  13
   3   8   9 62390.5 7702.17   3
  -8  -3   9 86643.8 9128.24  11
  -3   8   9 59123.1 9503.26   3
  -8   3   9 75489.5 8341.65  11
   8  -3   9 68799.7 2921.52  25
   3   8  -9 40176.0 10053.1  24
  -3   8  -9 47731.3 11624.9  24
  -8   3  -9 60269.6 10946.5  24
  -8   3   9 62200.4 13317.0   3
   3   8   9 78069.3 3638.33   5
   8   3   9 62591.5 2993.97   5
   8  -3   9 57243.9 5614.29  23
   3  -8   9 60445.7 6286.74  23
  -3  -8   9 49631.9 9489.95  10
   8   3   9 59293.2 6670.49   1
  -3  -8  -9 43575.9 10757.0  10
   3   8  -9 71925.2 8385.09  22
  -3   8  -9 73514.2 8045.02  22
   3   8   9 54297.4 9062.12  22
  -8   3  11 31630.7 5139.74  19
  -8  -3 -11 32319.2 8803.85  21
   8  -3 -11 35342.5 2143.60   8
  -3  -8 -11 20076.4 5441.35  21
   8   3 -11 30943.2 1986.41   8
   8  -3  11 24146.9 4958.54  20
  -8  -3  11 34092.8 5929.50  19
  -8   3 -11 25895.7 2495.01   7
  -8  -3 -11 34753.0 2775.23   7
  -8   3 -11 38926.9 3117.54   4
   3  -8 -11 27170.7 5886.31   2
   3  -8  11 27070.1 5023.56  18
   8  -3  11 23896.5 4407.64  18
   3  -8 -11 25918.7 7853.65  10
   3   8  11 33388.4 5701.25  18
  -3   8  11 21176.6 2832.64   6
   8  -3 -11 27440.4 5377.68   2
  -3  -8 -11 35726.7 2675.83  17
  -3   8  11 26766.4 6568.28   3
   8   3 -11 30022.8 5466.16   2
   8   3  11 26310.1 4816.51   3
   3   8  11 30439.7 3448.80  13
  -3   8  11 18784.5 2607.73  13
   8  -3  11 31804.1 2039.14  25
   3   8  11 31145.7 5925.02   3
   8   3 -11 28340.6 5449.20  12
  -8  -3  11 39649.7 6565.51  11
  -8   3  11 34947.1 6009.61  11
   8  -3  11 20204.6 5611.89   9
  -3  -8  11 19776.8 5998.27  10
  -3   8 -11 19489.5 8080.90  24
  -8   3 -11 33158.7 8674.37  24
   3   8  11 43702.3 2815.57   5
   8   3  11 29464.7 2207.38   5
   8  -3  11 30006.5 4339.60  23
   3   8 -11 18646.0 7045.03  24
   3  -8  11 30007.8 4679.13  23
  -3  -8 -11 17579.6 7244.03  10
   8   3 -13 14226.7 1302.32   8
   8  -3  13 13648.7 1328.66  25
  -8   3 -13 13125.4 1727.69   7
  -8  -3 -13 16334.4 1917.22   7
  -8   3 -13 16708.4 2136.14   4
  -3  -8 -13 15928.6 1794.85  17
   3   8 -13 20156.8 1928.76  14
   8  -3 -13 16495.1 1463.16   8
   3   8  13 18463.4 2007.13   5
   8   3  13 15031.6 1586.75   5
   8  -3 -15 61145.6 2716.45   8
   8   3 -15 54698.9 2447.34   8
   8   3  15 53031.1 2904.72   5
  -8  -3 -15 56302.6 3453.13   7
  -8   3 -15 58278.8 3741.34   4
  -3  -8 -15 57010.9 3014.37   7
  -3  -8 -15 53782.4 3163.08  17
   8  -3  15 48979.3 2425.30  25
  -8   3 -15 46065.3 2975.52   7
   3   8 -15 60438.3 3057.05  14
   8   3 -15 61632.1 3025.35  14
   3   8  15 67309.5 3572.83   5
  -8   3 -17 18774.5 1785.99   7
  -8  -3 -17 26309.1 2140.50   7
  -8   3 -17 24602.8 2300.23   4
  -3  -8 -17 26993.6 1923.02   7
   3  -8 -17 24468.9 1844.71   7
   8   3  17 24574.7 1914.66   5
  -3  -8 -17 24396.1 1937.51  17
   3   8 -17 28390.9 1890.71  14
   8   3 -17 26932.7 1676.73  14
   8  -3 -17 28696.5 1712.40   8
   8  -3  17 25431.6 1554.84  25
   3   8  17 31897.3 2437.50   5
   8   3 -17 26420.3 1565.31   8
  -8   3 -19 16351.6 1664.23   4
  -8  -3 -19 14659.9 1440.91   7
  -3  -8 -19 16045.7 1281.77   7
  -8  -3 -19 15703.7 1629.11   4
   8   3 -19 13777.7 986.495   8
   3  -8 -19 14095.4 1230.30   7
  -3  -8 -19 12885.3 1216.01  17
   3  -8 -19 13224.3 1057.36  17
   8   3  19 14817.4 1180.11  25
   3   8  19 20284.0 1647.62   5
   8   3  19 13742.1 1259.42   5
   8  -3 -19 14767.5 1091.39   8
   8   3 -21 11388.6 677.658   8
  -8   3 -21 13268.8 1186.76   4
  -8  -3 -21 14118.9 1186.22   4
   3  -8 -21 13468.2 884.413   7
   8  -3 -21 10496.6 741.945   7
   8   3  21 14540.1 902.072  25
   3   8  21 16555.8 1124.16   5
   8   3  21 13349.4 922.827   5
   8   4   0 7634.44 2335.92   1
  -4   8   0 5379.64 3110.62   3
   8  -4   0 7816.77 3316.85  20
   4  -8   0 5285.38 3242.02  20
  -8  -4   0 7886.99 2284.23  19
  -8   4   0 7485.24 2009.82  19
   8   4   0 6970.87 2074.31   2
   4  -8   0 9012.16 1851.65  23
   4   8   0 7016.37 2053.03   1
  -4   8   0 6674.09 2972.51  22
  -4  -8   0 9185.59 3168.94  21
  -8   4   0 4957.44 1905.71  11
  -8  -4   0 7031.76 2180.37  11
   8  -4   0 7392.46 1811.13  23
  -8  -4   0 9045.85 3821.27  10
  -4  -8   0 7920.81 4141.59  10
  -8  -4   0 9071.42 3663.66  21
   4   8   0 7084.65 1768.72   3
   4   8   0 7538.98 2729.06  22
   8   4  -2 860.399 779.142   1
   8  -4  -2 1514.86 797.123   2
  -8  -4  -2 1594.69 2218.00  21
  -4  -8   2 3631.44 2051.64  21
  -8  -4   2 1322.01 1490.73  21
   4   8   2 1597.72 1250.91   1
  -4   8   2 2572.93 1915.50   3
   4  -8  -2 1237.35 3189.81  20
   8  -4  -2 617.444 1076.28  20
   8  -4   2 989.344 1265.81  20
  -4   8  -2-96.9466 1335.31   3
   4   8  -2 632.010 647.753   1
   8   4   2 2471.95 1373.00   1
   8   4  -2 805.378 833.656   2
  -8   4   2 2825.30 2791.97   3
  -8  -4   2 910.145 1121.13  19
  -8   4   2 1341.02 451.150  19
  -8  -4  -2 1211.70 921.973  19
  -8   4  -2-141.323 487.818  19
   8  -4   2 2046.15 968.608  23
   8   4   2 2148.76 1003.03   2
   4  -8   2 2380.10 1949.32  20
   4   8   2-250.276 515.770   3
  -4  -8  -2 2961.07 1874.39  21
  -4   8   2 3622.90 2621.46  22
   4  -8  -2 1566.13 867.224  23
   4  -8   2 1313.53 902.697  23
  -8  -4   2 3385.91 1489.24  11
  -8   4   2 1618.93 1200.85  11
   4   8  -2 1690.26 1763.05  22
  -4   8  -2 2015.89 2899.70  24
  -4  -8   2-2395.76 2657.61  10
  -8  -4  -2 4226.74 2640.86  10
  -4  -8  -2 6444.00 4159.39  10
  -8  -4   2-76.7665 1876.47  10
   4   8   2 130.684 1036.33  22
  -4   8  -2 1406.55 1069.17  22
   8  -4  -2 1644.52 1073.06  23
   8  -4  -4 11491.1 2512.10   2
  -4  -8  -4 20007.0 4931.00  21
  -8  -4  -4 11202.4 4420.12  21
  -4   8   4 11476.8 4059.58   3
   8  -4  -4 12647.2 3920.97  20
   4  -8  -4 8745.13 4373.81  20
   4  -8   4 9128.01 4290.41  20
   8  -4   4 16598.0 4576.95  20
   8   4  -4 10506.3 2767.51   2
  -4  -8   4 18344.8 4677.67  21
  -8   4   4 9285.64 4873.14   3
  -8  -4   4 16906.9 3542.30  19
  -8   4   4 16327.7 2970.78  19
  -8  -4  -4 13296.2 3418.26  19
   4   8   4 15452.9 3367.37   1
  -8   4  -4 14321.8 3054.81  19
   8  -4   4 12862.9 2685.19  18
   4   8   4 11475.2 2734.30   3
   8   4  -4 13012.2 2880.84   1
  -8  -4   4 19385.3 3604.01  11
   8   4   4 11712.1 3012.54   1
  -8   4   4 13898.9 3204.51  11
  -8  -4   4 17135.0 5554.17  10
  -4   8  -4 12387.4 5195.16  24
   4  -8  -4 15117.1 2372.75  23
   8  -4  -4 14050.2 2586.92  23
  -4  -8   4 11619.4 4908.79  10
   8  -4   4 14965.6 2742.53  23
   4  -8   4 15479.8 2693.17  23
  -8  -4  -4 12654.2 5072.72  10
  -4  -8  -4 11901.9 4934.45  10
   4   8  -4 15392.4 3526.90  22
  -4   8  -4 13017.4 3627.18  22
   4   8   4 12532.3 3493.70  22
  -4  -8   6 29164.2 5815.57  21
  -4  -8  -6 21881.2 5513.86  21
  -8  -4  -6 22927.7 6822.43  21
  -4   8   6 20334.7 5413.36   3
   8  -4   6 23679.9 5279.77  20
   4  -8  -6 12685.0 5094.55  20
  -8  -4   6 24514.6 4509.18  19
   4  -8   6 14638.0 5165.83  20
   8  -4  -6 16876.2 3899.26  20
  -8   4  -6 28547.1 2542.39   4
  -8   4   6 20341.5 7573.74   3
  -8   4   6 22495.2 3649.93  19
   8  -4   6 18053.9 3447.48  18
  -4  -8  -6 15818.3 6107.76  10
   4   8   6 22209.9 4244.62   1
   4   8   6 25697.2 4106.09  18
  -4   8   6 15129.1 2702.45   6
   8  -4  -6 19531.3 3876.30   2
   8   4   6 21077.0 4032.53   3
   4   8   6 22194.5 2778.59  13
   8   4  -6 21697.3 4113.37   2
   4   8   6 24820.3 4397.06   3
   8   4  -6 19507.6 3520.18   1
   4   8  -6 19558.4 3717.73   2
  -8  -4   6 30712.4 4949.74  11
  -8   4   6 23440.9 4336.86  11
  -4   8  -6 16065.2 6417.14  24
  -8   4  -6 23351.9 6225.50  24
   8   4   6 24565.4 4378.34   1
   8  -4  -6 20579.2 3213.98  23
  -4  -8   6 22539.0 6348.69  10
   8  -4   6 23406.0 3458.91  23
   4  -8   6 24165.6 3579.80  23
  -8  -4  -6 15244.3 5322.83  10
   4   8  -6 21702.0 4399.12  22
  -4   8  -6 23518.8 4604.02  22
   4   8   6 16770.4 4626.02  22
  -8  -4  -8 14370.7 5736.50  21
  -4   8   8 17008.0 5216.76   3
   8  -4  -8 23405.5 1648.02   8
   8  -4   8 18428.8 5804.95   9
   8   4   8 18120.6 3870.95   1
   4  -8  -8 8069.53 2845.80  20
   4  -8   8 13644.2 4267.90  20
   8  -4   8 16753.8 4473.71  20
  -8   4   8 13230.5 7328.27   3
  -8  -4   8 23834.5 4731.27  19
  -8   4   8 23142.1 3933.33  19
  -8  -4  -8 24186.0 2093.29   7
   4  -8  -8 16974.7 4326.40   2
   8  -4   8 14520.1 3248.85  18
   4   8   8 18200.1 3698.69  18
   8  -4  -8 16495.6 3787.30   2
  -4   8   8 17530.0 2612.29   6
  -8   4   8 16141.1 2799.46   6
   4   8   8 17133.4 3994.76   1
  -4  -8  -8 25258.9 2177.96  17
  -4   8  -8 20151.1 2203.47   4
   8   4   8 22276.5 4317.70   3
   4  -8  -8 9868.35 4322.44  10
   8   4  -8 23117.9 4596.83   2
   4   8   8 17881.4 2590.21  13
   4   8   8 18339.8 4094.30   3
   8  -4   8 22080.2 1631.71  25
  -4  -8   8 21579.1 6806.29  10
  -8  -4   8 28227.2 5179.12  11
  -8   4   8 23743.2 4649.43  11
  -4   8  -8 16885.7 6765.79  24
  -8   4  -8 19080.3 6110.35  24
   8  -4  -8 17413.1 3090.04  23
   4   8   8 23343.3 1978.53   5
   8   4   8 19922.2 1807.32   5
   8  -4   8 15557.8 2973.59  23
   4  -8   8 18582.0 3398.44  23
  -8  -4  -8 9206.38 4469.00  10
  -4  -8  -8 15373.6 6368.73  10
   4   8  -8 22176.4 4598.83  22
  -4  -8  -8 20668.8 5465.90  21
  -4   8  -8 18235.4 3937.28  22
  -8   4  -8 22517.0 2331.69   4
   8  -4  10 7844.60 3560.72   9
   8   4  10 4544.47 1961.05   1
   4   8  10 6812.66 1202.57   5
   8   4  10 6466.70 1085.96   5
   8  -4 -10 5567.72 823.913   8
   8   4 -10 4354.03 829.837   8
  -8  -4  10 9907.70 3241.95  11
   8   4 -10 4296.41 2119.82   2
   8  -4  10 3975.57 2069.80  20
   4  -8 -10 2147.48 1670.37   2
  -8   4  10 11421.4 5822.37   3
   4   8  10 4099.88 2124.90   1
  -4  -8 -10 5181.87 2934.91  21
  -8  -4 -10 5704.02 1136.52   7
  -8  -4  10 11955.8 3544.78  19
  -8   4  10 7708.80 2429.10  19
   4  -8  10 5652.36 2252.40  18
   8  -4  10 3259.48 1624.26  18
   4   8  10 7624.37 2426.63  18
  -4   8 -10 5550.48 1279.33   4
  -4  -8 -10 7631.46 1245.50  17
  -8   4 -10 5632.96 1297.76   4
  -4   8  10 3536.52 1315.89   6
  -8   4  10 8699.90 2990.36  11
  -4   8 -10 11421.5 5825.46  24
  -8  -4 -10 1694.09 2229.75  21
  -8   4  10 2906.47 1166.63   6
   8  -4  10 6337.15 2015.25  23
   8  -4 -10 5256.66 2488.45   2
  -4   8  10 3295.14 1570.80  13
   8  -4  10 6583.94 942.496  25
  -4   8  10 7630.96 3709.04   3
  -8   4 -10 8007.55 4391.92  24
   8   4  10 4122.35 1977.15   3
  -4  -8  10 725.011 2778.17  10
   4  -8  10 6274.33 2094.31  23
   4   8  10 5591.17 2436.37   3
  -4  -8 -10 6876.65 5084.67  10
   4  -8 -10 1347.53 1899.93  10
  -8  -4 -12 13728.6 1708.34   7
   8  -4 -12 11710.0 1243.16   8
   8   4 -12 10619.4 1153.19   8
  -4   8 -12 11550.2 1677.50   4
   8   4  12 11963.6 1470.29   5
  -8   4 -12 12973.6 1852.27   4
  -4  -8 -12 12481.6 1604.10  17
  -4   8  12 6344.29 1639.41   6
   4   8  12 9292.33 1601.87  15
   4   8  12 14154.8 1757.58   5
   8  -4  12 13067.4 1299.92  25
   8  -4 -14 5069.00 830.929   8
   8   4 -14 4029.46 659.300   8
   4   8  14 4410.14 1035.16   5
   8   4  14 3234.10 807.973   5
  -8  -4 -14 3753.73 921.235   7
  -4  -8 -14 4515.45 986.739  17
  -4   8 -14 3474.60 1033.73   4
  -8   4 -14 4041.95 1159.09   4
   4   8 -14 6199.66 1120.33  14
   8  -4  14 4162.38 698.854  25
   8   4  16 2816.99 791.097   5
   8   4 -16 2385.16 501.969   8
   8  -4 -16 3981.87 702.469   8
   4   8  16 4033.96 1023.45   5
  -8  -4 -16 3153.89 878.629   7
  -4  -8 -16 3331.10 724.554   7
  -4  -8 -16 3888.78 897.037  17
  -8   4 -16 3730.52 982.311   4
   8   4 -16 4219.13 800.969  14
   4   8 -16 3793.78 789.979  14
   8  -4 -18 5467.38 692.240   8
   8   4 -18 6321.80 676.980   8
  -8   4 -18 6682.82 1178.78   4
  -8  -4 -18 6051.03 979.871   7
  -4  -8 -18 5772.47 830.461   7
   4  -8 -18 5194.40 795.553   7
  -4  -8 -18 5819.20 925.961  17
   4  -8 -18 5612.14 733.355  17
   4   8 -18 6450.00 824.139  14
   8   4 -18 6743.63 765.587  14
   4   8  18 7667.69 1095.44   5
   8   4  18 5776.49 921.916   5
   8   4 -20 7100.31 576.980   8
  -8   4 -20 7868.39 1030.88   4
  -8  -4 -20 7053.15 865.183   7
  -8  -4 -20 8671.00 1018.48   4
   4  -8 -20 7467.35 754.326   7
   8  -4 -20 6876.47 692.558   7
   8   4  20 8244.43 784.828  25
   4   8  20 8669.24 963.544   5
   8   4  20 7782.53 848.008   5
  -5   8   1 1520.97 1824.81  22
  -8  -5  -1 4717.78 2796.11  21
  -8  -5   1 4260.42 2603.07  21
  -5  -8  -1 4101.91 2265.13  21
  -5   8   1 1644.66 1753.60   3
   5  -8  -1 5000.13 3258.83  20
   5  -8   1 6022.77 3370.01  20
   8  -5  -1 5874.01 3059.28  20
   8  -5   1 3940.52 2446.77  20
   5   8   1 2885.43 1263.74   3
  -5   8  -1 799.584 1334.75   3
  -8   5   1 2981.41 2975.63   3
  -8  -5   1 5385.05 2020.67  19
  -8   5   1 3234.00 1167.62  19
  -8  -5  -1 3950.38 1875.13  19
  -8   5  -1 3681.85 1455.31  19
   8   5  -1 4893.67 1873.00   2
   8   5  -1 4802.95 1948.28   1
   8   5   1 4629.41 1819.40   2
   8   5   1 6573.21 2210.98   1
  -5  -8   1 4654.83 2569.13  21
   8  -5   1 4221.05 1495.82  23
   8   5  -1 4539.21 1540.85   3
   5   8   1 4531.24 1790.91   1
   5   8  -1 3535.65 1502.01   1
  -8   5   1 3868.02 1847.63  11
   8   5   1 5151.07 1767.28   3
  -8  -5   1 7807.83 3880.66  10
  -5  -8   1 3657.75 2780.02  10
  -8  -5  -1 6869.06 3509.51  10
  -5  -8  -1 3894.86 2670.75  10
   8  -5  -1 4534.65 1578.68  23
   5  -8  -1 4583.75 1353.25  23
   5  -8   1 4682.23 1543.54  23
   5   8  -1 3881.18 1842.14  22
   5   8   1 3419.86 2039.87  22
  -5   8  -1 2411.48 1566.82  22
   8  -5   3 9327.89 3568.07  20
  -8  -5  -3 11582.5 4380.99  21
  -8  -5   3 8131.40 3430.03  21
  -5   8   3 9014.80 3800.09   3
   5  -8  -3 5013.02 3247.39  20
   5  -8   3 5947.76 3320.17  20
   8  -5  -3 10140.8 3937.84  20
  -8   5   3 7566.90 4191.24   3
  -5  -8   3 11427.3 3737.95  21
  -5   8  -3 7736.95 3338.06   3
   8   5  -3 9725.52 2837.73   2
  -8  -5   3 9741.58 2848.84  19
  -8   5   3 3439.32 1384.89  19
  -8  -5  -3 7791.51 2612.03  19
  -8   5  -3 5682.95 2009.30  19
   8   5  -3 12199.8 2931.62   1
  -5  -8  -3 12268.6 4111.60  21
   8   5   3 10220.6 2883.25   1
   8   5   3 11799.7 2856.69   3
   5   8   3 11889.4 3022.79   1
   5   8  -3 7250.69 1991.24   1
  -8   5   3 6075.27 2388.33  11
  -5   8  -3 4114.19 3163.08  24
   5  -8  -3 8354.00 1940.83  23
  -8  -5   3 15558.2 5879.27  10
   8  -5   3 9638.00 2218.19  23
  -5  -8   3 10790.9 4817.60  10
   5  -8   3 8135.44 2008.27  23
  -8  -5  -3 12565.5 5055.72  10
   5   8   3 8505.23 2349.58   3
  -5  -8  -3 7765.25 4945.89  10
   8  -5  -3 6657.25 1845.19  23
   5   8  -3 6196.95 2341.26  22
   5   8   3 5146.71 2563.40  22
  -5   8  -3 6731.45 2690.72  22
   8   5   5 2359.12 638.196   5
  -8  -5  -5 1134.86 2080.35  21
  -5  -8  -5 3153.87 2206.26  21
  -5  -8   5 5800.96 2669.41  21
  -5   8   5 261.463 976.231   3
   5  -8  -5 1804.03 1523.81  20
   5  -8   5 2807.62 2211.95  20
   8  -5  -5 431.532 991.481  20
   8  -5   5 60.5278 645.463  20
  -8   5   5 6029.52 4117.07   3
  -8  -5   5 575.254 865.161  19
  -8   5   5 280.510 387.679  19
  -5  -8  -5-2731.90 3578.69  10
  -8  -5  -5 2829.69 1633.00  19
   8  -5   5 2510.56 1439.29  18
   8   5  -5-47.2539 383.014   1
   5   8  -5 2070.01 1286.68   2
  -5   8  -5 1587.90 790.722   4
   8  -5  -5 2171.88 1192.61   2
  -8   5  -5 442.339 643.441   4
   5   8   5 2031.00 566.275   5
   5   8  -5 1006.85 1192.30  22
   5  -8  -5 738.421 873.588   2
   5  -8  -5 2238.04 953.818  23
   8   5   5 1860.58 795.297  15
  -5   8   5 44.1865 1134.00   6
  -8   5   5 2142.32 1150.06   6
   5   8   5 1942.30 1120.33  13
   8   5   5 1065.24 1018.88   1
   8  -5   5 2473.91 1216.42  23
   8   5  -5-1682.62 1253.46   2
  -5   8  -5 1614.57 1223.19  22
  -8   5   5 1106.08 541.317  11
  -5   8  -5 4427.91 3452.31  24
   8   5   5 2020.22 1268.96   3
  -5  -8   5 748.440 2524.38  10
   5   8   5 2479.24 1179.56   3
   8  -5  -5 2519.53 1270.44  23
  -8  -5   5 3672.20 2058.42  10
   5  -8   5 1565.89 965.615  23
   5   8  -5 1641.44 623.132   5
   8   5  -5 1581.77 593.999   5
  -8  -5  -5-1423.80 2682.39  10
   5   8   5 561.408 841.068   1
  -5  -8  -7 5783.48 3072.82  21
   5   8   7 5312.81 986.144   5
  -5   8   7 4810.99 3122.00   3
   5  -8  -7-741.743 1527.67  20
   5  -8   7 2267.95 2339.99  20
   8  -5   7 5281.43 2700.61  20
  -8   5   7 7985.85 4921.38   3
   8   5  -7 3798.61 1894.41   2
  -8  -5   7 4133.16 2001.14  19
   8  -5   7 4167.51 1472.53  23
   5   8  -7 2059.04 1316.18   2
   8  -5   7 3290.80 1523.42  18
   5   8   7 4113.37 2183.62   1
  -5   8  -7 4061.89 1048.45   4
   5   8   7 4780.22 1791.53  18
  -5  -8  -7 4760.27 985.697  17
  -8   5  -7 6229.54 1313.38   4
  -8  -5  -7-6740.34 4150.64  10
  -8   5  -7 4083.18 1280.02  16
  -5   8   7 3372.04 1501.60   6
  -5  -8  -7 5938.77 4207.01  10
   8   5   7 4436.08 1096.51  15
  -8   5   7 2569.49 1298.08   6
   5   8   7 5967.97 1601.42  13
   8  -5   7 5088.96 805.480  25
   8   5   7 4257.07 881.808   5
   8  -5  -7 4402.30 1623.68  23
  -8   5   7 3053.02 1661.78  11
   5  -8  -7 2829.47 1630.15   2
   8   5   7 5831.74 2379.48   1
  -5   8  -7 6843.01 5171.24  24
  -8   5  -7 9058.04 4378.24  24
   8   5   7 4769.44 2017.55   3
  -5  -8   7 6244.61 4827.77  10
   5   8  -7 5256.58 1025.62   5
   8   5  -7 5317.43 977.344   5
   5   8   7 4884.83 2147.71   3
   5  -8   7 3187.25 1345.69  23
   8  -5  -7 3007.62 1542.38   2
   5  -8  -7 3956.58 1332.42  23
   5   8  -7 5517.43 2492.38  22
  -8  -5  -7 339.488 1152.24  21
   8  -5   9-796.926 1292.36   9
  -8  -5  -9 490.142 1329.97  21
  -5  -8  -9 1399.37 1731.47  21
   5   8   9 187.001 639.346   5
   8   5   9 551.797 479.669   5
   8   5   9 4778.63 2066.09   1
   8  -5   9-1118.82 1183.89  20
   8   5  -9-22.6575 491.493   2
   8   5  -9 549.617 380.558   8
  -8  -5   9-2810.94 1806.08  19
  -5   8   9 2189.53 2326.90   3
   5   8   9-1045.83 1204.44   1
  -8  -5  -9 422.374 525.702   7
   5  -8   9-550.081 833.247  18
   8  -5   9-130.817 506.704  18
   5   8   9 150.396 542.093  18
  -5   8  -9 1376.29 896.544   4
  -5  -8  -9 409.968 434.949  17
  -8   5  -9-46.5300 653.971   4
  -8   5   9 2157.65 2928.46   3
  -5   8   9 531.897 1155.56   6
   5   8   9 452.484 641.356  15
  -8   5   9 1134.10 1013.20   6
   5   8   9 111.523 611.650   3
  -8   5   9 10.9283 415.185  11
   8  -5   9 586.626 309.822  25
   5  -8  -9-606.597 948.851   2
  -5   8  -9 2198.86 3583.24  24
  -8   5  -9-1884.23 2580.27  24
   8   5   9 150.317 612.532   3
  -5  -8   9-1715.48 2747.17  10
   8  -5   9-1338.39 934.096  23
   5  -8   9 229.623 822.861  23
  -5  -8  -9-3191.18 3176.48  10
  -8  -5  -9-6480.00 4056.47  10
   8  -5  -9 4428.85 2023.55   2
   5   8  11 1166.90 733.786   5
   8   5  11-316.009 533.054   5
  -5  -8 -11-967.084 3377.32  21
   8  -5 -11 119.764 308.155   8
   8   5 -11-182.136 235.626   8
  -8  -5 -11 476.016 470.274   7
   8  -5  11-2583.50 1559.23  18
   5   8  11-1041.84 1087.82  18
  -5   8 -11 775.467 832.891   4
  -5  -8 -11-12.3243 284.172  17
  -8   5 -11 111.835 514.428   4
  -5   8  11-1589.77 1156.23   6
  -8   5  11 1032.63 1027.43   6
   5   8  11 368.176 504.664  15
   8  -5  11-447.903 395.760  25
  -8   5 -11 737.180 1956.05  24
   8   5  13 144.755 544.064   5
   8  -5 -13 187.398 224.680   8
   8   5 -13-276.913 323.900   8
  -8  -5 -13 190.095 427.921   7
  -5   8 -13 1207.44 673.633   4
  -5  -8 -13 204.484 263.407  17
  -5   8  13-76.1830 719.540   6
  -8   5 -13 180.955 603.802   4
   5   8  13-355.647 403.681  15
   5   8 -13 487.059 388.624  14
   5   8  13 660.022 585.947   5
   8  -5 -15 7313.53 926.782   8
   8   5 -15 7029.77 803.672   8
  -5   8 -15 6699.75 1272.78   4
  -8  -5 -15 7727.09 1233.52   7
  -5  -8 -15 5721.88 1072.73  17
  -8   5 -15 6447.05 1298.90   4
   5   8 -15 8211.15 1160.91  14
   8   5 -15 7267.31 1095.35  14
   5   8  15 9162.61 1382.34   5
   8   5  15 7816.19 1210.06   5
   5   8  17 1457.14 678.603   5
   8   5  17 479.827 408.560   5
   8  -5 -17 1223.87 399.082   8
   8   5 -17 939.415 338.663   8
  -8  -5 -17 673.601 424.088   7
  -5  -8 -17 507.222 347.940  17
  -8   5 -17 876.175 566.511   4
   5   8 -17 975.581 389.448  14
   8   5 -17 723.486 320.692  14
   5   8  19 1958.57 531.041   5
   8   5  19 2166.49 563.176   5
  -8  -5 -19 819.053 334.734   7
   5  -8 -19 1800.39 402.954   7
  -8   5 -19 1877.54 568.005   4
  -8  -5 -19 1712.03 564.007   4
   8   5  19 1851.79 427.840  25
   8   5 -19 1551.83 281.865   8
   8   5 -19 1514.92 328.028  14
  -8  -6   0-455.676 1148.39  21
  -6  -8   0-1604.71 1640.17  21
   6  -8   0-786.860 2616.57  20
   8  -6   0 54.0808 778.394  20
  -6   8   0 293.920 1118.58   3
  -8  -6   0 1475.16 1315.52  19
   6   8   0-8.43015 832.119   1
  -6   8   0 732.821 898.774   4
  -8   6   0-301.671 622.924   4
   8   6   0 734.802 837.073   2
  -8   6   0-267.686 624.825  16
  -6   8   0 987.815 1454.50  22
   8   6   0 330.520 641.148  15
   6   8   0 1029.87 632.308  15
  -6   8   0-570.842 984.529   6
   8   6   0-148.934 574.263   1
  -8   6   0 713.104 1000.97   6
   6  -8   0-230.145 538.762  23
   8   6   0 810.374 722.192   3
  -8  -6   0 1146.43 2538.48  10
  -6  -8   0-1721.81 3715.23  10
   8  -6   0-17.6362 608.087  23
   6   8   0-523.643 1217.02  22
   6   8   0 327.910 509.452   5
   8   6   0 240.401 586.088   5
  -6   8   2 9046.31 3989.47  22
  -6  -8   2 22774.4 6011.49  21
  -8  -6   2 15617.8 4965.75  21
  -8   6   2 12674.5 1824.85   4
  -6   8  -2 17411.5 2286.18   4
   6  -8  -2 10555.0 4617.87  20
   6  -8   2 7520.92 3744.04  20
  -8   6  -2 14857.8 1984.91   4
   6   8  -2 14080.6 3045.52   1
  -6   8   2 5956.68 3358.90   3
   8  -6  -2 10389.7 3852.53  20
  -8   6   2 11281.7 5261.65   3
  -8  -6   2 16924.9 3844.24  19
  -6   8  -2 6928.27 3544.22   3
  -6  -8  -2 14345.2 5094.46  21
  -6   8   2 6202.80 1426.64   4
  -8  -6  -2 15224.0 3515.06  19
  -6   8  -2 14897.3 3949.23  22
   6   8   2 13304.7 3225.87   1
  -6   8   2 15544.9 2666.82   6
  -8   6   2 17398.7 2976.28   6
  -8   6  -2 16952.2 2768.20   6
  -8  -6  -2 11722.4 4584.19  21
  -8   6  -2 15658.1 2457.19  16
   8   6   2 17443.7 2155.35  15
   6   8   2 14669.6 1950.83  15
   6   8  -2 17051.5 1634.20   5
   8   6   2 13123.9 2955.19   3
   6   8   2 13565.1 2911.78   3
  -6   8  -2 8882.21 4703.19  24
   8   6  -2 15072.4 3568.99   2
   8   6  -2 15181.8 1530.20   5
  -8   6   2 11858.7 3214.22  11
   6   8   2 17247.1 1656.79   5
   8   6  -2 14574.5 3327.22   1
   8  -6  -2 14405.0 2762.03  23
   6  -8  -2 14233.7 2592.92  23
   8  -6   2 14139.0 2758.67  23
  -8  -6   2 17517.3 6220.17  10
   6  -8   2 15353.0 2836.27  23
  -6  -8   2 15776.2 6202.86  10
   8   6   2 16261.9 3618.23   1
  -8  -6  -2 17580.7 6672.46  10
  -6  -8  -2 14951.7 6443.63  10
   8  -6   2 13324.8 4393.44  20
   8   6   2 15768.8 1565.12   5
   6   8  -2 16125.7 3625.75  22
   6   8   4 1903.86 657.203   5
   8   6   4 1279.89 569.387   5
  -8  -6  -4 732.768 1406.54  21
  -6  -8  -4-154.387 877.001  21
  -6  -8   4 2484.74 1906.40  21
  -6   8   4-124.402 1232.61   3
   6  -8  -4 2950.43 2484.84  20
   6  -8   4 2608.19 2484.14  20
   8  -6  -4 4528.88 3030.37  20
   8  -6   4 3119.95 2180.42  20
  -8   6   4-1356.48 2153.02   3
  -8  -6   4 1151.22 1094.44  19
  -8  -6  -4 3728.50 1911.11  19
   8   6  -4 1667.63 1279.30   2
  -6   8  -4 1324.47 811.363   4
   6   8  -4 3162.24 1850.63   2
  -8   6  -4 2602.67 919.431   4
  -6  -8  -4 2838.39 729.933  17
  -8   6  -4 2528.19 1013.93  16
   6   8   4 3607.17 1799.78   1
   8   6   4 2437.04 801.242  15
  -6   8   4 2014.64 1227.37   6
   6   8   4 1883.93 806.831  15
  -8   6   4 623.603 920.362   6
   8   6  -4 2977.55 1422.14   1
   8  -6  -4 1802.92 1110.76  23
   8   6   4 2179.19 1459.05   1
  -6  -8  -4 5332.30 4373.85  10
  -8   6   4 1713.76 1221.30  11
  -6   8  -4 1701.63 3340.83  24
   8   6   4 1074.11 966.912   3
  -8  -6   4 259.519 1962.61  10
  -6  -8   4 1988.69 5210.69  10
   6   8   4 2767.53 1460.91   3
  -8  -6  -4 4537.71 3099.18  10
   6  -8  -4 1716.01 1077.36  23
   8  -6   4 2531.40 1146.56  23
   6  -8   4 1590.39 1004.66  23
   6   8  -4 1598.65 589.043   5
   8   6  -4 1458.03 660.446   5
   6   8  -4 2074.79 1519.10  22
   6   8   6 2499.41 758.447   5
   8   6   6 2409.21 763.841   5
  -6  -8  -6 4599.98 2869.56  21
  -8  -6  -6-73.5698 875.241  21
  -6   8   6 287.897 1324.16   3
   6  -8  -6 564.914 1420.79  20
   6  -8   6-509.743 1055.20  20
   8  -6  -6 4170.76 2401.22  20
  -8   6   6 2266.72 2935.65   3
   8   6  -6 1985.08 1428.28   2
  -8  -6   6 1246.43 1174.35  19
   8  -6   6-1520.55 1523.01  20
   8  -6  -6 595.025 724.779  23
   6   8  -6 1941.21 1284.16   2
   8  -6   6 734.295 836.043  18
  -6   8  -6 1702.30 912.071   4
  -8   6  -6 1019.19 814.730   4
  -6  -8  -6 2325.48 750.127  17
  -8   6  -6 62.4677 929.009  16
   8   6   6 1128.25 779.853  15
  -6   8   6 2058.99 1166.17   6
   6   8   6 1163.71 840.562  15
  -8   6   6 2121.99 1419.84   6
   8  -6   6 327.463 522.700  23
   8   6  -6 2727.76 834.853   5
  -8   6   6 5508.50 2215.27  11
  -6   8  -6 4446.95 3625.23  24
   6   8   6 1800.13 1385.88   1
   6  -8  -6 1884.51 1332.38   2
   8   6   6-321.828 650.936   3
  -6  -8   6 454.100 2257.67  10
   6   8   6 2457.81 1489.82   3
   6  -8  -6 127.419 450.514  23
  -8  -6  -6-2212.82 2796.79  10
   6  -8   6 2323.43 1197.75  23
   6   8  -6 1910.04 771.357   5
   8   6   6 1659.42 1302.36   1
   8  -6  -6 2151.81 1290.87   2
  -8  -6   6 870.093 2064.60  10
  -6  -8  -6-7823.86 4874.51  10
   6   8  -6 706.673 1028.22  22
  -8  -6  -8 6219.49 3763.73  21
   6   8   8 3295.35 934.354   5
  -6  -8  -8 3187.77 2562.11  21
   8   6   8 2817.33 822.110   5
  -6   8   8 1302.97 2050.42   3
   8   6  -8 2893.05 668.958   8
   8   6   8 4142.39 2014.36   1
   6  -8   8-375.532 747.522  20
   8  -6   8 4277.43 2307.02  20
  -8   6   8 470.099 1807.95   3
   8   6  -8 2848.50 1741.51   2
  -8  -6   8-1010.38 1154.78  19
   6   8   8 3693.63 1955.81   1
   6   8  -8-1581.99 1211.94   2
   6  -8   8 2200.45 1431.77  18
   8  -6   8 2741.80 1514.94  18
  -6   8  -8 2703.67 1009.18   4
  -8   6  -8 3381.06 1046.94   4
  -6  -8  -8 2321.40 786.166  17
  -6   8   8 1745.55 1072.24   6
   8   6   8 1809.98 787.427  15
   6   8   8 1184.46 595.305  15
  -8   6   8 2566.92 1248.56   6
   8  -6  -8 1003.92 501.744  23
   6   8  -8 4161.18 1045.09   5
   8   6  -8 3378.99 894.646   5
  -8   6   8 4407.91 2046.22  11
  -8  -6   8 6610.91 2703.27  10
  -6   8  -8 5369.31 4075.64  24
  -8   6  -8-3093.44 2908.90  24
   6  -8  -8 2400.94 1544.44   2
   8   6   8 4681.20 2109.41   3
  -6  -8   8 9800.23 5212.48  10
   6   8   8 2761.56 1713.13   3
   8  -6   8 129.087 431.118  23
   6  -8   8 1315.75 951.477  23
  -8  -6  -8 9326.46 5027.17  10
  -6  -8  -8 4960.19 4574.28  10
   8  -6  -8 4111.73 1861.26   2
  -6  -8 -10-566.435 1292.14  21
   6   8  10 1195.18 686.632   5
   8   6 -10 409.719 389.651   8
  -8  -6  10 3193.21 2010.75  19
  -6   8 -10-82.9983 620.295   4
  -8   6 -10 293.744 576.830   4
  -6  -8 -10 1069.91 644.499  17
  -6   8  10 1787.87 1110.04   6
   8   6  10 872.802 495.426  15
  -8   6  10 1000.07 1107.48   6
   6   8  10 754.973 606.127  15
  -6   8 -10-2542.57 3185.74  24
  -8   6 -10 1543.07 2861.20  24
   8   6  10 619.014 523.251   5
   8   6  12 1746.39 728.135   5
   6   8  12 898.814 638.188   5
   8   6 -12 821.257 290.126   8
  -8  -6 -12 841.723 661.609   7
  -6   8 -12 1226.31 669.357   4
  -6  -8 -12 1624.21 675.310  17
  -8   6 -12 1274.36 646.612   4
  -6   8  12-846.250 873.295   6
  -8   6  12 144.188 732.779   6
   6   8  12 1930.43 822.678  15
   8  -6 -14 4253.51 691.709   8
   8   6  14 5047.95 1016.39   5
   8   6 -14 2811.29 559.196   8
  -8  -6 -14 3456.06 881.459   7
  -6   8 -14 2720.02 893.626   4
  -6  -8 -14 5186.93 1105.75  17
   6   8  14 4102.78 971.704   5
  -8   6 -14 3920.83 1114.44   4
   6   8 -14 5524.89 1012.39  14
   6   8  16 1161.70 583.781   5
   8   6  16 1387.65 611.678   5
   8  -6 -16 1138.40 348.011   8
   8   6 -16 1524.73 382.461   8
  -8  -6 -16 1521.59 518.539   7
  -6   8 -16 1462.96 562.871   4
  -8   6 -16 1058.78 480.377   4
   6   8 -16 1666.95 511.708  14
   8   6 -16 1683.62 537.148  14
   6   8  18 386.028 404.774   5
  -8  -6 -18 193.131 283.333   7
  -6   8 -18 298.596 237.129   4
   6  -8 -18 318.862 225.304   7
  -8   6 -18 214.257 286.567   4
   6  -8 -18 365.244 178.627  17
  -8  -6 -18 510.740 352.684   4
   6   8 -18-399.618 284.045  14
   8   6 -18-33.0292 163.473  14
   6   8  20 1628.17 398.546   5
   8   6  20 677.521 278.036   5
   6  -8 -20 1032.49 242.712   7
   8  -6 -20 758.506 217.856   7
   8   6  20 726.758 217.296  25
   7   8   1 4526.63 920.865   5
   8   7   1 5291.24 1028.13   5
  -8  -7  -1 942.578 1613.66  21
  -7  -8  -1 3817.87 2646.40  21
   7  -8  -1 4043.46 3025.27  20
   7  -8   1-1437.17 1873.83  20
   8  -7   1 2711.01 2221.47  20
   7   8  -1 5112.27 2107.19   1
   7   8   1 3627.15 1758.12   1
  -7   8   1 5981.64 4740.68   3
  -8   7   1-4423.59 3415.19   3
  -7   8  -1 663.488 1502.00   3
  -7  -8   1 4381.84 3126.00  21
  -7   8   1 3484.07 1085.21   4
  -8   7   1 4522.13 1316.22   4
   7  -8   1 2459.40 1299.90  23
  -7   8  -1 6093.51 1448.12   4
  -8   7  -1 5109.80 1301.15   4
   8   7  -1 5604.59 2207.42   2
   8   7  -1 3863.86 1023.19  15
   8   7   1 5144.79 1270.08  15
   7   8  -1 3197.52 1051.25  15
   7   8   1 3141.10 1007.47  15
  -7   8   1 4366.64 1641.99   6
  -7   8  -1 4806.83 1652.23   6
  -8   7   1 6182.66 1845.25   6
  -8   7  -1 5340.77 1650.57   6
  -8  -7   1 2312.52 2121.58  21
   8   7  -1 5278.80 2070.47   1
   8   7   1 4566.19 1916.02   1
  -8  -7   1 5761.97 4273.21  10
  -7  -8   1 1192.46 3350.34  10
  -8  -7  -1 6869.32 4478.80  10
  -7  -8  -1 5263.91 4097.45  10
   8  -7  -1 2590.67 1177.87  23
   7  -8  -1 3369.07 1492.08  23
   8  -7   1 3273.69 1232.07  23
   8  -7  -1 278.263 877.657  20
   7   8  -1 4344.77 999.497   5
   8   7  -1 5735.19 1071.34   5
  -7   8   3 7958.93 4235.95  22
  -8  -7  -3 5268.80 3510.77  21
  -8  -7   3 3779.71 2682.59  21
  -7  -8  -3 11699.0 4927.43  21
  -8   7   3 3248.11 1061.86   4
  -7  -8   3 8345.73 4108.12  21
  -7   8  -3 8900.05 1660.88   4
  -8   7  -3 9256.63 1682.56   4
   7  -8  -3 6987.74 3642.74  20
   7  -8   3 5991.22 3271.44  20
   8  -7  -3 6506.36 3272.71  20
  -7   8   3 5733.04 3739.45   3
  -8   7   3 7092.36 4424.84   3
   7   8  -3 10301.1 2762.01   1
   7   8   3 7581.26 2537.62   1
   8   7  -3 10177.6 2973.65   2
   7   8  -3 8548.05 2655.26   2
  -8   7  -3 5488.34 1595.42  16
   7   8  -3 9088.60 1578.84  15
   8   7   3 9082.18 1657.97  15
   7   8   3 8049.62 1485.58  15
  -7   8  -3 9033.86 1972.74   6
  -7   8   3 11023.8 2450.96   6
  -8   7   3 8861.15 2174.90   6
  -8   7  -3 10074.0 2213.80   6
   8   7  -3 10659.5 1367.67   5
   7   8  -3 9135.11 1249.28   5
   7  -8   3 5289.67 1858.96  23
  -8   7   3 5188.86 2197.17  11
   7   8   3 9475.34 1328.93   5
   8   7   3 9648.48 1339.38   5
   8   7  -3 7386.82 2219.59   1
   8   7   3 8107.73 2905.52   3
  -8  -7   3 10434.2 4206.26  10
  -7  -8   3 3178.66 2292.85  10
   7   8   3 7120.19 2296.00   3
   8  -7   3 8953.80 3776.28  20
  -8  -7  -3 17136.9 6759.27  10
  -7  -8  -3 10233.6 5856.38  10
   8  -7  -3 6265.84 1970.90  23
   7  -8  -3 7723.03 2126.21  23
   8  -7   3 6857.75 2090.95  23
   8   7   3 8321.74 2786.84   1
   7   8   5 7824.24 1200.35   5
   8   7   5 5657.16 1004.44   5
  -8  -7  -5 6289.18 3365.73  21
  -7  -8  -5 3685.48 2853.69  21
   7  -8  -5 5914.64 3332.06  20
   7  -8   5 4889.79 2909.34  20
  -7   8   5 8781.45 4636.28   3
   8  -7   5 3633.96 2330.31  20
  -8   7   5 5281.11 4034.52   3
   8  -7   5 2636.13 1518.01  18
   8   7  -5 5879.61 2424.36   2
  -7   8  -5 5380.49 1405.41   4
   7   8  -5 5196.13 2113.87   2
  -8   7  -5 6316.07 1385.81   4
  -7  -8  -5 6189.29 1177.29  17
   8   7   5 4207.63 2246.00   1
  -8   7  -5 5531.05 1531.14  16
   8  -7  -5 813.331 1271.10  20
   7   8   5 6224.02 2454.55   1
  -7  -8  -5 3433.38 2487.52  10
   8   7   5 5101.31 1242.57  15
   7   8   5 3805.26 1233.96  15
  -7   8   5 4387.90 1683.72   6
  -8   7   5 4162.35 1655.40   6
   7   8  -5 7122.43 1148.09   5
  -8   7   5 4971.99 2175.63  11
   8   7   5 5716.66 2379.42   3
  -8  -7   5 8067.23 4928.20  10
  -7  -8   5 1894.44 4433.83  10
   7   8   5 6309.75 2352.33   3
   8  -7  -5 3836.79 1507.55  23
   8  -7   5 5710.47 1865.65  23
   7  -8   5 5359.20 1808.42  23
   8   7  -5 6627.96 1109.99   5
   7  -8  -5 2933.14 996.420  23
  -7   8  -5 5034.05 3682.98  24
   7   8  -5 3486.87 1844.23  22
  -8  -7  -5 3786.26 3957.31  10
  -8  -7  -7 7687.64 4241.80  21
  -7  -8  -7 5664.34 3592.46  21
  -7   8   7 10542.3 5150.83   3
   7  -8   7 4835.31 2685.89  20
  -7   8  -7 9571.24 1865.61   4
   8  -7   7 8054.84 3290.18  20
  -8   7  -7 11205.6 1809.94   4
   8   7  -7 7958.96 2809.47   2
   8   7   7 10998.5 3216.59   1
   7   8  -7 6883.34 2527.33   2
   7  -8   7 6832.20 2654.50  18
   8  -7   7 7508.72 2466.62  18
  -7  -8  -7 9832.64 1511.35  17
  -8  -7  -7 13112.9 6305.25  10
   8   7   7 9875.25 1732.76  15
  -7   8   7 9206.17 2039.30   6
   7   8   7 7246.04 1547.19  15
  -8   7   7 10138.1 2335.99   6
   8   7   7 12488.9 3474.72   3
   7   8  -7 12296.7 1523.19   5
   8   7  -7 12028.8 1487.63   5
  -8   7   7 8215.17 2792.11  11
  -7   8  -7 15665.5 6943.71  24
   7   8   7 10999.2 1496.36   5
   8   7   7 11352.4 1463.58   5
   7   8   7 7465.18 2764.67   1
  -8  -7   7 14589.9 7252.89  10
  -7  -8   7 10563.5 5830.32  10
   7   8   7 8915.04 2944.11   3
   7  -8  -7 7093.73 2230.57  23
   8  -7  -7 6503.46 1983.40  23
  -8   7   7-4688.94 4457.70   3
  -7  -8  -7 4008.20 4004.04  10
   8  -7   7 6326.05 2033.83  23
   7  -8   7 7631.31 2234.81  23
  -7   8  -9 11625.9 1937.95   4
  -8   7  -9 11793.5 1866.88   4
  -7  -8  -9 13056.6 1783.24  17
   8   7   9 11265.9 1862.44  15
  -7   8   9 12662.2 2434.30   6
   7   8   9 10066.5 1749.61  15
  -8   7   9 11031.6 2311.52   6
   7   8   9 13866.9 1672.07   5
   8   7   9 14657.1 1681.15   5
   7   8  11 5875.82 1197.60   5
   8   7  11 5015.32 1042.44   5
  -7   8 -11 5051.31 1272.77   4
  -8   7 -11 4668.70 1226.27   4
  -7  -8 -11 4144.24 1021.19  17
  -7   8  11 2679.60 1149.75   6
  -8   7  11 3060.14 1171.62   6
   7   8  11 2760.43 953.701  15
   7   8  13-412.529 636.676   5
   8   7  13 64.7644 566.390   5
  -7   8 -13-23.1205 461.386   4
  -8   7 -13 1043.01 811.795   4
  -7   8  13 1091.49 794.986   6
  -8   7  13-81.2788 558.950   6
   7   8  15 6871.52 1126.26   5
   8   7  15 6219.55 1056.69   5
  -7   8 -15 4570.75 1095.22   4
  -8   7 -15 4792.31 1095.88   4
   7   8 -15 5461.36 923.905  14
   8   7 -15 5684.35 953.666  14
  -7   8 -17 4473.60 859.638   4
  -8   7 -17 4847.66 941.251   4
   7   8 -17 5049.98 707.139  14
   8   7 -17 5632.10 747.878  14
   7   8  17 7635.89 1029.31   5
   8   7  17 6841.29 972.507   5
   7   8  19 3028.05 518.588   5
   8   7  19 3478.56 557.064   5
   7  -8 -19 2092.33 353.629   7
   8  -7 -19 2339.63 403.858   7
  -8   7 -19 1442.76 424.699   4
   7   8  19 3073.36 450.914  25
   8   7  19 2882.24 432.265  25
  -8   8   0 8109.07 1671.83   4
   8   8   0 9713.20 1755.43  15
  -8   8   0 7806.92 1987.78   6
  -8  -8   0 9725.77 4312.33  21
   8  -8   0 841.287 1444.68  20
   8   8   0 9855.88 1356.06   5
  -8  -8   0 3494.31 3629.41  10
   8  -8   0 10054.1 2402.85  23
   8   8   0 5394.76 2198.14   1
  -8  -8  -2 50160.5 10742.6  21
  -8  -8   2 58510.9 10944.8  21
   8   8  -2 44853.0 6115.76   1
   8   8   2 50842.0 6991.44   1
   8  -8   2 39235.8 8218.81  20
  -8   8  -2 60684.0 4342.24   4
  -8   8   2 33373.6 9902.12   3
  -8   8   2 50857.7 4965.01   6
  -8   8  -2 41073.8 4385.60   6
   8   8  -2 64465.3 4178.76  15
   8   8   2 57034.8 4101.64  15
   8   8  -2 56108.9 3075.74   5
   8   8   2 57169.0 3180.57   5
   8  -8  -2 44851.3 5156.70  23
   8  -8   2 45620.2 5305.95  23
  -8  -8   2 46542.6 11505.1  10
  -8  -8  -2 54579.9 12912.9  10
   8  -8  -2 30670.9 7450.83  20
  -8  -8  -4 32733.6 8765.06  21
   8   8   4 29212.2 5583.02   1
  -8   8  -4 38728.7 3529.32   4
   8  -8  -4 22661.2 6714.42  20
   8  -8   4 22140.5 6241.75  20
   8   8  -4 40362.0 2592.61   5
  -8   8   4 24756.9 8382.69   3
  -8  -8  -4 26485.1 9063.76  10
  -8   8   4 35162.2 4338.69   6
   8   8   4 32683.5 3133.62  15
   8   8   4 30675.8 5091.27   3
   8   8  -4 33492.3 6138.61   2
   8   8   4 40283.4 2714.68   5
   8  -8  -4 27650.1 4071.11  23
   8  -8   4 29684.9 4354.47  23
  -8  -8   4 32034.9 9890.34  10
  -8  -8  -6 14116.8 5855.52  21
  -8   8  -6 16094.8 2331.85   4
   8  -8  -6 6667.26 3409.51  20
   8  -8   6 21649.0 5717.79  20
   8  -8   6 9531.57 2947.42  18
   8   8  -6 17091.8 4074.32   2
  -8   8   6 15552.3 3136.92   6
   8   8   6 16491.2 2301.61  15
   8   8  -6 18995.3 1832.79   5
   8   8   6 18226.5 1890.35   5
   8  -8   6 12836.7 2978.04  23
   8   8   6 7726.82 2740.57   3
   8  -8  -6 10967.5 2609.19  23
  -8  -8  -6 12149.7 6478.64  10
  -8   8  -8 24575.7 2806.59   4
  -8   8   8 18914.3 3198.11   6
   8   8   8 23452.5 2657.95  15
   8   8   8 26066.2 2281.59   5
  -8   8 -10 27492.8 2874.16   4
  -8   8  10 22606.5 3164.36   6
   8   8  10 25654.8 2736.19  15
   8   8  10 33945.5 2597.23   5
  -8   8 -12 14948.0 2068.42   4
  -8   8  12 11887.9 2185.61   6
   8   8  12 17659.8 1874.30   5
  -8   8 -14 27278.2 2551.03   4
   8   8 -14 33816.4 2315.85  14
   8   8  14 33394.0 2398.85   5
  -8   8 -16 18845.9 1858.14   4
   8   8 -16 22133.6 1478.74  14
  -8   8 -18 7950.73 915.007   4
   8  -8 -18 7697.26 703.601   7
   8   8 -18 10601.7 806.135  14
   8   8  18 12247.6 881.976  25
   8   8  18 13573.4 1129.99   5
   9   0   1 21212.7 5638.21   9
   9   0  -1 21666.6 5247.36   9
   0  -9  -1 19188.9 4621.46  21
   0  -9   1 18773.0 4655.25  21
  -9   0   1 15370.1 5303.70  21
  -9   0  -1 11009.8 4792.35  21
   9   0   1 16577.5 3963.83  20
   9   0  -1 18159.3 3962.45  20
  -9   0   1 19476.6 3710.35  19
  -9   0  -1 16244.7 3462.25  19
   9   0   1 16487.9 3600.00   1
   9   0  -1 15728.8 2812.00   2
   9   0   1 13957.3 2493.35   2
   0   9   1 19030.4 3673.76   3
   9   0  -1 18389.5 2778.51  23
  -9   0   1 19023.7 3964.80  11
  -9   0  -1 14306.2 3444.08  11
   9   0   1 17384.7 2640.38  23
   0  -9   1 13183.0 4382.02  10
   0  -9  -1 14310.3 4502.65  10
   0   9  -1 11768.2 3673.60  22
   0   9   1 13998.5 4530.53  22
   0   9   3 1156.30 1058.71   3
   9   0   3 4110.05 2610.41   9
   9   0  -3 2755.92 1929.74   9
   9   0  -3 780.638 989.021   2
   9   0   3 1242.64 1647.29  20
   9   0  -3 249.572 576.198  20
  -9   0   3 1695.27 1127.68  19
   9   0  -3 633.665 626.098  23
  -9   0  -3 1160.04 1361.26  19
   0  -9  -3-1560.44 1917.71  10
   0  -9  -3 440.310 1328.57  21
  -9   0  -3-3828.01 3107.43  21
   9   0   3 1885.46 1472.91   1
  -9   0   3 525.854 1224.05  11
   0  -9   3 4540.40 2425.80  10
   9   0   3 506.027 499.326  23
   0   9  -3 848.434 1676.66  22
   0   9   3 1572.61 2366.49  22
   0  -9   3-5130.72 3074.79  20
   0   9   5-684.187 2047.79  22
   9   0   5 2165.99 2742.37   9
  -9   0  -5 2266.39 2568.66  21
   0  -9  -5 1018.71 1063.15  21
   9   0  -5-649.976 762.335   2
   0  -9   5 5311.83 3105.93  20
   9   0   5 1025.71 1599.39  20
  -9   0   5 502.471 657.146  19
  -9   0  -5 1823.85 940.446  19
   0   9  -5 2292.19 1461.49  22
   9   0   5 1552.37 825.745  23
   9   0  -5 660.861 522.784  23
  -9   0   5 1716.65 1121.53  11
   0   9  -5 5170.59 4335.47  24
   9   0   5 256.989 598.957   1
   0  -9  -5-1229.20 2048.81  10
   0   9   5 1055.71 1244.56   3
   9   0   7 3431.35 2543.82   9
  -9   0  -7 6269.22 4189.78  21
   9   0  -7 4214.63 1832.16   2
   0  -9  -7 3263.06 1850.34  21
   9   0   7 5659.70 2508.00  20
  -9   0  -7 3702.76 948.712   7
  -9   0   7 7693.75 2533.20  19
   9   0   7 6724.23 1725.29  23
  -9   0  -7 7825.12 1318.10   4
   0   9  -7 4848.12 2225.81  22
   0   9   7 3272.91 1261.34  13
  -9   0   7 4963.52 1408.69   6
   9   0   7 7009.39 940.377  25
  -9   0   7 5306.45 2253.66  11
   0   9  -7 7139.44 4474.81  24
   0  -9  -7 6658.92 4175.71  10
   9   0   7 5225.55 1896.12   1
   0   9   7 4598.56 2409.82   3
   9   0   9 8773.69 4081.30   9
  -9   0  -9 11054.1 6178.50  21
   9   0  -9 13482.4 3601.81   2
   9   0  -9 16329.3 1461.21   8
   9   0   9 15485.6 4215.92  20
  -9   0   9 19576.2 4295.02  19
  -9   0  -9 14067.4 1844.81   7
  -9   0  -9 16289.0 2022.01   4
   9   0   9 11656.6 2828.89   1
   0  -9   9 15167.2 3490.92  18
   0   9  -9 24904.3 1897.25  14
   0   9   9 12683.2 2326.80  13
   9   0   9 18523.1 1561.93  25
   0  -9  -9 1900.52 2773.24  10
  -9   0   9 16503.8 4253.05  11
   0   9  -9 15430.5 6914.70  24
  -9   0  -9 13453.7 5173.55  24
   0  -9   9 13293.9 3196.75  23
   0   9  -9 18709.2 4391.47  22
   0   9   9 17241.9 4559.21   3
   0   9  11 5763.32 2836.15   3
   9   0 -11 6444.37 2496.63   2
   9   0 -11 6570.31 958.241   8
  -9   0 -11 6337.65 1293.96   7
  -9   0 -11 8781.56 1490.93   4
  -9   0  11 8682.01 3104.58  19
   0  -9  11 7087.65 2509.64  18
   0   9 -11 12432.0 1395.15  14
   0   9  11 5652.34 1419.67  13
  -9   0  11 10469.8 3508.47  11
   9   0  11 8813.49 1102.94  25
   0   9 -11 14305.2 6616.33  24
   9   0  11 2990.37 1569.05   3
  -9   0 -11 3339.53 2934.04  24
   0  -9  11 9371.76 2732.56  23
   0  -9 -11-4769.01 3790.57  10
   0   9 -11 9908.52 3202.40  22
   9   0 -13 14489.5 1373.15   8
  -9   0 -13 12350.0 1790.46   7
  -9   0 -13 17463.7 2014.50   4
   0   9 -13 15430.4 1513.24  14
   0   9  13 12421.5 2206.93  13
   9   0  13 11362.7 1257.36  25
   9   0 -15 6209.30 847.392   8
   0  -9 -15 5549.97 909.750   7
  -9   0 -15 4556.16 1029.57   7
   0  -9 -15 4438.77 883.471  17
  -9   0 -15 5358.38 1272.27   4
   0   9 -15 4531.15 775.283  14
   9   0  15 4559.58 767.917  25
  -9   0 -17 6781.13 1231.88   7
  -9   0 -17 7582.09 1300.40   4
   0  -9 -17 8229.11 1012.89   7
   0  -9 -17 7281.97 1032.78  17
   9   0  17 7166.79 890.212  25
   9   0 -17 8328.76 924.977   8
   9   0  19-18.3177 149.664  25
   9   0 -19 388.577 236.027   8
   0  -9 -19 7.37718 169.778   7
   0  -9 -19-39.7656 207.552  17
  -9   0 -19 647.006 471.181   4
   9   0 -21 562.778 189.283   8
  -9   0 -21-28.0773 213.557   4
  -9   1   0-4135.50 3037.91  21
   1   9   0-40.6838 1444.27  22
   9  -1   0-700.538 1260.25   9
   1   9   0 1631.28 807.662   3
   9   1   0 1884.10 1590.37   9
  -9  -1   0-225.450 1217.22  21
  -1   9   0 1354.34 1096.71   3
   9  -1   0 1165.51 938.604  23
   9  -1   0 264.747 709.759  20
   9   1   0 450.287 765.201  20
   9  -1   0 218.997 414.615   2
   9   1   0 999.073 616.058   2
  -9  -1   0 579.502 894.438  19
  -9   1   0 80.2997 1059.06  19
   9   1   0-330.732 318.771  23
  -1  -9   0-65.0568 785.505  21
   9   1   0 153.114 890.749   1
  -9   1   0-729.458 856.847  11
  -9  -1   0-555.544 739.268  11
  -1  -9   0 1731.21 2005.97  10
   1  -9   0-726.928 1452.07  10
  -1   9   0-778.135 1650.19  22
   9  -1  -2 557.136 1221.11   9
   9  -1   2 1717.07 1834.20   9
   9   1   2 1731.20 1230.33   9
   9   1  -2-2395.64 1875.62   9
  -1   9   2 99.7585 557.170   3
  -9   1  -2-2060.45 2415.10  21
  -9  -1   2-1824.79 1967.52  21
  -9  -1  -2-2611.32 2437.96  21
  -1  -9  -2 739.390 1217.44  21
  -1  -9   2 287.451 755.305  21
   1  -9  -2 2483.76 1822.60  21
   9  -1  -2 809.501 710.289   2
   1  -9   2 4623.72 2963.20  20
   9   1  -2 1030.00 941.627   2
   9  -1  -2-453.615 754.987  20
   9  -1   2-1051.33 1145.69  20
   9   1   2 16.8443 864.969  20
   9   1  -2 1335.53 1123.89  20
  -9  -1   2 1091.57 1280.52  19
  -9   1   2-294.526 736.835  19
  -9  -1  -2 951.581 779.748  19
  -9   1  -2 1811.44 1583.44  19
   9   1   2 417.674 554.036   2
  -1   9   2 1633.75 1418.72  22
   9   1   2 329.816 365.269  23
   9   1  -2 370.592 716.107   1
   9   1   2 1032.12 974.170   1
  -9  -1   2 671.758 1236.71  11
  -9   1   2 581.754 1297.15  11
  -9  -1   2-734.641 1192.17  10
  -1  -9   2 3998.48 2546.14  10
   9   1  -2-66.9036 693.998  23
   9  -1  -2 127.193 458.568  23
  -1  -9  -2-4174.85 2894.14  10
   9  -1   2 861.284 556.984  23
   1  -9  -2 4217.97 2599.01  10
   1   9  -2 2056.46 1606.52  22
   1   9   2-11.4779 348.295   3
  -1   9  -2-505.505 2005.83  22
   1   9   2-554.400 1928.34  22
   9  -1  -4-433.098 888.048   9
   9  -1   4 1361.54 1726.67   9
  -1   9   4 509.564 820.872   3
   9   1   4 18.9348 1512.90   9
   9   1  -4-2041.84 1566.26   9
  -9   1  -4 204.143 1418.84  21
  -1  -9  -4 366.810 627.947  21
   1  -9  -4-1308.81 1198.50  21
  -1  -9   4-2748.62 1888.66  21
   9  -1  -4 969.423 840.141   2
  -9  -1  -4-2388.68 2488.61  21
   9   1  -4 420.735 699.293   2
   1  -9   4 1794.59 2322.55  20
   9  -1  -4 261.354 554.866  20
   9  -1   4 285.522 750.588  20
   9   1   4 239.681 747.469  20
   9   1  -4-2717.06 1399.41  20
  -9  -1   4 540.316 661.122  19
  -9   1   4 965.513 720.756  19
  -9  -1  -4-52.6863 635.730  19
  -9   1  -4-588.678 829.835  19
   9   1  -4 441.797 653.972  23
  -1   9   4 2575.10 2526.97  22
   9   1  -4-326.512 681.714   1
   9  -1   4 307.174 598.298   1
  -1  -9  -4-452.785 1638.01  10
   1   9  -4-1204.99 866.402  22
  -9  -1   4-593.504 800.945  11
  -9   1   4 1740.39 1225.06  11
  -1   9  -4 4091.35 3799.53  24
   9   1   4-1062.69 974.111   1
  -1  -9   4 803.793 1472.42  10
   9  -1  -4 483.982 375.009  23
   9   1   4 1370.63 888.327  23
   9  -1   4 87.8221 431.758  23
   1  -9  -4 1959.20 2127.16  10
   1   9   4-705.133 834.085   3
  -1   9  -4 815.995 1132.96  22
   1   9   4 2404.38 2013.93  22
   1   9   6 1707.47 3280.08  22
   9   1   6 1716.26 1241.21   1
  -1   9   6 4110.04 2399.57   3
   9  -1   6 3933.57 2616.31   9
   9   1   6 1474.24 1780.87   9
  -9   1  -6 1783.41 2434.42  21
  -9  -1  -6 1564.83 2196.30  21
   9  -1  -6 3897.70 1701.64   2
   1  -9  -6 3804.30 1914.46  21
   9   1  -6 2934.80 1546.48   2
  -9   1   6 1237.46 789.126  11
  -1  -9  -6 2547.41 1730.26  21
  -1  -9   6 2103.55 1928.93  20
   1  -9   6 856.251 1450.72  20
   9  -1   6 1935.75 1939.91  20
   9   1   6 3810.54 2089.74  20
  -9  -1   6 1220.37 1112.86  19
  -9   1   6 2532.38 1592.07  19
  -9  -1  -6 2461.75 1646.48  19
  -9   1  -6 2574.39 1575.39  19
  -1   9   6 2922.45 1184.19   6
   9   1   6 3232.62 630.051  25
   9   1  -6 3891.83 1716.56   1
   1  -9  -6 2401.16 3672.90  10
   1   9   6 1975.59 904.237  13
   9  -1   6 2764.96 629.023  25
  -1   9   6 1657.01 1120.32  13
  -1  -9   6 2967.23 1786.84  21
  -9  -1   6 2109.33 1412.97  11
   9  -1   6 837.709 1096.65   1
   1   9  -6 1558.91 2002.65  24
  -1   9  -6 2646.91 2488.77  24
  -1  -9   6-3959.54 2567.45  10
   9  -1  -6 2636.23 1135.50  23
   9  -1   6 1361.75 704.096  23
   1  -9   6 1422.10 892.493  23
  -1  -9  -6 5822.44 3698.50  10
   1   9   6 578.737 843.514   3
   1   9  -6 2509.81 1894.33  22
  -1   9  -6 2884.28 1869.60  22
   9  -1   8-988.060 906.333   1
  -9   1  -8-247.627 1544.18  21
  -1   9   8-853.677 1159.61   3
   9  -1   8-1637.44 1803.78   9
   9  -1  -8 1350.92 1141.43   2
   9   1   8 3235.73 2508.13   9
  -9  -1  -8 6525.59 4204.63  21
  -1  -9  -8 3473.20 1654.76  21
   1  -9  -8-2288.04 1462.06  21
   9   1  -8 1582.42 1266.94   2
  -1  -9   8-564.821 1074.95  21
   9  -1   8-364.491 767.073  20
   9   1   8-1232.27 1279.21  20
   9  -1  -8 547.475 229.364   8
  -9   1  -8 113.784 298.656   7
  -9  -1   8-206.882 744.102  19
  -9   1   8 746.576 783.979  19
   9   1   8-551.520 735.550   1
  -1  -9   8-272.588 676.958  18
  -9  -1  -8-59.9439 475.879   7
  -9   1  -8 223.072 506.742   4
  -9  -1  -8 484.880 423.410   4
  -9   1   8 2403.12 1599.26  11
   9  -1   8 570.086 291.251  25
   1   9  -8 1610.86 640.736  14
  -1   9  -8 176.167 1058.29  22
  -9   1   8-240.037 995.676   6
   9   1  -8-407.177 618.416   1
   1   9   8 279.095 986.731  13
  -1   9   8 831.390 833.429  13
  -9  -1   8-1756.90 1421.45  11
   9   1   8 521.979 369.682  25
   1   9  -8-3278.97 3240.50  24
  -1   9  -8 1709.87 2513.00  24
  -9  -1  -8-334.833 1284.75  24
   9  -1   8 2525.73 1137.35  23
   1  -9   8-174.464 464.858  23
  -1  -9  -8 44.5240 1624.36  10
   1  -9  -8-13.7034 1814.38  10
   1   9  -8 1881.45 815.098  22
   1   9   8-1079.13 1160.11   3
  -1   9  10 830.880 1500.75   3
   9  -1 -10 4165.40 2006.16   2
  -9  -1 -10-770.193 1765.92  21
   9   1 -10 772.588 1000.14   2
   1  -9 -10-1098.80 1761.46  20
   9  -1  10 6614.99 2752.36  20
   9  -1 -10 1999.35 626.727   8
   9   1 -10 2775.89 633.577   8
  -9  -1  10 1700.24 1925.26  19
  -9   1  10 3205.74 1630.02  19
  -9   1 -10 2523.75 783.436   7
  -9  -1 -10 1766.87 705.378   7
   1  -9  10 2476.82 1539.62  18
   1   9  10 2675.03 1661.87  18
  -9   1 -10 1792.65 702.384   4
  -9  -1 -10 3946.06 1114.50   4
  -1   9 -10 3478.88 743.606  14
   1   9 -10 3876.41 903.630  14
   1   9  10 2150.82 909.325  13
  -1   9  10 1386.59 913.517  13
  -9   1  10 2362.86 1676.69  11
  -9  -1  10 3460.11 1826.95  11
   9  -1  10 4092.91 2808.42   9
   9  -1  10 2300.03 586.133  25
   1   9 -10 2101.65 2774.88  24
   9   1  10 1857.22 1322.17   3
  -1   9 -10 4396.77 3845.50  24
  -9   1 -10 4647.63 3199.07  24
  -9  -1 -10-8530.84 4263.00  24
   1  -9  10 5646.28 2047.36  23
  -1  -9 -10-5595.31 4327.90  10
   1  -9 -10 6694.79 4384.22  10
   1   9 -10 2924.61 1941.14  22
  -1   9 -10 1096.92 1346.23  22
   1   9  10 1265.58 746.073   3
   1   9  12 1021.42 637.100   5
   9   1  12 1058.86 563.533   5
   9  -1 -12 1532.38 510.099   8
   9   1 -12 1549.08 508.485   8
  -9   1 -12 1330.26 704.866   7
  -9  -1 -12 1122.44 656.536   7
  -9   1 -12 2485.75 791.271   4
  -9  -1 -12 920.080 685.388   4
  -1   9 -12 2853.57 654.649  14
   1   9 -12 2812.66 688.618  14
   1   9  12 1440.91 894.623  13
   9  -1  12 2263.49 588.574  25
  -1   9  12 1017.25 533.075  13
   1   9  14 824.184 465.557   5
   9   1  14-21.1512 415.824   5
   9  -1 -14-261.390 305.441   8
   9   1 -14-45.6208 313.478   8
  -9   1 -14 385.124 438.716   7
  -9  -1 -14 27.7132 361.190   7
   1  -9 -14 187.084 216.854   7
  -1  -9 -14 151.413 384.782  17
  -9   1 -14 400.316 551.995   4
  -9  -1 -14-178.025 502.523   4
   1   9 -14 595.266 386.580  14
   9  -1  14 594.032 304.528  25
   1   9  16 253.795 445.710   5
   9   1  16 261.706 352.571   5
   9  -1 -16 113.392 296.569   8
   9   1 -16 337.601 216.577   8
  -9   1 -16 325.940 439.591   7
  -9  -1 -16 187.759 360.379   7
   1  -9 -16-50.5445 228.197   7
  -1  -9 -16-138.024 326.394  17
   1  -9 -16-32.8298 199.660  17
  -9   1 -16 112.584 405.399   4
  -9  -1 -16 221.776 483.092   4
   1   9 -16-441.966 389.175  14
   9   1  16 21.5735 241.665  25
   9  -1  16 154.318 194.993  25
   1   9  18 424.974 369.538   5
   9   1  18 179.090 281.771   5
   9  -1 -18 153.833 233.523   8
   9   1 -18 334.222 302.299   8
  -9  -1 -18 181.216 260.216   7
  -1  -9 -18-114.063 250.450   7
   1  -9 -18 90.7515 182.918   7
  -1  -9 -18 75.9877 207.203  17
   1  -9 -18 386.410 230.527  17
  -9   1 -18 571.993 524.384   4
  -9  -1 -18 13.1943 455.605   4
   9   1  18 95.0950 174.060  25
   9  -1  18 175.882 151.296  25
   9  -1 -20 1844.10 351.105   8
   9   1 -20 1704.49 326.396   8
   1  -9 -20 1093.30 240.064   7
   9  -1 -20 1230.74 268.634   7
  -1  -9 -20 1246.77 314.400  17
   1  -9 -20 644.112 217.056  17
  -9   1 -20 1307.79 458.135   4
  -9  -1 -20 1067.51 392.442   4
   9   1  20 1662.15 331.710  25
   9  -1  20 1414.69 288.165  25
   9   2   1 29548.8 6748.50   9
   9   2  -1 32231.8 6656.75   9
  -9  -2   1 37441.3 8561.87  21
  -9  -2  -1 33850.0 8555.59  21
  -2  -9  -1 49179.9 7528.71  21
  -2  -9   1 43071.7 7236.37  21
   2   9   1 31382.8 6285.65  22
   2  -9  -1 28774.4 7736.48  20
   2  -9   1 28669.1 7322.15  20
   9  -2  -1 39142.4 6220.79  20
   9  -2   1 37214.4 6283.53  20
   9   2   1 42218.9 6270.56  20
   9   2  -1 39256.2 5738.44  20
  -9  -2   1 42859.5 5660.29  19
  -9   2   1 37510.9 4927.19  19
  -9  -2  -1 42923.7 5721.34  19
  -9   2  -1 38251.9 5147.10  19
   9   2  -1 39447.9 5526.05   1
   9   2   1 35137.3 5200.39   1
   9  -2  -1 26418.8 3429.31   2
  -2   9  -1 20393.8 4397.98   3
   2   9   1 27410.1 4495.02   1
   9   2  -1 30701.5 4352.76   2
   2   9   1 25294.2 3823.99   3
   9   2   1 28475.0 4002.64   2
   2   9  -1 34129.1 6126.89  22
  -2   9   1 21813.2 4619.27   3
  -9   2   1 36742.5 5497.65  11
  -9  -2   1 38969.4 5534.88  11
  -9   2  -1 31389.8 5178.94  11
  -9  -2  -1 29677.1 4930.69  11
  -9  -2   1 31428.8 6056.03  10
  -9  -2  -1 30908.6 5754.95  10
  -2  -9   1 34371.8 7562.55  10
   9   2  -1 42338.9 3968.87  23
   9  -2  -1 39460.9 4166.29  23
   9  -2   1 39655.5 4166.15  23
  -2  -9  -1 29321.5 7119.18  10
  -2   9  -1 29675.3 6071.78  22
  -2   9   1 29973.9 6717.97  22
   9  -2  -1 29532.1 6740.24   9
   9  -2   1 33967.6 7118.71   9
  -2   9   3 17241.0 5413.13  22
   9  -2  -3 22518.3 5456.77   9
   9   2   3 21671.6 6129.24   9
  -2  -9   3 32121.7 6306.48  21
   2  -9  -3 24738.1 5112.60  21
  -9  -2  -3 22501.1 6823.99  21
  -2  -9  -3 29380.8 5944.22  21
   9  -2  -3 24678.9 4924.43  20
   9  -2   3 25241.3 5167.10  20
   9   2   3 29763.9 5547.82  20
   2  -9  -3 14243.5 5318.28  20
   2  -9   3 16013.6 5457.01  20
  -9  -2   3 30328.9 4842.90  19
  -9   2   3 26317.5 4195.46  19
  -9  -2  -3 29840.1 4991.62  19
  -9   2  -3 25457.1 4452.22  19
   9   2  -3 24491.0 4166.81   1
   9  -2  -3 16578.1 2956.70   2
   9  -2  -3 24439.1 3387.08  23
   2   9   3 18096.0 3841.58   1
   9   2  -3 20392.3 3803.95   2
   9   2   3 24475.4 4398.94   1
   2   9   3 21897.9 3981.14   3
  -2   9   3 21855.5 4752.81   3
   9   2   3 23222.2 3483.26   2
  -9  -2   3 25132.9 4488.64  11
  -9   2   3 24762.8 4538.66  11
  -2   9  -3 15044.6 6131.56  24
   9   2  -3 24894.2 3186.23  23
  -9  -2   3 21067.3 5705.76  10
   9  -2   3 25214.4 3381.09  23
   2  -9   3 26513.4 3255.41  23
  -2  -9   3 20256.6 5801.27  10
  -2  -9  -3 13441.0 5062.94  10
   2   9   3 16277.8 4830.46  22
   2  -9  -3 11451.8 4197.00  10
   2   9  -3 23098.2 4900.92  22
  -2   9  -3 26358.9 5576.46  22
   9  -2   3 25750.3 6493.31   9
   9  -2  -5 14874.3 4212.19   9
   9  -2   5 11599.8 4652.51   9
   2  -9  -5 17827.0 4086.72  21
  -2  -9   5 19205.7 5060.27  21
   9   2   5 17986.8 5748.10   9
  -2   9   5 10094.4 3331.56   3
  -9  -2  -5 11694.2 5283.46  21
  -2  -9  -5 15119.0 4249.24  21
   2  -9  -5 12143.5 4853.05  20
   9  -2   5 16433.8 4398.45  20
   9   2   5 17055.6 4221.51  20
   9  -2  -5 10197.0 2693.63   2
   2  -9   5 7595.77 3372.74  20
  -2  -9  -5 9453.32 4943.90  10
   9  -2  -5 13010.4 3045.55  20
  -9  -2   5 14613.0 3468.76  19
  -9   2   5 16747.1 3442.82  19
  -9  -2  -5 14399.7 3795.47  19
  -9   2  -5 14091.2 3379.15  19
  -2   9   5 9449.14 1908.05   6
   9  -2   5 13812.6 3075.15   1
   9   2  -5 13105.2 3309.31   2
   2   9   5 13613.2 2329.23  13
   9   2   5 13978.5 3268.44   1
   9   2  -5 12610.3 2965.92   1
  -9  -2   5 17833.4 3862.24  11
  -9   2   5 15159.6 3628.80  11
  -2   9  -5 13467.7 6455.40  24
   9  -2  -5 14821.0 2692.70  23
   9  -2   5 15027.1 2690.61  23
  -2  -9   5 12258.4 4304.77  10
   2  -9   5 15289.5 2697.41  23
   2  -9  -5 4258.91 2353.98  10
   2   9  -5 18346.7 4289.48  22
   2   9   5 11356.7 3024.85   3
  -2   9  -5 13186.0 3577.39  22
   2   9   5 13942.0 4754.42  22
   2   9   7 2211.27 2671.84  22
   9  -2  -7 4144.86 1814.19   2
   9  -2   7 3531.93 2561.31   9
  -2   9   7 3441.72 2152.56   3
  -9  -2  -7 9809.05 4939.12  21
   2  -9  -7 4289.28 3206.25  20
   9   2   7 4904.29 788.046   5
  -2  -9  -7 7066.42 2974.08  21
   2  -9  -7 7304.04 2713.73  21
  -2  -9   7 8510.90 3339.67  21
   9   2  -7 4015.02 1898.64   2
   9  -2  -7 5170.51 805.142   8
   2  -9   7 5993.46 3100.22  20
   9  -2   7 3410.95 1994.23  20
  -9  -2   7 7436.65 2601.31  19
  -9   2   7 5316.35 2215.99  19
  -9  -2  -7 4057.32 986.696   7
   9   2   7 1232.99 1031.88   1
  -2   9   7 3488.94 1407.95   6
  -9   2  -7 5839.33 1213.13   4
  -9   2   7 4701.59 1468.22   6
   2   9   7 4398.42 1412.14  13
  -2   9   7 3332.73 1504.78  13
   9   2  -7 3920.39 1655.23   1
   9  -2   7 7201.30 944.180  25
   9   2   7 6841.09 909.707  25
  -9  -2   7 8241.42 2845.00  11
  -9   2   7 7882.47 2690.20  11
   9  -2   7 2777.03 1384.53   1
  -2   9  -7 2370.89 3954.19  24
  -2  -9   7 6909.75 3694.22  10
   9  -2  -7 7091.58 2006.07  23
   9  -2   7 4705.64 1613.33  23
   2  -9   7 6123.13 1775.42  23
  -2  -9  -7 347.290 1915.81  10
   2  -9  -7 2577.29 2444.23  10
   2   9   7 3494.48 1861.86   3
   2   9  -7 6245.99 2755.01  22
  -2   9  -7 4981.54 2230.78  22
   2   9   9 17461.7 5751.75  22
  -2  -9  -9 27110.3 5986.58  21
   9  -2   9 16579.7 5521.81   9
  -2   9   9 23375.3 5807.99   3
  -9  -2  -9 15019.4 6051.49  21
   9  -2  -9 27969.7 1865.04   8
   9   2  -9 23359.6 1763.60   8
   2  -9  -9 20861.7 6926.05  20
   9  -2   9 19317.2 4732.80  20
  -9  -2   9 26752.9 5251.96  19
  -9   2   9 27011.4 4862.40  19
  -9  -2  -9 28283.2 2462.99   7
  -9   2  -9 25069.1 2521.41   4
  -9  -2  -9 28154.5 2548.27   4
   2  -9   9 21944.4 4467.16  18
   2   9   9 29306.7 5175.96  18
  -2   9   9 16534.2 2589.78   6
  -9   2   9 21166.8 2939.25   6
   9  -2  -9 21482.9 4352.62   2
   9   2   9 19212.1 4134.14   3
   9   2  -9 19837.9 4309.73   2
   2   9   9 18312.9 2844.90  13
  -2   9   9 16638.4 2767.36  13
   9  -2   9 28539.8 1927.55  25
   2   9   9 21324.0 4783.84   3
  -9  -2   9 28182.2 5545.28  11
  -9   2   9 29403.0 5656.08  11
   2   9  -9 19149.7 7523.16  24
  -2   9  -9 14069.1 6813.59  24
   9   2   9 21693.4 4043.85   1
  -9  -2  -9 29517.9 7601.36  24
   2   9   9 26131.7 2081.79   5
   9   2   9 24403.0 1837.67   5
   9  -2   9 22873.7 3530.80  23
   2  -9   9 26670.3 4232.53  23
  -2  -9  -9 21068.8 7990.73  10
   2   9  -9 27183.5 5311.56  22
  -2   9  -9 26077.3 5035.01  22
   2  -9  -9 19971.4 6922.03  10
  -9  -2 -11 173.697 1446.52  21
   2   9  11 2161.05 772.065   5
   9   2  11 1591.14 594.674   5
   9  -2 -11 1953.60 577.162   8
   9  -2  11 5214.21 2407.20  20
   9   2 -11 1842.20 551.837   8
  -9   2 -11 1404.34 653.589   7
  -9  -2  11 64.7083 820.961  19
  -9   2  11 4167.41 2036.54  19
  -9  -2 -11 2070.79 864.417   7
   2  -9  11 1690.69 1781.28  18
   2   9  11 3136.13 2127.54  18
  -9   2 -11 3078.30 1050.67   4
  -9  -2 -11 2103.45 928.815   4
  -2   9 -11 2063.63 511.961  14
   2   9 -11 2654.07 823.113  14
   2   9  11 1925.76 1022.50  13
  -2   9  11 1462.08 842.521  13
  -9  -2  11 4663.15 2407.29  11
  -9   2  11 3202.36 1958.07  11
   9  -2  11 1771.69 534.932  25
   2   9 -11 2063.82 2562.51  24
  -2   9 -11 5058.66 4859.52  24
  -9   2 -11-1786.67 2321.69  24
   9   2  11-663.603 873.807   3
  -9  -2 -11-6809.01 3933.19  24
   9  -2  11 4571.19 1630.15  23
   2  -9  11 5953.45 2168.02  23
  -2   9 -11 1044.17 1999.46  22
   2  -9 -11 1037.48 2160.14  10
   9  -2  11 1258.91 1561.77   9
   9  -2 -13 34504.9 2073.36   8
   9   2 -13 31413.2 1966.92   8
  -9   2 -13 24281.8 2431.24   7
  -9  -2 -13 34894.3 2811.99   7
  -9   2 -13 36008.1 3003.41   4
  -9  -2 -13 39270.8 3058.57   4
  -2  -9 -13 37524.0 2710.25  17
   2   9 -13 39289.2 2448.48  14
   9  -2  13 29150.4 1973.39  25
   2   9  13 40920.3 2709.57   5
   9   2  13 27424.7 2032.01   5
   9  -2 -15 15592.0 1338.55   8
   9   2 -15 14032.4 1269.52   8
  -9   2 -15 9666.67 1525.38   7
  -9  -2 -15 15294.6 1816.04   7
  -9   2 -15 12763.6 1835.04   4
  -9  -2 -15 13485.5 1798.73   4
   2  -9 -15 12224.9 1389.58   7
  -2  -9 -15 15868.5 1718.29  17
   2   9 -15 17782.9 1575.84  14
   9  -2  15 14870.7 1338.78  25
   2   9  15 17503.3 1772.26   5
   9   2  15 10714.2 1276.54   5
   9   2 -17 21431.9 1416.42   8
  -9  -2 -17 17522.4 1818.48   7
  -9   2 -17 22726.9 2143.43   4
  -9  -2 -17 22369.4 2081.49   4
   2  -9 -17 18130.0 1483.51   7
  -2  -9 -17 19347.3 1691.83  17
   2  -9 -17 19530.9 1575.80  17
   9  -2 -17 23503.6 1489.01   8
   2   9 -17 20578.3 1523.97  14
   9  -2  17 19316.7 1350.30  25
   9   2  17 18706.5 1450.49  25
   2   9  17 23714.8 1944.05   5
   9   2  17 17362.2 1453.96   5
   9   2 -19 5551.47 627.562   8
  -9   2 -19 5809.58 988.797   4
  -9  -2 -19 6314.86 991.263   4
   2  -9 -19 4766.54 636.407   7
  -2  -9 -19 5772.56 774.059  17
   2  -9 -19 5618.14 694.106  17
   9  -2 -19 5182.08 621.837   8
   9  -2  19 6004.51 601.466  25
   9   2  19 5758.67 691.204  25
   2   9  19 6501.47 849.925   5
   9   2  19 4844.08 650.756   5
  -9   2 -21 1907.12 453.416   4
  -9  -3   0 46452.1 9161.05  21
  -3  -9   0 61812.2 8756.83  21
   3  -9   0 32031.4 7997.34  20
   9  -3   0 46921.9 7206.13  20
  -9  -3   0 61702.3 7002.21  19
  -9   3   0 52271.5 5950.01  19
   3   9   0 41917.0 5384.34   1
   9   3   0 55055.8 6571.57   1
  -3   9   0 31011.2 6000.60   3
   9   3   0 41627.7 5197.92   2
  -9   3   0 47535.0 6430.75  11
  -9  -3   0 55490.7 6769.55  11
  -9  -3   0 53049.5 8635.92  10
  -3  -9   0 52274.4 10055.4  10
   9  -3   0 50700.1 4853.22  23
   3  -9   0 52922.6 4473.03  23
   3   9   0 48778.7 7430.68  22
  -3   9   0 44749.1 7921.12  22
  -3  -9  -2 51278.3 8135.38  21
  -3  -9   2 52025.5 8154.09  21
  -9  -3   2 33263.6 7417.64  21
   3  -9  -2 28416.8 7948.66  20
   9  -3  -2 38681.2 6461.32  20
   9  -3   2 43417.1 7144.23  20
   3  -9   2 24708.0 7324.29  20
  -3   9  -2 16694.8 4536.68   3
  -9  -3   2 48903.0 6277.42  19
  -9   3   2 42310.5 5275.51  19
  -9  -3  -2 50016.0 6456.78  19
  -9   3  -2 43900.7 5637.00  19
   3   9   2 32712.9 5072.32   1
   9  -3  -2 28697.4 3608.52   2
   3   9  -2 28752.5 4188.01   1
  -9  -3   2 45751.1 8324.72  10
   9   3  -2 37580.2 5327.38   1
   9   3  -2 30749.6 4781.50   2
   3   9   2 32317.0 4451.05   3
   9   3   2 35537.2 5433.95   1
   9   3   2 30465.2 4264.32   2
  -9  -3   2 51509.1 6460.18  11
  -9   3   2 42139.4 5995.48  11
  -3   9   2 26148.2 5478.11   3
  -9  -3  -2 38449.4 8767.80  21
  -9  -3  -2 31010.5 6610.29  10
  -3  -9  -2 37990.2 8768.98  10
   9  -3  -2 40957.9 4437.58  23
   9  -3   2 38510.4 4334.96  23
   3  -9   2 40857.0 4121.36  23
  -3  -9   2 26948.0 6881.37  10
   3   9  -2 34330.5 5992.76  22
  -3   9  -2 34643.1 6542.54  22
   3   9   2 35879.3 6557.76  22
  -3   9   2 32568.4 7160.87  22
  -3  -9  -4 38992.8 6926.86  21
  -3  -9   4 36401.9 6874.44  21
   3  -9  -4 32831.8 5619.95  21
  -9  -3  -4 25065.0 7146.78  21
   9  -3  -4 31655.7 5429.97  20
   9  -3   4 38671.1 6599.45  20
   3  -9  -4 24293.1 7741.98  20
   3  -9   4 18433.4 5860.51  20
  -9  -3   4 44560.8 6074.55  19
  -9   3   4 33592.1 4661.79  19
  -9  -3  -4 33644.5 5599.32  19
  -9   3  -4 31698.2 5106.05  19
  -3   9   4 24607.3 3143.63   6
  -9   3   4 34259.9 3941.19   6
   9  -3  -4 23972.2 3817.05   2
   3   9   4 21101.6 4374.76   1
   9   3  -4 30455.2 4804.42   1
   3   9   4 28992.0 3257.34  13
   9   3  -4 28682.6 4632.06   2
   3   9   4 24398.1 4329.35   3
   9   3   4 29889.4 4922.47   1
  -3   9   4 24557.0 5645.77   3
  -9  -3   4 44012.5 6073.34  11
  -9   3   4 37008.4 5599.71  11
  -9  -3   4 39679.4 8329.29  10
  -3   9  -4 23151.7 7885.11  24
   9  -3  -4 30428.6 3909.61  23
   9  -3   4 31309.3 3945.93  23
  -3  -9   4 24069.2 6568.10  10
   3  -9   4 35901.6 4121.22  23
  -9  -3  -4 29222.6 6688.68  10
  -3  -9  -4 22766.0 7315.15  10
   3   9  -4 33914.5 5914.28  22
  -3   9  -4 35092.1 6122.78  22
   3   9   4 25897.1 6077.11  22
   9  -3   4 30512.4 7121.82   9
   9  -3   6 21166.5 6016.84   9
   3   9   6 23045.3 6012.82  22
  -3  -9  -6 32753.6 6600.49  21
  -3  -9   6 33771.0 6718.03  21
   3  -9  -6 32823.2 5477.73  21
  -9  -3  -6 20713.4 7153.40  21
   9  -3   6 28063.6 5720.46  20
   9  -3  -6 26156.7 1750.43   8
   3  -9  -6 26046.1 7923.18  20
   3  -9   6 21904.6 6532.07  20
  -9   3  -6 28337.6 2601.31   4
  -9  -3   6 34524.2 5599.62  19
  -9   3   6 33213.7 4841.65  19
  -9  -3  -6 30210.9 5621.71  19
  -3   9   6 15722.0 2916.28   6
  -9   3   6 26297.1 3563.85   6
  -9  -3   6 22634.6 3089.05   6
   9  -3  -6 21621.2 3877.94   2
   9  -3   6 18128.2 3452.33   1
   9  -3   6 32294.4 1976.85  25
   3   9   6 23897.0 4787.13   1
   9   3  -6 22555.0 4462.53   2
   3   9   6 22864.8 2983.95  13
   9   3  -6 21757.9 3877.35   1
   3   9   6 26926.5 4765.59   3
  -3   9   6 23250.9 5522.55   3
  -9  -3   6 35892.2 5765.59  11
  -9   3   6 28258.4 5067.23  11
   3   9  -6 32727.3 2095.10   5
   9   3  -6 30750.3 2066.17   5
   9   3   6 25109.9 4473.47   1
   9   3   6 33098.0 1968.79  25
  -3   9  -6 16819.5 6564.66  24
   3   9   6 29267.6 2079.98   5
   9   3   6 25606.9 1848.77   5
   9  -3  -6 26578.5 3821.77  23
  -3  -9   6 20779.3 5961.19  10
   9  -3   6 26344.9 3765.27  23
   3  -9   6 25129.7 3725.44  23
  -3  -9  -6 22343.2 7641.89  10
   3   9  -6 24809.0 4981.65  22
  -3   9  -6 27128.7 5171.31  22
   9  -3   8 29879.5 7384.35   9
  -3  -9  -8 36938.1 7324.54  21
  -3   9   8 24045.7 6151.47   3
  -9  -3  -8 22338.6 7308.81  21
   9  -3  -8 35329.5 2048.24   8
   9  -3   8 31749.6 5970.50  20
   3  -9  -8 21226.8 7059.42  20
  -9   3  -8 35854.3 2998.37   4
  -9  -3  -8 33380.9 2635.93   7
  -9  -3   8 43929.5 6711.57  19
  -9   3   8 36273.3 5266.62  19
   9  -3   8 30902.5 4601.03  18
  -3   9   8 20744.2 3073.63   6
  -9   3   8 29672.8 3682.89   6
  -3  -9  -8 45787.6 2988.73  17
   9  -3  -8 27230.3 4799.02   2
   9   3   8 29463.1 5061.26   3
   9   3  -8 29242.9 5252.60   2
   3   9   8 28191.1 3384.57  13
   9  -3   8 38056.0 2220.02  25
   3   9   8 32728.1 5702.35   3
  -9  -3   8 40456.1 6635.09  11
  -9   3   8 36482.0 6029.02  11
  -3   9  -8 29554.2 9221.87  24
   3   9   8 33861.0 2449.19   5
   9   3   8 27510.5 2046.75   5
   9  -3  -8 32483.5 4372.17  23
   9   3   8 28738.5 4865.47   1
  -3  -9   8 25632.3 6952.76  10
   9  -3   8 29126.7 4107.09  23
   3  -9   8 34072.1 4688.13  23
  -3  -9  -8 19811.1 7791.33  10
   3   9  -8 36290.2 6159.75  22
  -3   9  -8 36386.6 5932.15  22
   3  -9  -8 20963.2 6585.85  10
   3   9   8 26404.8 6880.19  22
   9  -3  10 10289.6 4216.23   9
  -9  -3 -10 13979.3 6091.65  21
  -3   9  10 14904.7 4992.88   3
  -3  -9 -10 17581.3 5201.36  21
   9  -3 -10 15313.1 1414.85   8
   9   3 -10 14646.8 1412.51   8
   9   3 -10 10932.4 3308.29   2
   9  -3  10 8350.82 3060.26  20
  -9   3 -10 16660.7 2105.13   4
  -9  -3 -10 15215.7 1877.00   7
  -9  -3  10 15549.7 4140.55  19
  -9   3  10 17084.6 3933.34  19
  -9   3  10 15042.8 4049.12  11
   3   9  10 20798.2 4412.50  18
   3  -9  10 14338.8 3611.54  18
   9  -3  10 10972.5 2917.78  18
  -3  -9 -10 21040.9 2115.32  17
  -3   9  10 8007.04 2040.60   6
   9  -3  10 15197.8 1452.52  25
  -9   3  10 12116.5 2277.26   6
   3   9  10 13558.4 2493.61  13
  -3   9  10 9683.83 2045.97  13
  -9  -3  10 16775.8 4337.45  11
  -3   9 -10 12651.9 6489.05  24
   9   3  10 11439.2 3195.05   3
  -9  -3 -10 11923.2 5163.83  24
   3   9  10 15236.2 1742.67   5
   9   3  10 13378.1 1460.62   5
   9  -3  10 14927.8 3030.10  23
   9   3  10 9417.71 2769.89   1
   3  -9  10 13401.1 3043.02  23
  -3  -9 -10-2849.42 3481.42  10
   3   9  10 17666.5 4551.58   3
   3   9 -10 18728.8 4529.31  22
   3  -9 -10 10008.5 4885.61  10
   9  -3 -10 9017.49 3084.21   2
   9  -3 -12 15943.5 1425.40   8
   9   3 -12 14975.5 1328.62   8
  -9  -3 -12 16645.2 1967.41   7
  -9   3 -12 15372.1 2050.56   4
  -3  -9 -12 17751.6 1924.48  17
   9  -3  12 14842.5 1408.64  25
   3   9 -12 22094.5 1963.87  14
  -3   9  12 11153.2 2209.49  13
   3   9  12 19275.2 1930.99   5
   9   3  12 13757.9 1524.65   5
   9  -3 -14 39816.2 2169.79   8
   9   3 -14 35872.6 1990.52   8
  -9   3 -14 39436.0 3089.51   4
  -9  -3 -14 38355.3 2890.44   7
  -3  -9 -14 40738.3 2835.45  17
   3   9 -14 45047.5 2571.81  14
   9   3 -14 47271.9 2754.63  14
   9  -3  14 35059.2 2076.93  25
   3   9  14 44174.1 2856.46   5
   9   3  14 33408.7 2283.36   5
   9  -3 -16 36687.0 1931.93   8
   9   3 -16 34999.7 1822.67   8
  -9   3 -16 35315.7 2761.17   4
  -9  -3 -16 31868.5 2446.41   7
  -9  -3 -16 34696.4 2681.26   4
   3  -9 -16 28883.7 1962.08   7
  -3  -9 -16 33327.7 2355.65  17
   9  -3  16 31777.5 1785.78  25
   3   9 -16 37646.2 2172.49  14
   9   3 -16 36430.0 1941.15  14
   3   9  16 44857.6 2778.95   5
   9   3  16 29609.4 2040.38   5
   9  -3 -18 17095.2 1167.17   8
   9   3 -18 16202.5 1084.40   8
  -9   3 -18 15603.5 1737.90   4
  -9  -3 -18 12591.3 1457.71   7
  -9  -3 -18 17106.8 1690.41   4
   3  -9 -18 14311.7 1184.84   7
  -3  -9 -18 16022.0 1421.78  17
   3  -9 -18 15978.0 1248.34  17
   9   3  18 15606.2 1241.70  25
   3   9  18 17831.9 1561.04   5
   9   3  18 16003.0 1284.16   5
   9  -3 -20 3242.79 431.960   8
   9   3 -20 4048.73 438.806   8
  -9   3 -20 4342.47 757.368   4
  -9  -3 -20 5213.67 745.966   4
   3  -9 -20 3876.63 481.153   7
   9  -3 -20 3194.84 420.541   7
   9   3  20 5776.71 593.588  25
   3   9  20 4384.73 614.485   5
   9   3  20 4084.69 491.688   5
  -9  -4   1 4555.05 2916.77  21
  -9  -4  -1 3156.92 2552.82  21
  -4  -9  -1 4210.65 2562.29  21
   9   4  -1 1423.60 947.426   1
  -4  -9   1 1448.37 1555.25  21
  -4   9   1 2671.60 2032.27   3
   4  -9  -1 71.8494 2184.12  20
   4  -9   1-3642.63 2830.70  20
   9   4   1 1950.46 1354.37   1
  -4   9  -1-518.654 1021.58   3
   9  -4  -1 2532.78 1424.72  20
   9  -4   1 2464.58 1808.97  20
  -9  -4   1 3026.08 1938.02  19
  -9   4   1 3970.42 1668.68  19
  -9  -4  -1 2894.77 1588.21  19
  -9   4  -1 584.042 762.276  19
   9   4  -1 1870.82 1072.97   2
   9   4   1 2665.35 1360.16   2
   9  -4  -1 1192.50 763.062  23
   4   9   1-648.796 795.929   1
  -9   4   1-33.3923 815.170   6
  -9   4   1 1704.79 1159.61  11
   4   9  -1 105.269 454.388   1
  -9  -4   1-784.575 1380.04  10
  -9  -4  -1 76.2241 1453.30  10
  -4  -9   1 3175.33 2415.47  10
  -4  -9  -1 4449.19 2961.85  10
   4  -9  -1 3360.78 1248.54  23
   9  -4   1 3582.87 1350.13  23
   4  -9   1 2601.78 1095.77  23
   4   9  -1 3169.82 2028.01  22
   4   9   1 1691.41 1436.00  22
  -4   9  -1 1514.01 1734.36  22
  -4   9   1 2793.10 2436.72  22
  -4   9   3 9192.84 3905.52  22
  -9  -4  -3 9842.80 4294.27  21
   9   4  -3 8493.57 2428.85   1
  -4  -9  -3 11893.6 4107.59  21
  -4  -9   3 12474.9 4107.36  21
  -4   9   3 8468.80 3542.16   3
   4  -9  -3 6677.38 3858.38  20
   4  -9   3 9772.38 4366.90  20
   9  -4  -3 10506.3 3640.07  20
   9  -4   3 9337.94 3394.22  20
  -9   4  -3 11700.3 1785.00   4
  -9  -4   3 14650.8 3561.49  19
   9   4  -3 10614.3 2936.09   2
  -9   4   3 8288.62 2484.75  19
  -9  -4  -3 10485.7 2994.33  19
  -9   4  -3 8962.58 2527.21  19
   9   4   3 9619.73 2885.45   1
  -9   4   3 10199.2 2043.59  16
  -9   4  -3 12762.0 2177.13  16
  -4   9   3 10746.8 2132.95   6
   9   4  -3 9059.64 1139.42   5
   4   9   3 10278.8 1949.33  13
  -9   4   3 9793.14 2243.13   6
  -9   4  -3 11202.6 2156.06   6
   4   9   3 7356.22 2507.24   1
   4   9  -3 10831.2 1264.45   5
  -9  -4   3 12843.2 3284.44  11
  -9   4   3 9772.82 2970.25  11
  -4   9  -3 2508.72 2924.88  24
   4   9   3 10786.6 1273.75   5
   9   4   3 9084.10 1085.82   5
   9  -4  -3 9711.99 2300.89  23
  -9  -4   3 10080.9 4421.44  10
   9  -4   3 11041.4 2377.65  23
   4  -9   3 11267.2 2354.97  23
  -4  -9   3 6205.00 4500.51  10
  -9  -4  -3 12929.7 5207.06  10
  -4  -9  -3 9304.95 4741.56  10
   4   9   3 8341.61 2387.68   3
   4   9  -3 13265.9 3673.33  22
  -4   9  -3 7122.08 3000.13  22
   4   9   3 7109.61 3324.95  22
   9  -4  -5 4821.23 1765.22   2
   4   9   5 4151.71 885.680   5
   9   4   5 3779.80 882.576   5
  -9  -4  -5 7850.85 3981.34  21
   9   4  -5 4355.63 1779.83   1
  -4  -9  -5 7177.07 3138.17  21
  -4   9   5 520.878 1175.90   3
  -4  -9   5 11077.7 3873.34  21
   4  -9  -5 7758.96 2645.95  21
   4  -9  -5 1725.53 2203.39  20
   4  -9   5 3696.12 2667.83  20
   9  -4  -5 7757.50 2874.78  20
   9  -4   5 5913.27 3015.18  20
   9   4  -5 3877.82 1861.37   2
  -9   4   5 879.080 2248.53   3
  -9  -4   5 8260.02 2809.57  19
  -9   4   5 5972.18 1996.27  19
  -9  -4  -5 7067.78 2839.67  19
  -4   9  -5 4942.28 1087.84   4
   4   9   5 3325.70 1811.07   1
  -9   4  -5 4872.14 1205.94   4
  -4  -9  -5 9279.61 1298.63  17
   9   4   5 5369.85 2162.72   1
  -9   4  -5 11733.4 2200.28  16
  -4   9   5 4774.47 1597.38   6
  -4  -9  -5-1668.92 3716.41  10
  -9   4   5 4206.98 1678.20   6
   4   9   5 5287.93 1509.70  13
  -9   4  -5 3040.05 1131.70   6
   9   4   5 8011.10 950.082  25
  -9  -4   5 8611.78 2740.19  11
  -9   4   5 8318.78 2810.60  11
   9   4  -5 4204.94 947.472   5
   9   4   5 4027.31 1822.24   3
  -4   9  -5 3350.73 3507.30  24
  -9  -4   5 2871.46 2980.97  10
  -4  -9   5 1606.97 2176.36  10
   9  -4  -5 6654.07 1877.33  23
  -9  -4  -5 817.768 1757.33  10
   4   9  -5 4487.85 977.717   5
   9  -4   5 6093.21 1907.04  23
   4  -9   5 6699.43 1948.52  23
   4   9   5 3129.03 1630.58   3
   4   9  -5 7710.83 2844.53  22
  -4   9  -5 5219.23 2185.70  22
   4   9   5 7710.85 3608.34  22
   9  -4   7 10797.7 4406.80   9
  -9  -4  -7 12774.2 5925.00  21
  -4  -9  -7 16361.0 5061.65  21
  -4   9   7 7253.84 4102.04   3
   9  -4  -7 15994.6 1397.09   8
   9  -4   7 18175.5 1533.29  25
   4  -9  -7 8312.92 4931.91  20
   4  -9   7 10152.6 3877.08  20
  -4   9  -7 10475.3 1654.65   4
   9  -4   7 17471.3 4523.65  20
   9   4  -7 10373.3 3196.82   2
  -9   4  -7 16020.0 2031.45   4
  -9  -4   7 19670.4 4460.34  19
  -9   4   7 14507.9 6940.83   3
   4  -9  -7 13184.9 3615.00   2
  -9   4   7 16764.8 3405.47  19
   9  -4   7 10513.7 2786.72  18
  -4  -9  -7 21064.4 2060.67  17
  -9   4   7 14770.1 2724.77   6
  -4   9   7 8923.75 2385.78   6
  -4   9  -7 17091.1 4189.03  22
   4   9   7 14931.1 2489.07  13
   9   4   7 13287.5 3571.68   1
   4   9  -7 17994.7 1698.09   5
   9   4  -7 16519.7 1629.10   5
  -9  -4   7 17160.2 4107.19  11
  -9   4   7 13246.3 3530.61  11
  -4   9  -7 8707.21 5303.62  24
   9   4   7 10500.2 3000.86   3
   4   9   7 15481.4 1707.34   5
   9   4   7 14111.6 1486.35   5
   9  -4  -7 16010.5 3078.08  23
  -4  -9   7 17149.0 6507.58  10
   9  -4   7 14087.7 2824.59  23
   4  -9   7 13007.9 2789.06  23
   4   9   7 13803.2 3747.09   1
  -4  -9  -7 9768.41 5633.33  10
   4   9   7 13681.3 3612.75   3
   4   9  -7 17345.9 4451.48  22
   9  -4  -7 9224.54 2901.47   2
   9  -4   9 3419.17 2445.55   9
  -9  -4  -9 3167.54 3074.19  21
  -4  -9  -9 5165.52 2700.12  21
  -4   9   9 44.8634 949.289   3
   9   4   9 1426.93 647.727   5
   4   9   9 2240.25 841.344   5
   9   4  -9 3514.62 1927.38   2
   9  -4  -9 1866.74 551.762   8
   9  -4   9 1363.46 1364.85  20
   9   4  -9 1365.75 536.557   8
  -9  -4   9 1079.12 1256.59  19
  -9   4   9 3219.98 1669.69  19
  -9  -4  -9 1778.75 727.752   7
   4  -9   9-1014.46 1080.58  18
   9  -4   9-1170.77 1026.04  18
  -4   9  -9 1413.98 667.045   4
  -9   4  -9 2339.21 889.797   4
  -4  -9  -9 3010.62 810.703  17
  -4   9   9 912.974 735.619   6
   4  -9  -9 5055.62 2384.90   2
   4   9   9 4172.17 2192.50   1
  -9   4   9 2203.54 1363.99   6
   4   9   9 3133.26 1388.06  13
  -4  -9   9 7347.17 4367.46  10
   9  -4   9 2436.06 598.727  25
  -9  -4   9 6510.12 2730.89  11
  -9   4   9 3958.85 2076.93  11
  -4   9  -9 7878.95 5913.42  24
   9   4   9 2181.51 1445.81   3
   9  -4   9 104.550 1451.57  23
   4  -9   9 4595.20 1897.28  23
   9   4   9 1521.04 1203.92   1
  -4  -9  -9-451.293 2223.87  10
   4   9   9 6446.08 2632.77   3
   4   9  -9 3529.20 2104.06  22
   9  -4  -9 1284.31 1094.88   2
   9  -4 -11 7704.33 1021.30   8
   9   4 -11 7100.31 953.198   8
  -9  -4 -11 6459.47 1355.75   7
  -4  -9 -11 10217.4 1477.02  17
  -9   4 -11 7482.62 1418.91   4
  -4   9  11 7717.08 1864.41   6
  -9   4  11 6765.69 1774.10   6
  -4   9  11 6645.09 1758.37  13
   9  -4  11 8055.43 1027.97  25
   4   9  11 10135.3 1381.08   5
   9   4  11 7417.67 1165.33   5
   4   9  13 1084.99 588.428   5
   9   4  13 1805.65 578.901   5
   9  -4 -13 1625.90 477.131   8
   9   4 -13 1475.04 430.521   8
  -9  -4 -13 781.568 483.596   7
  -4  -9 -13 2193.82 677.172  17
  -9   4 -13 1190.84 715.356   4
   9  -4  13 2108.76 518.916  25
   4   9  13 1575.64 781.452  15
   4   9 -13 2153.68 665.734  14
   4   9  15 8404.47 1230.26   5
   9   4  15 6968.83 1033.45   5
   9   4 -15 6212.03 777.160   8
  -9   4 -15 7802.17 1416.44   4
  -9  -4 -15 7868.95 1274.39   7
  -4  -9 -15 8950.84 1308.09  17
  -9  -4 -15 6273.61 1233.23   4
   4   9 -15 10009.8 1200.98  14
   9   4 -15 9018.45 1135.61  14
   9  -4  15 8195.19 907.668  25
   9  -4 -15 7269.52 943.990   8
   9  -4 -17 6247.60 731.375   8
   4   9  17 5814.75 1024.42   5
   9   4  17 4654.62 854.035   5
   9   4 -17 5776.63 664.535   8
  -9  -4 -17 4818.69 931.197   7
   4  -9 -17 5313.68 781.128   7
  -4  -9 -17 5496.22 930.808  17
  -9   4 -17 3251.66 951.688   4
  -9  -4 -17 5426.44 995.217   4
   4   9 -17 6228.78 840.147  14
   9   4 -17 6153.25 753.549  14
   9   4  17 5693.21 822.367  25
   4   9  19 1726.01 496.963   5
   9   4  19 1357.74 407.106   5
   9  -4 -19 1003.14 260.825   8
   9   4 -19 1671.58 310.941   8
   4  -9 -19 1204.03 312.751   7
  -9   4 -19 2110.02 611.907   4
   4  -9 -19 2415.71 402.751  17
  -9  -4 -19 1623.64 479.871   4
   9   4  19 2695.30 454.078  25
  -9  -5   0 13413.1 5419.42  21
  -5  -9   0 13228.8 4444.87  21
  -5   9   0 11344.8 1784.36   4
  -9   5   0 19665.0 2290.41   4
   5  -9   0 11592.2 5131.93  20
   9  -5   0 12525.1 4171.54  20
  -5   9   0 11581.4 4365.26   3
  -9  -5   0 20873.2 4526.46  19
  -9   5   0 15860.5 3303.12  19
   5   9   0 15095.9 3973.56  22
   5   9   0 14178.9 3361.78   1
  -5   9   0 19524.2 2775.70   6
  -9   5   0 20005.3 3087.47   6
  -9   5   0 16579.5 2569.67  16
   5   9   0 14488.0 2063.49  15
   9   5   0 15406.7 3137.15   3
   5   9   0 19321.1 2576.71  13
   9   5   0 15634.2 3502.40   2
   9   5   0 21665.0 4223.63   1
   5   9   0 22204.8 1834.91   5
   9   5   0 18836.7 1637.00   5
   9  -5   0 16560.2 3025.04  23
   5  -9   0 15648.0 2737.77  23
  -9  -5   0 17591.1 5974.79  10
  -5  -9   0 13344.3 6243.13  10
  -5   9   0 12187.0 4234.07  22
   5   9   2 1585.68 580.697   5
   9   5   2 1380.21 585.132   5
  -9  -5   2 3980.59 2821.53  21
  -9  -5  -2 5323.55 3367.06  21
  -5  -9  -2-667.498 1211.45  21
  -5  -9   2 988.789 1324.64  21
  -5   9   2 39.3588 950.143   3
   5  -9  -2-12.4715 3831.32  20
   5  -9   2 1761.07 2064.89  20
  -5   9   2 1595.15 1416.81  22
   9  -5  -2-1549.11 1598.68  20
   9  -5   2 1367.66 793.961  20
  -5   9  -2 547.329 1132.14   3
  -9  -5   2 3404.07 2034.96  19
   5   9   2 2630.28 1520.90   1
  -9  -5  -2 2751.56 1305.94  19
   5   9  -2 3327.43 1538.91  22
  -9   5  -2 1322.20 1253.60  19
  -9   5   2 206.032 610.107   4
   9   5  -2 689.383 862.266   2
  -5   9  -2 2301.42 1018.49   4
   9   5  -2 2701.20 1504.10   1
  -9   5  -2 1115.78 687.278   4
   9   5   2 1992.81 1378.42   1
  -9   5   2 321.841 656.706  16
   5   9  -2 2022.84 1190.78   1
  -9   5  -2 1587.44 828.405  16
  -5   9  -2 402.011 821.536   6
  -5   9   2 984.675 992.818   6
   5   9  -2 2758.63 918.374  15
  -9   5   2 793.301 1023.95   6
   5   9   2 2478.00 1241.66  13
  -9   5  -2 324.083 865.109   6
  -9   5   2 316.760 713.012  11
   9   5   2 1134.41 945.290   3
  -9  -5   2-3077.91 3242.13  10
  -5  -9   2 2138.26 3765.17  10
  -9  -5  -2-1077.25 2384.50  10
  -5  -9  -2 626.308 4526.70  10
   9  -5  -2 1556.52 947.148  23
   5  -9  -2 418.244 539.830  23
   9  -5   2 1413.90 980.555  23
   5  -9   2 2000.33 945.557  23
   5   9   2 2476.71 1544.35   3
   5   9  -2 924.936 557.425   5
   9   5  -2 1085.20 579.378   5
   5   9   2 916.151 1097.77  22
  -5   9  -2 270.186 1010.05  22
  -5   9   4 6810.99 3974.10  22
   5   9   4 5378.84 997.378   5
   9   5   4 4834.28 892.082   5
  -9  -5  -4 6291.80 3798.36  21
  -5  -9  -4 5130.02 2929.12  21
  -5  -9   4 9628.22 3777.99  21
   5  -9  -4 11298.2 3237.94  21
  -5   9   4 3337.27 2603.71   3
   5  -9  -4 1450.97 2118.20  20
   5  -9   4 5145.42 3146.88  20
   9  -5  -4 1375.62 1447.53  20
   9  -5   4 1024.88 1253.93  20
  -9   5   4 5279.11 4228.73   3
   9   5  -4 4677.21 1964.48   2
  -9  -5   4 3113.96 1604.14  19
  -9  -5  -4 3970.09 2301.49  19
  -5   9  -4 4716.54 1296.54   4
   9   5  -4 7672.02 2409.78   1
  -9   5  -4 5425.18 1281.74   4
  -5  -9  -4 5565.51 1015.24  17
   5   9   4 4065.34 2197.48   1
  -5   9  -4 4141.94 2160.56  22
  -9   5  -4 3333.53 1168.13  16
  -5   9   4 4528.56 1484.88   6
  -5  -9  -4 7936.97 3281.76  10
   9   5   4 4098.81 1834.36   1
  -9   5   4 7232.85 2114.91   6
  -9   5  -4 3584.59 1236.25   6
   5   9   4 3471.53 1305.43  13
   5   9  -4 6649.96 1137.25   5
  -9   5   4 4939.37 2170.85  11
  -5   9  -4 3348.71 3541.66  24
   9   5   4 4945.65 2030.49   3
  -9  -5   4 1460.70 2713.74  10
  -5  -9   4-1802.56 3563.26  10
  -9  -5  -4 8603.36 4467.04  10
   9  -5  -4 2450.12 1141.06  23
   9  -5   4 3731.75 1463.69  23
   5  -9   4 2954.91 1321.17  23
   5   9   4 3901.88 1756.06   3
   9   5  -4 4797.52 976.654   5
   5   9  -4 3292.70 2074.27  22
   5   9   6-2.93730 604.987   5
   9   5   6 884.745 497.695   5
  -9  -5  -6 498.749 1479.56  21
  -5  -9  -6-1009.18 1434.36  21
  -5   9   6-6399.85 3563.09   3
   5  -9  -6 432.029 1553.67  20
   5  -9   6 702.569 1346.48  20
   9  -5   6 580.853 944.976  20
   9   5  -6-1167.25 1136.39   2
  -9   5   6 9883.04 5579.49   3
  -9  -5   6 216.665 835.812  19
  -5   9  -6 136.462 648.924   4
   9  -5   6 3762.91 1638.33  18
  -9   5  -6 1370.67 871.652   4
  -5  -9  -6 1551.39 516.405  17
   9  -5  -6 530.391 638.423  23
  -9   5  -6 1130.90 807.553  16
  -5   9   6 475.028 833.219   6
   9  -5   6 333.396 555.187  23
  -9   5   6 1287.37 1377.78   6
   5   9   6 1116.04 989.233  13
   9   5   6 1606.14 1431.82   1
   5   9   6 768.612 1048.35   1
   9   5   6 881.282 393.911  25
  -9   5   6 2248.51 1520.21  11
  -5   9  -6-822.941 4044.62  24
   9   5   6 524.834 1275.76   3
  -9  -5   6 2956.50 3719.59  10
  -5  -9   6 1915.53 3672.76  10
   5   9  -6 893.476 592.554   5
   9   5  -6 775.815 627.108   5
  -9  -5  -6-2785.87 2768.89  10
  -5  -9  -6-3626.13 3717.80  10
   5  -9   6 2762.12 1314.64  23
   5   9   6-764.551 967.320   3
   5   9  -6 2270.53 1122.30  22
   9  -5  -6-363.700 595.358   2
   9  -5   8 1421.72 1689.38   9
  -9  -5  -8 282.796 1292.44  21
   5   9   8-12.7376 563.156   5
   9   5   8 844.158 551.693   5
  -5  -9  -8-1340.80 1608.58  21
  -5   9   8 844.713 1499.22   3
   5  -9  -8 4125.62 2944.78  20
   5  -9   8 3934.97 2376.99  20
   9  -5   8-559.420 941.594  20
   9   5  -8 100.158 579.849   2
  -9   5   8 3665.33 3888.72   3
  -9  -5   8-1579.95 1474.67  19
   5  -9   8 394.380 753.103  18
   9  -5   8-4123.47 1777.03  18
  -5   9  -8 885.319 753.633   4
  -9   5  -8 538.800 713.916   4
  -5  -9  -8 344.220 282.342  17
  -5   9   8 1277.89 1170.66   6
  -9   5  -8 609.047 859.266  16
  -9   5   8 1794.11 964.671   6
   5   9   8 1613.28 1400.29   1
  -9   5   8 2711.13 1693.47  11
   5  -9  -8 1347.27 1253.94   2
  -5   9  -8-2385.67 3089.22  24
   9   5   8-577.270 874.610   3
  -5  -9   8 1377.98 4105.17  10
   9  -5  -8 2199.13 1299.54  23
   9  -5   8 723.006 575.786  23
   5  -9   8-311.729 577.357  23
  -5  -9  -8 252.557 1696.57  10
   5   9   8-313.019 775.839   3
   5   9  -8 985.132 1699.47  22
   9   5   8-1476.85 1224.01   1
   9  -5  -8-1599.98 1215.32   2
   5   9  10-456.280 713.099   5
   9   5  10 200.000 491.286   5
   9  -5 -10 123.981 249.092   8
   9   5 -10 48.6893 205.288   8
  -9  -5 -10-883.735 677.611   7
  -5   9 -10 554.720 626.954   4
  -9   5 -10 655.555 566.709   4
  -5  -9 -10-10.3693 374.914  17
  -5   9  10 1135.39 916.289   6
   5   9  10 62.5486 506.958  15
  -9   5  10-587.155 903.975   6
  -5   9  10-112.982 637.967  13
   9   5  12 1219.02 616.059   5
   5   9  12 2713.96 819.129   5
   9  -5 -12 2076.01 538.611   8
   9   5 -12 1689.58 462.860   8
  -9  -5 -12 1210.90 612.017   7
  -5   9 -12 863.115 464.453   4
  -9   5 -12 1981.26 922.005   4
  -5  -9 -12 1541.79 660.991  17
  -5   9  12 1505.26 897.373   6
  -9   5  12 1695.91 1171.61   6
   5   9  12 733.645 734.206  15
   9  -5 -14 7377.35 887.608   8
   9   5 -14 5704.27 737.813   8
  -9  -5 -14 6406.85 1152.00   7
  -5   9 -14 3655.03 1001.02   4
  -5  -9 -14 5938.25 1083.99  17
  -9   5 -14 6619.92 1383.80   4
   5   9 -14 7037.62 1062.82  14
   5   9  14 8611.68 1411.08   5
   9   5  14 7660.37 1154.01   5
   5   9  16 1547.89 640.966   5
   9   5  16 1514.24 601.803   5
   9  -5 -16 2018.89 471.245   8
   9   5 -16 1659.69 387.817   8
  -9  -5 -16 642.402 411.389   7
  -9   5 -16 1036.62 530.371   4
  -5  -9 -16 921.466 456.463  17
  -9  -5 -16 1653.15 613.602   4
   5   9 -16 1106.23 405.477  14
   9   5 -16 1107.11 378.438  14
   5   9  18 379.719 356.335   5
   9   5  18 92.2615 281.423   5
   9  -5 -18-492.987 233.792   8
   9   5 -18 136.979 125.478   8
   5  -9 -18-228.931 184.208   7
  -9   5 -18 406.566 367.282   4
   5  -9 -18-201.574 121.798  17
  -9  -5 -18-94.7087 337.323   4
   5   9 -18-193.642 250.769  14
   9   5 -18-100.582 187.698  14
   9   5  18-179.064 266.932  25
   9   5  20-74.4582 108.658  25
   9   6   1 2767.83 850.782   5
   6   9  -1 3656.76 1709.48   1
  -9  -6  -1 5234.10 3286.70  21
  -9  -6   1 8464.18 4213.27  21
  -6  -9  -1 3201.12 2489.54  21
   6  -9  -1-1387.60 1959.33  20
   6  -9   1-196.826 1098.53  20
   9  -6  -1 3338.20 2382.09  20
   9  -6   1 4944.09 2747.75  20
  -6   9   1 5536.45 3391.78   3
  -6   9  -1 1258.93 1727.63   3
  -6   9   1 1095.15 572.051   4
  -9  -6   1 3349.40 1913.17  19
  -9  -6  -1 2169.57 1708.18  19
  -6   9  -1 1099.20 716.019   4
  -9   6   1 1076.95 515.397   4
  -9   6  -1 2227.49 1000.67   4
   9   6  -1 2615.79 1473.58   2
  -9   6  -1 2227.15 1100.34  16
  -6   9  -1 943.158 1130.48   6
  -6   9   1 2260.37 1312.24   6
   6   9  -1 3062.95 1027.99  15
   6   9   1 2899.08 961.998  15
   9   6  -1 2322.37 1471.12   1
  -9   6   1 2581.61 1421.24   6
  -9   6  -1 3441.51 1576.92   6
  -6  -9   1 6238.24 3350.86  21
   9   6   1 4821.98 2190.26   1
   9   6   1 3338.86 1655.15   3
  -9  -6   1 3789.68 4431.56  10
  -6  -9   1 2913.79 3953.51  10
  -9  -6  -1 973.970 2334.85  10
   6   9   1 4041.44 1868.42   1
  -6  -9  -1 1092.03 4657.74  10
   9  -6  -1 3739.77 1554.31  23
   6  -9  -1 2425.85 1175.12  23
   9  -6   1 1320.64 898.503  23
   6  -9   1 1903.53 1189.24  23
   6   9  -1 1665.47 654.073   5
   6   9  -1 1747.50 1495.88  22
   9   6  -1 2263.77 643.540   5
  -6   9  -1-21.7335 1608.72  22
  -6   9   1 2372.68 2122.52  22
   6   9   1 2032.42 718.881   5
  -6   9   3 5422.46 3262.53  22
  -9  -6  -3 10173.0 4848.19  21
  -6  -9  -3 10086.6 4451.20  21
  -6  -9   3 12760.7 4639.78  21
   6   9   3 9025.19 3155.09   1
  -6   9  -3 10142.7 1865.78   4
   6  -9  -3 5949.76 3117.08  20
   6  -9   3 9104.87 3842.57  20
  -6   9   3 3974.87 2952.66   3
  -9   6  -3 9867.89 1820.91   4
   9  -6  -3 7081.26 3127.40  20
   9  -6   3 11343.0 4052.97  20
  -9   6   3 8242.93 5486.05   3
  -9   6   3 3257.91 1102.31   4
  -9  -6   3 12233.7 3767.76  19
  -9  -6  -3 11474.6 3503.21  19
   9   6  -3 10489.9 3196.00   2
  -9   6  -3 10770.7 2149.81  16
   6   9  -3 11904.3 1747.20  15
   9  -6   3 9013.82 2337.73  23
  -6   9  -3 9935.29 2075.57   6
   6   9   3 10813.5 1869.07  15
  -6   9   3 9318.48 2296.05   6
  -9   6   3 11186.3 2599.46   6
   9   6  -3 10918.0 2923.44   1
  -9   6  -3 7537.08 2107.26   6
   9   6  -3 10754.2 1334.17   5
   9   6   3 7044.73 2645.57   1
   6   9  -3 11983.9 1467.39   5
  -9   6   3 4000.95 2033.27  11
   6   9   3 12820.4 1547.92   5
   9   6   3 10736.8 1349.60   5
   9   6   3 6208.09 2450.38   3
  -9  -6   3 9420.83 5099.86  10
  -6  -9   3 7810.41 6938.61  10
  -9  -6  -3 16086.5 6315.36  10
  -6  -9  -3 4303.69 5265.87  10
   9  -6  -3 8134.81 2190.87  23
   6  -9  -3 8898.37 2241.19  23
   6  -9   3 7265.81 2150.56  23
   6   9   3 9986.30 3092.79   3
   6   9  -3 9953.20 2906.19  22
   6   9   5 2963.08 881.956   5
   9   6   5 3107.28 849.390   5
  -9  -6  -5 884.867 1762.95  21
  -6   9   5-392.847 1298.22   3
   6  -9  -5 4388.90 2566.06  20
   6  -9   5-1610.12 1783.53  20
   9  -6  -5-4135.98 2397.31  20
   9  -6   5 1238.16 1349.10  20
  -9   6   5 4313.98 3852.74   3
  -9  -6   5 3321.88 2493.33  19
   9   6  -5 2941.79 1747.04   2
   6   9   5 539.566 865.370   1
  -6   9  -5 1896.93 876.021   4
   9  -6   5 661.686 796.886  18
  -9   6  -5 1427.33 847.270   4
  -6  -9  -5 1760.38 660.769  17
   9  -6   5 770.610 831.625  23
  -9   6  -5 1368.41 791.883  16
  -6   9   5 2239.51 1420.11   6
  -6  -9  -5-3680.95 3900.54  10
   6   9   5 1643.29 927.998  15
  -9   6   5 930.899 950.700   6
  -9   6   5 1521.87 1282.67  11
  -6   9  -5 7854.87 4774.08  24
   9   6   5 5154.08 2250.37   1
   9   6   5 2107.58 1424.47   3
  -9  -6   5 3097.99 2305.49  10
  -6  -9   5-13291.9 6269.89  10
   9  -6  -5 135.327 460.461  23
   6   9   5 1510.65 1205.14   3
   6   9  -5 2029.10 767.884   5
   9   6  -5 2311.77 719.461   5
   6  -9   5 2138.47 1175.92  23
   6   9  -5 168.207 959.906  22
  -9  -6  -5 3978.99 2623.88  10
  -6  -9  -5 4149.14 2927.80  21
   6   9   7-62.0408 512.277   5
   9   6   7-715.285 599.210   5
  -9  -6  -7 2771.80 2874.96  21
  -6  -9  -7 132.860 714.073  21
  -6   9   7 3685.83 3143.82   3
   6  -9  -7-5460.37 3388.69  20
   6  -9   7 2654.17 2046.87  20
   9  -6   7-2548.82 1862.50  20
  -9   6   7-1652.14 2888.57   3
   9   6  -7-3491.92 1889.82   2
  -9  -6   7-6772.36 2852.13  19
   6  -9   7-190.943 962.907  18
   9  -6   7 3543.98 1701.66  18
  -6   9  -7-566.971 862.151   4
  -9   6  -7-85.2885 504.485   4
  -6  -9  -7-5.18209 365.121  17
  -9   6  -7-551.471 535.939  16
   9   6   7 1689.13 1344.99   1
  -6   9   7 24.3226 880.450   6
   6   9   7 408.793 800.571  15
  -9   6   7 185.352 1209.98   6
   6   9   7-2082.92 1581.19   1
   9   6   7-245.083 359.459  25
  -9   6   7 355.504 812.644  11
  -6   9  -7-4511.73 3848.36  24
   9   6   7 4051.88 2002.88   3
  -9  -6   7 3008.97 2469.05  10
  -6  -9   7-10695.7 5807.54  10
   6   9  -7-25.5256 469.355   5
   9   6  -7-101.999 459.972   5
   9  -6  -7 2244.36 1338.44  23
   9  -6   7 1100.66 908.096  23
  -9  -6  -7 1396.33 2331.42  10
   6   9   7-1894.28 1421.33   3
   6  -9   7 2212.28 1250.40  23
  -6  -9  -7-4696.22 4096.01  10
   6   9  -7 187.142 929.750  22
   6   9   9-250.174 666.909   5
   9   6   9-261.558 567.684   5
   9   6  -9 560.996 355.540   8
  -6   9  -9 1188.54 832.036   4
  -9   6  -9-241.786 693.930   4
  -6  -9  -9 666.745 469.788  17
  -6   9   9 1047.06 1073.71   6
   6   9   9-191.396 754.227  15
  -9   6   9 668.264 1046.63   6
   6   9  11-352.454 553.976   5
   9   6  11-488.016 558.873   5
   9   6 -11 345.573 305.973   8
  -6   9 -11 42.8286 502.772   4
  -9   6 -11 815.722 719.075   4
  -6  -9 -11 423.009 433.689  17
  -6   9  11-682.930 755.285   6
  -9   6  11-177.179 684.469   6
   6   9  11 426.110 594.042  15
  -6   9  11 952.885 773.218  13
   6   9  13 5449.86 1098.89   5
   9   6  13 4357.69 1008.55   5
   9   6 -13 3971.13 618.381   8
  -9  -6 -13 4385.84 983.113   7
  -6   9 -13 3594.30 1049.36   4
  -6   9  13 3919.85 1284.59   6
  -6  -9 -13 4875.67 1073.15  17
  -9   6 -13 5060.39 1260.06   4
   6   9  13 5140.75 1089.09  15
   6   9 -13 7137.79 1177.12  14
   9  -6 -15 3647.11 556.924   8
   6   9  15 4347.51 968.365   5
   9   6  15 3992.88 821.649   5
   9   6 -15 3928.66 557.790   8
  -6   9 -15 3057.56 873.265   4
  -6  -9 -15 3386.87 775.101  17
  -9   6 -15 4148.74 1090.11   4
   9   6 -15 4256.81 830.854  14
   6   9 -15 3861.00 774.377  14
   6   9  17 1253.82 487.011   5
   9   6  17 534.486 349.339   5
   9   6  17 771.106 287.257  25
   6  -9 -17 1440.60 387.880   7
  -9   6 -17 810.654 550.146   4
   6   9 -17 860.563 310.566  14
   9   6 -17 625.387 245.469  14
   6   9  19 88.3795 314.390   5
  -9   6 -19 305.648 250.906   4
   9  -6 -19 4.34447 122.287   7
   9   6  19 27.8232 144.415  25
  -9  -7   0 21702.0 6991.27  21
  -7  -9   0 22640.7 6909.99  21
  -7   9   0 14604.9 2192.32   4
  -9   7   0 19534.7 2606.22   4
   7  -9   0 9626.88 4454.82  20
   9  -7   0 14075.1 4849.20  20
  -7   9   0 9518.40 4674.98   3
  -7   9   0 18631.9 2926.68   6
  -9   7   0 21709.3 3315.93   6
   7   9   0 18217.8 2365.99  15
   7   9   0 17389.5 3985.33   1
   7   9   0 24105.3 2080.01   5
   9   7   0 22722.6 2022.17   5
   9  -7   0 15075.2 3090.10  23
   7  -9   0 15451.8 2997.32  23
  -9  -7   0 19948.6 7736.62  10
  -7  -9   0 24894.5 9731.85  10
   9   7   0 22653.8 4547.89   1
   7   9   2 105.181 605.619   5
   9   7   2 518.373 492.408   5
  -9  -7  -2 3034.62 2831.98  21
  -7  -9  -2 5194.01 3316.21  21
  -7  -9   2 1799.39 2077.95  21
   7  -9  -2 2723.72 2471.59  20
   7  -9   2-1315.39 1760.16  20
   9  -7  -2-1143.97 1630.10  20
   9  -7   2 3687.99 2483.85  20
  -7   9   2 1353.06 1874.98   3
   9   7  -2 724.492 869.006   1
  -9   7   2-595.259 914.905   4
  -7   9  -2 1177.18 1002.00   4
  -9   7  -2-485.853 719.335   4
   7  -9  -2-456.500 640.739  23
   9   7  -2 2618.54 1617.46   2
   9   7   2 843.105 728.122  15
   7   9  -2 1046.07 834.711  15
  -7   9  -2 1908.30 1259.28   6
  -7   9   2 400.295 1190.56   6
   7   9   2 1127.95 801.132  15
  -9   7   2 212.678 1199.96   6
  -9   7  -2 292.450 870.926   6
   7   9   2 2279.03 1474.59   1
   7   9  -2 1838.05 1190.26   1
  -9  -7   2 8856.79 5268.41  10
  -7  -9   2-2794.86 3790.69  10
  -9  -7  -2 1809.15 2778.99  10
  -7  -9  -2-2686.12 3452.79  10
   9   7   2-303.120 800.279   1
   9  -7  -2 258.703 528.441  23
   9  -7   2 733.614 788.534  23
   7  -9   2 1009.28 839.791  23
   7   9  -2-1.86553 482.674   5
   9   7  -2-136.592 439.946   5
   7   9   4 1998.88 739.259   5
   9   7   4 1461.92 627.581   5
   9   7   4 2530.79 1634.48   1
  -9  -7  -4-334.445 1418.77  21
  -7  -9  -4 2021.47 2484.00  21
   7  -9  -4 5155.79 3261.78  20
   7  -9   4-4632.05 2931.87  20
   9  -7  -4-1866.66 1923.60  20
   9  -7   4 864.477 1321.61  20
  -7   9   4-5363.63 3735.55   3
  -9   7   4-519.439 2084.42   3
  -7   9  -4 1806.73 1081.67   4
   9   7  -4-153.310 691.569   2
  -9   7  -4 890.067 709.220   4
   9  -7   4 251.051 1354.01  18
  -9   7  -4 2880.34 1298.87  16
   9   7   4 1680.73 888.111  15
  -7   9   4 2155.76 1414.79   6
   7   9   4 1277.19 874.343  15
  -9   7   4 2467.61 1453.71   6
  -9   7  -4 1202.35 1130.60   6
  -9   7   4 2641.41 1740.55  11
   9   7   4 6049.53 2275.39   3
  -9  -7   4-1947.05 3274.68  10
  -7  -9   4 2438.84 3328.95  10
  -9  -7  -4 3389.39 4056.35  10
   7  -9  -4 775.121 744.573  23
   9  -7  -4 1381.95 937.601  23
  -7  -9  -4 871.498 2544.77  10
   7   9   4-1555.36 1240.11   3
   9  -7   4 1557.60 1044.09  23
   7  -9   4 1877.90 1351.40  23
   7   9  -4 1512.56 604.702   5
   9   7  -4 1301.13 609.552   5
   7   9   4 4258.61 2111.18   1
  -7   9   4 20.4803 2251.96  22
   7   9   6 1939.35 758.048   5
   9   7   6 2019.74 752.955   5
  -9  -7  -6 9405.29 4952.44  21
  -7  -9  -6 6627.68 3959.56  21
   7  -9  -6-1338.30 1757.85  20
   7  -9   6-1102.54 1328.54  20
   9  -7   6-838.874 1100.14  20
  -7   9  -6 1678.91 921.118   4
   9  -7   6 1884.69 1233.89  18
  -9   7  -6 1816.19 863.589   4
  -7  -9  -6 1649.89 541.364  17
  -9   7  -6 1945.23 1091.17  16
   9   7   6 2105.14 952.349  15
  -7   9   6 314.865 1229.87   6
   7   9   6 638.193 517.279  15
  -9   7   6 1993.39 1145.42   6
  -9   7   6 915.394 1038.47  11
   9  -7  -6 1242.00 555.999  23
   7   9  -6 2446.16 828.133   5
   9   7  -6 1833.73 767.550   5
   7   9   6 1152.85 1134.75   3
  -9  -7  -6-5291.82 4053.68  10
   9  -7   6 1337.77 1015.60  23
   7  -9   6 645.940 770.049  23
   7   9   8 4291.09 1023.28   5
   9   7   8 4097.13 973.172   5
   9   7  -8 1773.20 603.359   8
  -7   9  -8 2286.18 843.710   4
  -9   7  -8 3737.46 1207.38   4
  -7  -9  -8 3837.92 974.195  17
  -7   9   8 3469.09 1552.30   6
   7   9   8 1801.38 908.536  15
  -9   7   8 2206.75 1372.39   6
   9   7   8 2736.73 581.985  25
   7   9  10 4515.21 1065.60   5
   9   7  10 4385.20 1013.02   5
   9   7 -10 2616.29 589.152   8
  -7   9 -10 3179.06 1065.84   4
  -9   7 -10 3940.84 1211.66   4
  -7  -9 -10 3305.53 925.264  17
  -7   9  10 3219.66 1429.95   6
  -9   7  10 5014.35 1662.23   6
   7   9  10 2295.67 886.190  15
   7   9  12 2723.48 856.311   5
   9   7  12 2236.06 745.659   5
   9   7 -12 1245.08 360.687   8
  -7   9 -12 1984.55 857.729   4
  -9   7 -12 1739.29 784.245   4
  -7  -9 -12 1916.95 717.942  17
  -7   9  12 1659.50 909.927   6
  -9   7  12 2613.30 1084.58   6
   7   9  12 1204.31 726.882  15
   7   9  14 3318.36 897.327   5
   9   7  14 2643.44 726.950   5
  -7   9 -14 2236.81 763.506   4
  -9   7 -14 2662.65 908.469   4
   7   9 -14 2633.72 649.590  14
   9   7 -14 2390.06 686.541  14
   7   9  16 2879.94 723.907   5
   9   7  16 3068.13 671.177   5
  -7   9 -16 2234.81 655.418   4
  -9   7 -16 2189.63 743.904   4
   7   9 -16 2762.17 553.975  14
   9   7 -16 2517.16 537.318  14
   9   7  16 1994.08 442.493  25
   7   9  18 1640.09 420.125   5
   9   7  18 1804.12 429.229   5
  -9   7 -18 1299.80 429.661   4
   7  -9 -18 820.862 243.098   7
   7   9  18 1688.36 325.872  25
   7   9 -18 1290.88 291.622  14
   9   7 -18 931.843 246.546  14
   9   7  18 1925.42 378.067  25
  -9  -8  -1 17152.8 6532.10  21
  -9  -8   1 18442.5 6617.33  21
  -8  -9  -1 25543.8 7308.64  21
  -8  -9   1 24220.3 7379.40  21
   9   8  -1 19310.3 4177.03   1
  -9   8   1 9073.03 1913.79   4
  -8   9  -1 17031.1 2523.03   4
  -9   8  -1 21365.1 2695.56   4
   9   8   1 17790.1 4358.32   1
   8  -9  -1 9972.21 4637.93  20
   8  -9   1 18093.5 5765.12  20
   9  -8  -1 17820.3 5306.48  20
   9  -8   1 16143.0 5278.88  20
  -8   9   1 5566.97 3951.22   3
  -8   9   1 5537.35 1600.12   4
  -8   9  -1 22808.1 3369.99   6
  -8   9   1 21994.8 3276.11   6
  -9   8   1 24876.2 3602.93   6
  -9   8  -1 21515.7 3274.96   6
   8   9  -1 28141.0 2888.67  15
   8   9   1 27137.6 2954.85  15
   8   9   1 18941.2 4550.03   1
   8   9  -1 20124.4 4213.90   1
   8   9  -1 24369.6 2124.49   5
   9   8  -1 23975.7 2079.04   5
   8   9   1 25267.9 2174.77   5
   9   8   1 25688.6 2161.78   5
   9  -8  -1 16925.5 3327.52  23
   8  -9  -1 19426.0 3494.61  23
   9  -8   1 18084.9 3421.45  23
   8  -9   1 20522.7 3600.19  23
  -9  -8  -3 25878.4 8626.31  21
  -8  -9  -3 23597.5 7613.81  21
  -8   9  -3 31358.8 3275.48   4
  -9   8  -3 28994.4 3138.88   4
   8  -9  -3 22327.7 7050.25  20
   9  -8  -3 22787.6 6115.55  20
  -8   9  -3 22701.9 3000.34   6
  -8   9   3 27664.1 3815.58   6
  -9   8   3 28390.7 4143.90   6
  -9   8  -3 25820.8 3338.98   6
   9   8   3 33960.2 3287.77  15
   8   9   3 28959.7 3070.28  15
   8   9  -3 31577.1 2395.58   5
   9   8  -3 28960.1 2267.67   5
   8   9   3 31631.2 2487.65   5
   9   8   3 28424.0 2348.86   5
   8  -9  -3 20290.1 3417.85  23
   9  -8  -3 28035.7 4181.28  23
   9  -8   3 22261.2 3807.98  23
   8  -9   3 21744.7 3811.37  23
  -8   9  -5 16245.8 2398.33   4
  -9   8  -5 18189.5 2525.64   4
   9   8   5 17653.1 2419.83  15
   8   9   5 17845.2 2371.38  15
  -8   9   5 14452.9 2825.02   6
  -9   8   5 15640.7 2997.40   6
   8   9  -5 19306.3 1894.95   5
   9   8  -5 17906.2 1794.01   5
   8   9   5 18503.8 1978.17   5
   9   8   5 17292.1 1854.87   5
  -8   9  -7 9419.23 1877.50   4
  -9   8  -7 10545.8 1917.83   4
   9   8   7 12061.2 2045.15  15
   8   9   7 10063.2 1779.74  15
  -8   9   7 7281.20 2254.59   6
  -9   8   7 9932.12 2360.76   6
   8   9  -7 12043.5 1511.12   5
   9   8  -7 12214.2 1512.78   5
   8   9   7 12250.9 1608.06   5
   9   8   7 11624.3 1539.56   5
   8   9   9 7954.18 1330.56   5
   9   8   9 7004.46 1237.22   5
  -8   9  -9 5416.73 1305.42   4
  -9   8  -9 6635.11 1512.84   4
  -8   9   9 4687.52 1720.95   6
  -9   8   9 4070.02 1609.82   6
   8   9   9 6914.88 1536.34  15
  -8   9 -11 11043.7 1827.68   4
  -9   8 -11 12291.3 1972.91   4
  -8   9  11 8632.30 2041.40   6
  -9   8  11 10166.3 2187.57   6
   8   9  11 16611.6 2103.58  15
   9   8  11 12786.7 1218.63  25
   8   9  11 14956.5 1780.65   5
   9   8  11 15729.6 1766.96   5
  -8   9 -13 20035.1 2284.31   4
  -9   8 -13 23922.0 2421.03   4
  -8   9  13 19768.9 2507.12   6
  -9   8  13 20531.2 2489.92   6
   8   9 -13 32666.2 2278.60  14
   9   8  13 27238.4 1728.07  25
   8   9  13 32279.0 2332.51   5
   9   8  13 31138.7 2245.35   5
  -8   9 -15 13525.4 1575.93   4
  -9   8 -15 13607.9 1657.08   4
   8   9 -15 19249.6 1430.28  14
   9   8 -15 18558.8 1385.32  14
   9   8  15 18598.3 1276.28  25
   8   9  15 18939.9 1283.38  25
   8   9  15 19962.5 1683.86   5
   9   8  15 18911.2 1581.17   5
  -9   8 -17 5694.27 857.732   4
   8  -9 -17 4661.03 540.626   7
   8   9 -17 9484.26 781.175  14
   9   8 -17 9092.97 757.841  14
   9   8  17 9171.15 734.372  25
   8   9  17 9315.29 724.613  25
   8   9  17 10672.4 1021.13   5
   9   8  17 10781.2 999.984   5
  -9   9   0 464.334 580.069   4
  -9   9   0-8.29978 1157.22   6
   9   9   0 806.083 614.502   5
  -9   9  -2 23053.0 2954.27   4
  -9   9  -2 20726.1 3239.02   6
  -9   9   2 31305.1 4013.18   6
   9   9   2 35682.8 3434.21  15
   9   9  -2 31010.5 2379.52   5
   9   9   2 34368.9 2575.07   5
  -9   9  -4 7137.22 1749.65   4
   9   9   4 10598.0 1917.16  15
  -9   9   4 7689.54 2319.43   6
   9   9  -4 8624.14 1279.76   5
   9   9   4 10589.0 1491.40   5
  -9   9  -6 11395.3 2114.84   4
   9   9   6 13304.9 2152.52  15
  -9   9   6 10721.8 2662.79   6
   9   9  -6 12024.5 1546.11   5
   9   9   6 11176.7 1572.50   5
   9   9   8-417.682 577.224   5
  -9   9  -8-31.0991 523.748   4
  -9   9   8-65.2191 1007.03   6
   9   9  10 4541.61 1081.00   5
  -9   9 -10 2795.79 1181.35   4
  -9   9  10 3215.58 1332.04   6
  -9   9 -12 14137.1 1888.08   4
   9   9  12 18305.7 1782.01   5
  -9   9 -14 15355.4 1712.78   4
   9   9 -14 20985.0 1538.49  14
   9   9  14 17778.2 1568.48   5
   9   9 -16 8344.62 747.838  14
   9   9  16 7886.80 886.453   5
  10   0   0 169697. 16378.5   9
 -10   0   0 131145. 17260.2  21
   0 -10   0 163337. 14780.8  21
  10   0   0 163740. 12984.6  20
 -10   0   0 163664. 11759.1  19
 -10   0   0 187925. 8928.10   6
  10   0   0 158632. 11378.4   1
  10   0   0 119258. 7951.35   2
 -10   0   0 152114. 12198.7  11
   0 -10   0 123634. 14388.2  10
  10   0   0 161476. 8640.87  23
   0  10   0 140304. 14108.1  22
  10   0   2 24650.6 7149.14   9
  10   0  -2 23381.8 6010.83   9
   0 -10  -2 25643.9 5662.81  21
   0 -10   2 26068.9 6062.04  21
 -10   0  -2 17556.3 6786.44  21
   0 -10   2 12891.1 5619.41  20
  10   0   2 27697.0 5450.43  20
  10   0  -2 25745.7 4944.88  20
 -10   0   2 32014.1 5262.16  19
 -10   0  -2 30257.3 5312.41  19
  10   0  -2 25601.5 4627.00   1
 -10   0   2 26040.8 3511.89   6
 -10   0  -2 25973.0 3328.91   6
  10   0   2 23184.7 4358.36   1
  10   0   2 34679.0 1918.91  25
   0  10   2 24661.8 3190.31  13
  10   0  -2 18902.6 3387.35   2
   0  10   2 21922.8 4498.37   3
 -10   0   2 33437.5 5673.25  11
  10   0  -2 27314.1 3610.49  23
  10   0   2 26962.8 3556.65  23
   0 -10  -2 23754.3 6956.59  10
   0  10  -2 25780.2 5663.58  22
   0  10   2 24247.8 6355.60  22
   0  10   4 16229.8 4010.38   3
  10   0   4 14358.0 5152.85   9
   0 -10  -4 19433.7 4812.77  21
 -10   0  -4 13854.0 6083.73  21
   0 -10   4 15582.9 4845.95  21
   0 -10   4 15515.7 5632.51  20
  10   0  -4 11303.0 2860.58   2
  10   0   4 15714.2 4216.62  20
  10   0  -4 14598.4 3538.08  20
 -10   0   4 14971.5 3741.31  19
 -10   0  -4 12497.3 3648.34  19
 -10   0   4 16148.0 2846.92   6
 -10   0  -4 15032.7 2574.49   6
 -10   0   4 14480.0 2246.56  16
   0  10   4 11384.6 2310.70  13
 -10   0   4 18696.8 4161.76  11
  10   0   4 19630.2 1514.42  25
  10   0   4 12646.0 3180.74   1
  10   0  -4 14167.0 2739.95  23
  10   0   4 16502.1 2776.50  23
   0 -10  -4 12378.8 5175.00  10
   0  10  -4 16400.6 4561.92  22
   0  10   4 12411.1 4670.22  22
   0  10   6 25653.1 6930.34  22
   0 -10  -6 32700.2 6309.08  21
  10   0   6 27190.4 7142.53   9
   0 -10   6 31847.0 6973.33  21
 -10   0  -6 17983.5 7497.08  21
  10   0   6 29169.8 5897.69  20
   0 -10   6 21000.1 6380.74  20
 -10   0   6 35816.6 5679.13  19
 -10   0  -6 29125.2 5778.50  19
  10   0  -6 32584.7 5300.54   1
 -10   0   6 27470.5 3662.10   6
 -10   0  -6 26557.4 3180.25   6
  10   0  -6 22070.0 4429.18   2
   0  10   6 19765.3 2925.46  13
  10   0   6 35668.0 2077.74  25
  10   0   6 27808.0 4743.03   1
   0  10   6 25982.0 5445.42   3
 -10   0   6 36509.0 6010.33  11
  10   0  -6 26901.2 3885.00  23
   0 -10  -6 27433.2 8118.46  10
   0  10  -6 29554.3 5793.04  22
   0  10   8 11511.4 5126.94  22
   0  10   8 13984.6 4151.84   3
 -10   0  -8 17727.7 7258.53  21
  10   0   8 9715.83 4431.18   9
   0 -10  -8 15891.4 4347.23  21
   0 -10   8 11309.6 4231.51  21
  10   0  -8 10817.5 3130.80   2
  10   0  -8 11182.8 1341.08   8
  10   0   8 13148.2 4031.33  20
  10   0   8 10033.0 2796.11   1
 -10   0   8 19086.3 4479.44  19
 -10   0  -8 14715.9 1916.59   4
  10   0  -8 10736.6 2949.56   1
 -10   0   8 10163.0 2281.99   6
   0  10   8 9013.75 2082.30  13
 -10   0  -8 9925.02 2045.21   6
  10   0   8 15005.4 1413.37  25
 -10   0   8 15309.7 4367.27  11
   0  10  -8 14783.9 6797.23  24
   0 -10  -8 4987.38 3956.77  10
   0  10  -8 13721.6 3675.11  22
  10   0 -10 1776.82 600.108   8
  10   0  10 716.798 390.280  25
 -10   0 -10 2311.69 776.505   4
   0  10 -10 1026.01 458.779  14
   0  10  10 1428.97 1098.45  13
  10   0 -12 60135.5 2719.30   8
 -10   0 -12 57115.4 3830.65   4
   0  10 -12 67719.2 3012.30  14
   0  10  12 46641.4 4312.98  13
  10   0  12 49523.1 2634.56  25
  10   0 -14 29459.0 1841.56   8
 -10   0 -14 29652.2 2630.70   4
   0 -10 -14 28919.2 2274.29  17
   0  10 -14 30032.4 1956.67  14
   0  10  14 25017.2 2910.63  13
  10   0  14 24532.1 1784.82  25
  10   0 -16 28977.4 1666.62   8
 -10   0 -16 30184.5 2467.18   4
   0 -10 -16 24855.2 1943.25  17
  10   0  16 23002.7 1583.54  25
  10   0 -18 10436.6 873.612   8
 -10   0 -18 9587.45 1234.31   4
   0 -10 -18 8591.97 959.913  17
  10   0  18 8682.91 816.658  25
  10   0 -20 560.330 186.896   8
 -10   0 -20 451.984 287.218   4
  10   1   1 33805.9 7647.25   9
  10   1  -1 29006.0 6837.73   9
  -1 -10  -1 37745.0 7040.46  21
  -1 -10   1 35896.4 7004.98  21
   1 -10  -1 34704.8 6729.40  21
   1 -10   1 28407.3 6317.89  21
 -10  -1   1 30663.3 7872.17  21
 -10  -1  -1 25113.0 7871.47  21
   1 -10  -1 18735.9 6452.93  20
  10  -1  -1 31627.2 5659.69  20
  10  -1   1 30693.5 5711.44  20
  10   1   1 31088.5 5649.91  20
  10   1  -1 28552.3 5356.78  20
   1 -10   1 20734.7 7048.73  20
 -10  -1   1 32046.3 5295.11  19
 -10   1   1 36867.4 5500.32  19
 -10  -1  -1 36394.8 5661.92  19
 -10   1  -1 29887.1 5164.18  19
  -1  10   1 23560.6 2996.04   6
  10  -1   1 35532.9 5324.26   1
 -10   1   1 36585.1 4050.85   6
 -10   1  -1 37441.9 4138.73   6
 -10  -1   1 37407.0 4111.38   6
 -10  -1  -1 32816.1 3768.99   6
 -10   1   1 33357.0 3546.86  16
  10   1  -1 34300.5 5269.69   1
  10   1   1 36156.1 5497.01   1
   1  10   1 24887.1 3192.41  13
  10  -1  -1 27887.5 3841.46   2
  10   1  -1 24505.7 3919.37   2
  10   1   1 24560.2 3644.76   2
  -1  10   1 21908.8 4647.27   3
 -10   1   1 28069.6 5196.35  11
 -10  -1   1 34973.0 5816.10  11
 -10   1  -1 26711.5 5186.85  11
  10   1  -1 30952.1 3756.03  23
  10   1   1 29351.6 3568.95  23
  10  -1  -1 29241.8 3811.32  23
  10  -1   1 30132.8 3841.04  23
  -1 -10   1 21129.2 6063.87  10
  -1 -10  -1 18476.1 5991.76  10
   1  10  -1 26453.1 5924.71  22
  -1  10  -1 30573.4 6397.55  22
   1  10   1 29335.6 6543.04  22
  -1  10   1 29069.0 6888.24  22
  10  -1  -1 35344.3 7277.96   9
  10  -1   1 30055.4 7034.21   9
   1  10   3 11281.3 3171.84   3
  10  -1   3 8290.99 4707.26   9
  10  -1  -3 7806.71 3335.27   9
  10   1   3 10898.3 4549.82   9
  10   1  -3 10623.3 3842.85   9
  -1  10   3 9675.56 3360.20   3
 -10  -1  -3 6245.14 3382.33  21
  -1 -10  -3 13161.7 4093.81  21
   1 -10  -3 10752.0 3424.43  21
  -1 -10   3 10124.7 4058.75  21
   1 -10   3 6783.86 3843.09  20
  10  -1  -3 8982.08 2361.18   2
  10  -1   3 11844.9 3598.10  20
  10   1  -3 7553.57 2260.95   2
  10  -1  -3 10225.5 3095.18  20
  10   1   3 11709.2 3686.01  20
  10   1  -3 6921.53 2446.29  20
 -10  -1   3 11908.1 3195.67  19
 -10   1   3 9930.82 2978.01  19
 -10  -1  -3 9322.92 3054.35  19
 -10   1  -3 11885.9 3403.22  19
  -1  10   3 6185.39 1749.58   6
 -10   1   3 9586.72 1898.44  16
   1  10   3 7962.57 1836.51  13
  10   1   3 12986.0 1244.92  25
  10  -1   3 7264.02 2416.98   1
 -10   1   3 10799.4 2303.99   6
  10   1  -3 10656.4 3032.00   1
 -10   1  -3 10847.6 2167.63   6
 -10  -1   3 7715.39 2249.15   6
 -10   1   3 13457.7 3790.20  11
  10  -1   3 13570.0 1256.56  25
 -10  -1   3 12898.1 3617.33  11
  10   1  -3 9357.58 2187.49  23
  10  -1  -3 9819.45 2326.01  23
  10   1   3 8038.21 2752.72   1
  10  -1   3 10648.7 2381.05  23
  -1 -10   3 13838.6 4812.95  10
  -1 -10  -3 7555.11 4329.11  10
   1 -10  -3 14084.7 5107.42  10
   1  10  -3 8683.82 3483.13  22
  -1  10  -3 9158.29 3609.75  22
   1  10   3 6461.11 3206.90  22
  -1  10   3 4801.21 2975.47  22
  -1  10   5 3991.96 2981.20  22
  10  -1   5 10406.7 4396.98   9
  -1  10   5 9509.72 3486.02   3
  10   1   5 11.2247 3256.44   9
 -10  -1  -5 4199.86 3561.84  21
  -1 -10  -5 10084.8 3592.29  21
   1 -10  -5 11161.5 3558.63  21
  -1 -10   5 8049.41 3716.63  21
  10  -1  -5 8107.43 2425.29   2
  -1 -10   5 7694.37 3976.97  20
   1 -10   5 1990.28 2241.63  20
  10   1  -5 8030.31 2664.44   2
  10  -1   5 8386.67 3462.68  20
  10   1   5 4225.49 2287.00  20
 -10   1  -5 9226.21 1503.03   4
 -10  -1   5 9361.98 3008.38  19
 -10   1   5 6980.47 2313.63  19
 -10  -1  -5 8668.95 3089.48  19
 -10   1  -5 6850.71 2550.06  19
  -1  10   5 5846.14 1624.26   6
 -10   1   5 6015.80 1416.66  16
  10  -1   5 8746.06 2620.33   1
   1  10   5 7165.01 1839.79  13
  10   1  -5 9410.91 2799.43   1
  10  -1   5 9352.68 1059.52  25
 -10   1   5 8069.56 2090.62   6
  -1  10   5 5658.40 1658.66  13
 -10  -1   5 6645.97 2026.23   6
 -10   1  -5 8110.90 1932.82   6
  10   1   5 9595.53 1078.42  25
 -10  -1   5 12196.4 3520.52  11
 -10   1   5 9173.08 3013.47  11
  10  -1  -5 6008.06 1789.97  23
  10  -1   5 6881.98 1805.04  23
  -1 -10  -5 8616.07 4655.68  10
   1 -10  -5 11225.7 4973.65  10
  10   1   5 6307.47 2215.65   1
   1  10  -5 7782.73 3077.75  22
  -1  10  -5 5776.58 2454.15  22
   1  10   5 9010.96 2948.01   3
   1  10   5 6779.06 3749.17  22
   1  10   7 6881.14 3298.92  22
  -1  10   7 6531.49 3934.52  22
  -1  10   7 3881.26 2250.52   3
  10  -1   7-3658.96 2770.81   9
  10   1   7 6044.87 3528.06   9
 -10  -1  -7 2677.68 3288.19  21
  -1 -10  -7 4926.26 2555.92  21
   1 -10  -7 4837.38 2324.73  21
  10  -1  -7 1894.07 1309.92   2
  -1 -10   7 7610.65 3463.40  21
  10  -1  -7 3334.52 718.777   8
  10   1  -7 2867.87 1382.61   2
  10   1   7 3172.02 1622.41   1
  10  -1   7 4005.20 2243.56  20
  10   1   7-245.811 763.408  20
 -10  -1   7 3996.49 2339.34  19
 -10   1   7 555.431 926.954  19
 -10   1  -7 3096.41 960.840   4
  10  -1   7 4752.56 807.625  25
 -10   1   7 1191.62 1137.17   6
   1  10   7 3699.74 1525.16  13
  -1  10   7 2463.67 1519.55  13
 -10  -1   7 3952.20 1578.90   6
 -10   1  -7 1627.50 921.021   6
  10   1  -7 2161.34 1341.51   1
 -10  -1  -7 2836.80 1201.33   6
  10   1   7 4411.94 776.401  25
 -10  -1   7 8259.62 3144.06  11
 -10   1   7 8272.45 2976.05  11
  -1  10  -7 11250.6 5916.35  24
  10  -1   7 4651.35 1540.26  23
  -1 -10  -7 5936.96 3611.66  10
  10  -1   7 3826.67 1708.02   1
   1 -10  -7-1079.29 2086.51  10
   1  10  -7 1993.28 1054.47  22
  -1  10  -7 6631.77 2847.86  22
   1  10   7 5969.66 2594.71   3
   1  10   9-4763.17 4504.95  22
  -1  10   9 2891.87 2114.98   3
  10  -1   9 4236.80 3054.78   9
 -10  -1  -9 680.671 1811.55  21
  10  -1  -9 2100.89 1461.67   2
  10   1  -9 2780.99 1686.96   2
  10  -1  -9 3355.22 752.125   8
   1 -10  -9 882.993 1921.19  20
  10  -1   9 8238.65 3178.22  20
  10   1  -9 2636.92 714.667   8
 -10  -1   9 3859.34 2129.29  19
 -10   1   9 5132.58 2340.00  19
   1 -10   9 1332.39 1568.20  18
 -10   1  -9 2475.46 893.477   4
 -10  -1  -9 3091.04 1018.65   4
  10   1   9 4851.50 1993.50   1
   1  10  -9 2682.07 760.056  14
 -10   1   9 3741.85 1513.90   6
   1  10   9 1099.32 975.666  13
  -1  10   9 1873.36 980.477  13
  10  -1   9 1640.75 538.048  25
  10   1   9 1675.64 496.284  25
 -10  -1   9 1193.48 1280.13  11
 -10   1   9 289.976 759.831  11
   1  10  -9 6594.61 4582.58  24
  -1  10  -9 302.313 3426.38  24
  -1 -10  -9-14501.8 6724.81  10
   1 -10  -9 13510.3 6047.93  10
   1  10  -9 1654.25 1734.07  22
  -1  10  -9 1091.54 1463.53  22
   1  10   9 2967.88 2012.49   3
  10  -1 -11 7936.93 1035.63   8
  10   1 -11 8499.28 1034.55   8
 -10  -1 -11 6670.47 1316.78   7
 -10   1 -11 9391.55 1573.90   4
 -10  -1 -11 6883.73 1430.82   4
  -1  10 -11 8580.98 1045.08  14
  10  -1  11 6575.21 956.723  25
   1  10 -11 9039.47 1163.10  14
   1  10  11 5792.09 1549.06  13
  -1  10  11 5976.44 1706.72  13
  10   1  11 6877.02 990.784  25
  10  -1 -13 18441.5 1491.53   8
  10   1 -13 16870.0 1441.10   8
 -10  -1 -13 13290.7 1903.55   7
 -10   1 -13 17115.5 2144.43   4
 -10  -1 -13 14844.6 2016.23   4
  -1 -10 -13 17551.4 1867.36  17
   1  10 -13 17930.3 1568.37  14
   1  10  13 14564.3 2328.77  13
  -1  10  13 10956.1 2035.54  13
  10  -1  13 14217.3 1375.43  25
  10   1  13 13687.9 1371.79  25
  10  -1 -15 12552.0 1164.89   8
  10   1 -15 11031.0 1080.76   8
 -10   1 -15 11215.3 1610.20   4
 -10  -1 -15 12261.6 1646.01   4
  -1 -10 -15 10702.9 1386.72  17
   1 -10 -15 10987.5 1342.10  17
   1  10 -15 10478.4 1130.32  14
  10  -1  15 9435.43 1048.19  25
  10   1  15 8195.47 1021.90  25
  10  -1 -17 7148.54 796.880   8
  10   1 -17 7646.32 838.025   8
 -10   1 -17 6711.44 1147.30   4
 -10  -1 -17 6667.70 1161.76   4
  -1 -10 -17 5070.07 837.208  17
   1 -10 -17 5210.64 812.282  17
  10  -1  17 5024.20 697.241  25
  10   1  17 4961.38 696.883  25
  10  -1 -19 1104.17 291.402   8
  10   1 -19 1059.83 273.551   8
  10  -1  19 693.139 211.494  25
  10  -1 -19 878.383 242.098   7
  -1 -10 -19 670.326 252.962  17
 -10   1 -19 558.215 344.139   4
   1 -10 -19 826.459 278.379  17
 -10  -1 -19 480.330 334.591   4
  10   1  19 681.475 244.474  25
  10  -2   0 5315.74 3417.06   9
 -10  -2   0 8400.16 4463.64  21
  -2 -10   0 11288.1 3871.47  21
  -2  10   0 2746.56 2028.99   3
   2 -10   0 8327.38 4224.98  20
  10  -2   0 7229.61 2871.53  20
  10   2   0 7865.88 2891.90  20
 -10  -2   0 10918.0 3186.11  19
 -10   2   0 9353.31 2898.82  19
  10   2   0 6052.25 1967.99   2
  -2  10   0 3186.96 1259.85   6
 -10   2   0 9536.83 1872.77  16
   2  10   0 9177.49 1870.43  13
 -10   2   0 6345.97 1814.24   6
 -10   2   0 3867.20 1869.79  11
 -10  -2   0 4667.15 2178.16  11
  10   2   0 3705.03 1836.50   1
  10  -2   0 7891.68 2190.59  23
  -2 -10   0 8210.71 4215.09  10
   2  10   0 7069.07 3151.76  22
  -2  10   0 8230.59 3604.98  22
  10  -2  -2 2719.14 2155.52   9
  10  -2   2 3134.80 2467.49   9
  10   2   2-585.617 1320.18   9
 -10  -2  -2 992.121 1967.78  21
  -2  10   2 1428.94 1499.09   3
  -2 -10  -2 385.523 936.857  21
  -2 -10   2 1248.66 1513.49  21
   2 -10  -2 3031.70 1957.97  21
   2 -10  -2-132.790 2226.37  20
   2 -10   2 2243.77 2412.24  20
  10  -2  -2-317.616 718.156  20
  10  -2   2 1622.88 940.683  20
  10   2   2 1959.69 1521.19  20
  10   2  -2 2187.23 1294.60   2
 -10  -2   2 2026.88 1659.65  19
 -10   2   2 3336.39 1748.78  19
 -10  -2  -2 3091.63 1905.40  19
 -10   2  -2 1942.37 1376.33  19
  10   2   2 2981.71 1340.96   2
  -2  10   2 2006.53 1200.75   6
 -10   2   2 2596.92 1036.98  16
  10   2   2 3773.91 619.086  25
   2  10   2 799.695 558.331  13
 -10   2   2 3459.26 1395.31   6
 -10   2  -2 3880.18 1632.43   6
 -10  -2   2 2736.14 1192.77   6
  10   2  -2 4072.50 1954.44   1
 -10   2   2 2737.21 1699.12  11
 -10  -2   2 1503.28 1267.13  11
 -10  -2   2 2598.94 2164.84  10
  -2 -10   2 7342.77 3825.87  10
  10   2   2 3569.34 1979.27   1
  10  -2  -2 3388.05 1305.85  23
  -2 -10  -2 199.967 2711.15  10
  10  -2   2 2657.18 1357.57  23
   2  10  -2 3488.72 2385.23  22
  -2  10  -2 3376.22 1911.10  22
   2  10   2 364.321 1850.49  22
   2  10   2 396.347 677.444   3
  -2  10   2 140.638 1795.39  22
  -2  10   4-1179.63 2687.54  22
  10  -2  -4 972.698 1357.37   9
  10  -2   4-5035.87 3068.53   9
  10   2   4 1465.95 1228.04   1
 -10  -2  -4-7734.54 4466.10  21
  -2  10   4 767.883 1142.97   3
  -2 -10  -4-602.536 623.046  21
  -2 -10   4-4476.27 2634.39  21
   2 -10  -4-3647.05 2052.50  21
  10  -2  -4 172.048 438.608   2
   2 -10  -4-260.227 1523.49  20
   2 -10   4-2333.46 2269.49  20
  10  -2  -4-492.886 706.339  20
  10  -2   4-463.161 962.011  20
  10   2  -4-623.591 828.862   2
 -10  -2   4 1306.94 1244.73  19
 -10   2   4-191.465 872.987  19
 -10  -2  -4 114.000 641.480  19
 -10   2  -4 727.097 977.564  19
 -10   2  -4 1708.72 856.936   4
  -2  10   4 2011.78 1118.59   6
 -10   2   4-630.923 759.537  16
  10  -2   4 2444.79 1411.97   1
   2  10   4 533.025 1048.34  13
 -10   2   4 639.230 941.685   6
 -10   2  -4 69.2462 979.012   6
 -10  -2   4 1475.63 889.237   6
  -2  10  -4-108.467 1204.69  22
  10  -2   4 328.866 271.521  25
  10   2  -4 3682.02 1839.69   1
  10   2   4 332.688 267.696  25
 -10  -2   4 712.711 1561.76  11
 -10   2   4 1341.59 784.265  11
 -10  -2   4 6510.30 3522.39  10
  -2 -10   4-590.264 1653.69  10
  10  -2  -4-1579.01 971.805  23
  10  -2   4-579.492 639.010  23
  -2 -10  -4-1660.46 2663.29  10
   2  10  -4-2608.47 1891.34  22
   2  10   4-304.981 736.124   3
   2  10   4 573.032 1598.40  22
  -2  10   6 3986.10 3986.76  22
  10  -2   6-6982.42 3643.27   9
  -2  10   6 352.401 993.264   3
 -10  -2  -6 3025.64 3074.16  21
  10  -2  -6 759.719 1325.97   2
  -2 -10  -6 1649.49 1582.80  21
   2 -10  -6 482.301 800.227  21
  -2 -10   6-1184.83 1390.82  21
   2 -10  -6-4392.53 3443.31  20
   2 -10   6 2847.76 2437.93  20
  10   2  -6 2874.89 1617.43   2
  10  -2   6-1478.50 1441.16  20
  10   2   6-1634.64 1269.55   1
 -10  -2   6-2789.99 1775.07  19
 -10   2   6 230.510 1382.89  19
 -10  -2  -6-532.246 1129.60  19
 -10   2  -6 790.566 616.227   4
  -2  10   6-133.104 734.047   6
 -10   2   6-693.951 815.276   6
   2  10   6 1327.01 1061.23  13
  -2  10   6-328.111 996.642  13
 -10   2  -6 1447.22 939.404   6
 -10  -2   6 108.324 762.219   6
  10  -2   6 1088.28 446.802  25
  10   2   6 716.265 372.037  25
  10  -2   6 8.73000 432.957   1
  10   2  -6 561.345 1380.28   1
 -10  -2   6-798.521 819.816  11
 -10   2   6 1326.40 1227.26  11
  -2  10  -6 5336.64 4122.76  24
  10  -2  -6 762.619 695.987  23
  10  -2   6-293.792 500.986  23
  -2 -10  -6-1773.27 2772.62  10
   2  10  -6-2564.74 1875.69  22
   2  10   6-1374.23 1256.23   3
  -2  10  -6 1038.03 2035.32  22
   2  10   6 3191.34 3331.90  22
  10  -2   8-343.549 1249.00   9
  -2  10   8 1864.95 1811.89   3
 -10  -2  -8 3100.22 3150.00  21
  10  -2  -8 940.340 1003.87   2
  -2 -10  -8-1430.48 1484.58  21
  -2 -10   8-301.927 795.919  21
   2 -10  -8 3672.61 3275.17  20
  10   2  -8-518.842 848.321   2
  10  -2   8-849.560 1130.11  20
  10  -2  -8 48.3416 280.152   8
 -10  -2   8-4320.88 2226.76  19
 -10   2   8-4334.45 2025.07  19
  -2  10   8-779.121 931.884   6
 -10   2  -8-328.393 420.522   4
  10   2   8 2121.51 1343.91   1
  10   2   8 1104.21 1045.89   3
 -10   2   8 476.851 990.062   6
   2  10   8 1338.84 1165.14  13
  -2  10   8 1486.50 1212.81  13
  10  -2   8 456.133 341.887  25
  10   2   8 389.523 293.969  25
 -10  -2   8 902.542 1658.03  11
 -10   2   8-1446.38 1386.28  11
  -2  10  -8 3532.14 5633.69  24
  10  -2   8 215.910 440.030  23
  -2 -10  -8-3807.03 3891.74  10
   2 -10  -8 12867.5 5523.90  10
   2  10  -8 1050.80 1362.82  22
  -2  10  -8-1258.18 1351.42  22
   2  10   8-1748.24 1493.72   3
   2  10   8-5850.09 3651.65  22
   2  10  10 4926.00 1012.16   5
  10   2  10 3165.12 702.381   5
  10  -2 -10 4321.93 770.017   8
  10   2 -10 3039.18 712.338   8
  -2 -10 -10 4466.51 1018.16  17
 -10   2 -10 3531.75 1087.66   4
 -10  -2 -10 3475.48 931.550   4
 -10   2  10 4077.52 1560.24   6
   2  10 -10 3922.11 851.945  14
   2  10  10 1912.16 1117.95  13
  -2  10  10 2506.25 1200.62  13
  10  -2  10 3064.81 675.433  25
  10   2  10 3273.10 710.161  25
   2  10  12 6540.46 1161.75   5
  10   2  12 4037.95 865.027   5
  10  -2 -12 5418.34 830.482   8
  10   2 -12 4922.65 814.587   8
 -10  -2 -12 3322.47 1031.69   7
  -2 -10 -12 7267.28 1232.75  17
 -10   2 -12 5657.14 1338.07   4
 -10  -2 -12 5432.72 1197.86   4
   2  10 -12 8138.85 1123.91  14
   2  10  12 6696.12 1541.16  13
  -2  10  12 5335.86 1568.85  13
  10  -2  12 5902.07 905.559  25
  10   2  12 6065.94 930.335  25
   2  10  14 1118.88 597.053   5
  10   2  14 1850.27 620.738   5
  10  -2  14 1539.73 458.725  25
  10  -2 -14 1198.72 406.555   8
  10   2 -14 1138.86 345.952   8
 -10  -2 -14 734.787 456.715   7
  -2 -10 -14 1450.48 547.294  17
 -10   2 -14 1196.28 618.994   4
 -10  -2 -14 1238.38 684.559   4
   2  10  14 1564.99 660.682  15
   2  10 -14 1628.26 526.505  14
  10   2  14 1686.73 512.035  25
   2  10  16 1656.46 551.033   5
  10   2  16 932.888 342.401   5
  10  -2 -16 1743.50 442.591   8
  10   2 -16 1178.34 371.181   8
  -2 -10 -16 1636.37 529.118  17
 -10   2 -16 1748.48 700.257   4
   2 -10 -16 2070.40 609.232  17
 -10  -2 -16 1432.11 647.798   4
   2  10 -16 2129.44 491.828  14
  10  -2  16 1835.84 463.937  25
  10   2  16 1350.71 422.091  25
  10  -2 -18 987.220 307.092   8
  10   2 -18 1401.82 356.686   8
  -2 -10 -18 866.195 325.088  17
 -10   2 -18 935.090 452.312   4
   2 -10 -18 956.656 349.769  17
 -10  -2 -18 892.376 380.994   4
  10  -2  18 886.616 236.910  25
  10   2  18 1086.33 338.499  25
  10  -2 -20 65.4656 96.8637   8
  10   2 -20 166.895 135.301   8
 -10   2 -20 214.859 210.949   4
  10   2  20 132.862 140.062  25
  10  -3   1 12135.4 5144.89   9
 -10  -3   1 17925.8 6550.65  21
 -10  -3  -1 14478.5 5830.07  21
  -3 -10  -1 18248.5 5308.76  21
  -3 -10   1 17712.8 5047.77  21
  -3  10   1 5763.69 2515.92   3
 -10   3   1 12533.5 1811.74   4
   3 -10  -1 7487.70 4188.71  20
   3 -10   1 10427.3 4835.85  20
 -10   3  -1 12811.3 1789.55   4
  10  -3  -1 13870.2 4026.32  20
  10  -3   1 16242.6 4415.43  20
 -10  -3   1 18438.7 4167.41  19
 -10   3   1 17010.4 3694.99  19
 -10  -3  -1 17908.5 4256.26  19
 -10   3  -1 15663.4 3607.29  19
  10   3  -1 10723.6 2786.13   2
  10   3   1 9789.29 2539.51   2
  10  -3  -1 10342.5 4188.40   9
 -10   3   1 15271.0 2501.98  16
 -10   3  -1 16094.9 2625.72  16
  -3  10  -1 10734.8 2030.67   6
  -3  10   1 9072.56 2085.97   6
   3  10  -1 12257.8 2084.67  13
   3  10   1 12731.7 2227.04  13
 -10   3   1 12239.8 2530.38   6
 -10   3  -1 12107.9 2448.21   6
  10   3   1 12212.6 1282.29   5
 -10   3   1 12703.7 3586.50  11
 -10  -3   1 10310.5 3186.68  11
  10  -3  -1 14726.9 2823.01  23
  10  -3   1 13656.3 2755.24  23
 -10  -3   1 16251.2 5707.85  10
  -3 -10   1 13222.8 5663.18  10
  -3 -10  -1 17864.2 6452.32  10
  10   3  -1 14733.1 3573.52   1
   3  10  -1 13278.9 4051.89  22
   3  10   1 10868.1 3646.80  22
  -3  10  -1 12584.1 4587.76  22
  -3  10   1 15969.9 5182.73  22
  10   3   1 9292.73 3040.09   1
  10  -3  -3-1528.71 1783.24   9
  10  -3   3 2818.83 2436.05   9
   3  10   3 777.606 510.044   5
  10   3   3 585.877 405.112   5
 -10  -3  -3-1066.62 2015.09  21
  -3 -10  -3 69.4234 609.366  21
  -3  10   3-1006.69 2332.04   3
  -3 -10   3 2224.64 1924.38  21
   3 -10  -3 1240.19 1296.16  21
  10   3   3 864.590 1052.99   1
   3 -10  -3 671.375 1644.30  20
   3 -10   3-620.845 1589.90  20
  10  -3  -3-24.8806 567.422  20
  10  -3   3 1407.45 1414.38  20
  10   3  -3-464.334 741.254   2
 -10  -3   3-1804.86 1423.12  19
 -10   3   3 1938.46 1650.87  19
 -10  -3  -3-1420.22 1334.95  19
 -10   3  -3 227.496 699.386  19
 -10   3  -3 359.821 399.732   4
 -10   3   3 1603.96 690.449  16
  -3  10   3 259.056 817.277   6
 -10   3  -3 1561.35 818.404  16
   3  10   3 320.455 807.919  13
 -10   3   3 898.485 1110.90   6
 -10   3  -3-1393.53 1303.60   6
 -10  -3   3-1047.44 1226.01   6
  10   3   3 1107.50 362.558  25
 -10   3   3-151.297 596.761  11
 -10  -3   3 4894.30 2235.52  11
 -10  -3   3-4907.86 3275.23  10
  -3 -10   3 2214.51 3995.22  10
  10   3  -3 3365.26 1729.60   1
  10  -3  -3 271.935 633.186  23
  -3 -10  -3-1193.58 2464.97  10
  10  -3   3 263.606 411.684  23
   3  10  -3 6.89641 434.327   5
  10   3  -3-319.393 461.097   5
   3  10   3-392.738 693.011   3
   3  10  -3 580.725 1135.57  22
  -3  10  -3-28.0203 849.876  22
   3  10   3-3476.95 2396.67  22
  -3  10   3-757.752 2186.94  22
  -3  10   5 3235.23 2868.92  22
  10  -3   5 1550.47 1853.27   9
   3  10   5 3049.99 769.784   5
  10   3   5 1673.82 537.727   5
 -10  -3  -5 6087.35 4397.81  21
  10  -3  -5 4026.72 1655.51   2
  -3  10   5-2416.77 2065.73   3
  -3 -10  -5 2811.84 2149.02  21
  -3 -10   5 4802.12 2750.72  21
   3 -10  -5 4223.13 2126.20  21
   3 -10  -5 505.928 1563.96  20
   3 -10   5-4042.55 2923.73  20
  10  -3   5 3021.90 1871.45  20
  10   3  -5 1316.66 1179.22   2
 -10  -3   5 3626.10 2291.40  19
 -10   3   5 1964.87 949.378  19
 -10  -3  -5 747.219 863.082  19
  10   3   5-284.367 760.465   1
 -10   3  -5 2831.45 966.535   4
  -3 -10  -5 3893.83 900.042  17
  -3  10   5 321.008 825.114   6
 -10   3   5 2289.38 1348.47   6
   3  10   5 2051.35 1084.97  13
  10  -3   5 2335.11 1364.01   1
 -10   3  -5 235.001 664.780   6
 -10  -3   5 1441.60 806.446   6
  10   3   5 3898.08 712.395  25
 -10  -3   5 2449.95 1621.91  11
 -10   3   5 1378.22 1296.46  11
  -3  10  -5 4656.07 3831.33  24
 -10  -3   5 3312.63 2950.66  10
  -3 -10   5 1647.27 2481.46  10
   3  10  -5 2792.64 824.877   5
  10   3  -5 1707.05 687.203   5
  10  -3  -5 1454.01 1035.84  23
  10   3  -5 4263.35 1881.79   1
  10  -3   5 3189.88 1361.20  23
  -3 -10  -5 1312.27 2684.08  10
   3  10   5-1496.27 1239.75   3
   3  10  -5 758.888 995.081  22
  -3  10  -5 3381.56 2112.73  22
   3  10   5 2755.88 2335.52  22
  10  -3   7 66.2403 741.599   9
  10  -3  -7 54.4852 382.296   2
   3  10   7 2083.85 632.360   5
  10   3   7 953.726 448.261   5
 -10  -3  -7-241.631 2317.76  21
  -3  10   7 3270.11 2509.39   3
  -3 -10  -7 583.685 1219.40  21
  -3 -10   7 8917.61 3679.09  21
   3 -10  -7 8422.84 4645.06  20
   3 -10   7 717.573 1153.81  20
  10   3  -7 1564.59 1305.99   2
  10  -3   7 2965.08 1902.10  20
  10  -3  -7 2094.77 585.701   8
 -10  -3   7-172.784 828.500  19
 -10   3   7 843.243 972.918  19
 -10   3  -7 3320.78 975.793   4
  -3 -10  -7 3898.77 925.955  17
  -3  10   7 1381.46 1131.14   6
  10   3   7 2465.15 1489.48   1
 -10   3   7 2662.59 1451.65   6
   3  10   7 2360.98 1223.04  13
 -10  -3   7 3175.19 1321.40   6
  10  -3   7 3225.91 669.509  25
  10   3   7 3186.03 609.481  25
 -10  -3   7 5079.43 2316.57  11
 -10   3   7 4219.05 2357.59  11
  -3  10  -7-894.918 2473.38  24
  10   3   7 63.1288 478.652   3
  -3 -10   7-5285.74 3559.73  10
  10  -3  -7 1511.46 1012.52  23
  10  -3   7 1110.91 873.883  23
   3 -10   7 5430.99 1855.47  23
  -3 -10  -7-2740.40 3214.63  10
   3  10   7-760.032 1002.98   3
   3  10  -7 1488.33 1619.37  22
  -3  10  -7 5629.40 2835.44  22
   3  10   7-1114.95 1827.00  22
   3  10   9 915.882 536.771   5
  10   3   9 1632.75 618.195   5
  -3 -10  -9-3578.28 2446.32  21
  10  -3  -9 1576.72 478.066   8
  10   3  -9 848.330 437.468   8
 -10   3   9-509.780 865.907  19
 -10   3  -9 334.934 437.383   4
  -3  10   9 813.773 869.317   6
  -3 -10  -9 1252.27 687.557  17
 -10   3   9 2357.29 1199.17   6
   3  10   9 996.004 991.640  13
  -3  10   9 592.440 914.738  13
  10  -3   9 925.875 394.252  25
  10   3   9 920.547 435.136  25
  -3  10  -9 4703.72 4448.34  24
  10  -3   9-1749.71 1092.79  23
   3 -10   9-203.105 560.588  23
   3  10  11 2289.61 617.906   5
  10   3  11 702.945 477.485   5
  10  -3 -11 2387.98 582.975   8
  10   3 -11 2227.60 640.148   8
 -10  -3 -11 933.676 575.193   7
 -10   3 -11 1841.72 783.773   4
  -3 -10 -11 2596.84 745.045  17
 -10   3  11 1035.43 934.260   6
   3  10 -11 3041.57 787.178  14
   3  10  11 3383.67 1390.62  13
  10  -3  11 2022.45 532.661  25
  -3  10  11 246.376 607.673  13
  10   3  11 1964.29 514.622  25
  10  -3 -13 8578.85 1022.92   8
  10   3 -13 8721.08 1022.17   8
 -10   3 -13 9481.75 1578.58   4
 -10  -3 -13 6912.50 1290.74   7
 -10  -3 -13 8335.39 1447.35   4
  -3 -10 -13 11966.9 1574.55  17
   3  10  13 8965.49 1543.70  15
   3  10 -13 11882.0 1348.69  14
  10  -3  13 10097.7 1118.49  25
  10   3  13 10876.4 1251.03  25
   3  10  13 11019.7 1442.75   5
  10   3  13 7457.89 1089.60   5
  10  -3 -15 6990.54 861.470   8
  10   3 -15 6185.94 813.906   8
 -10   3 -15 8468.02 1400.99   4
 -10  -3 -15 6895.26 1217.30   4
  -3 -10 -15 8197.22 1233.24  17
  10  -3  15 8240.37 928.320  25
   3  10 -15 9833.65 1113.19  14
  10   3 -15 9396.45 1001.18  14
  10   3  15 8329.54 1017.83  25
   3  10  15 9474.71 1225.69   5
  10   3  15 6299.17 916.236   5
   3  10  17 2908.59 706.600   5
  10   3  17 1742.34 408.010   5
  10  -3 -17 3181.51 545.851   8
  10   3 -17 2262.69 440.103   8
  -3 -10 -17 3622.61 708.990  17
   3 -10 -17 3467.00 612.830  17
 -10   3 -17 2726.48 819.679   4
 -10  -3 -17 2944.00 708.552   4
   3  10 -17 2350.68 456.133  14
  10   3  17 2964.72 562.735  25
  10  -3 -19 776.544 211.242   8
  10   3 -19 722.664 225.171   8
  10   3  19 813.313 242.717  25
 -10   3 -19 703.094 419.634   4
   3 -10 -19 689.281 216.432  17
 -10  -3 -19 440.122 260.301   4
 -10  -4   0-3291.24 3029.26  21
  -4 -10   0 1081.27 1521.08  21
   4 -10   0 2781.04 2596.83  20
  -4  10   0 2541.27 2048.46   3
  10   4   0 1821.12 1356.66   1
  10  -4   0 1968.69 1670.55  20
   4  10   0 2602.01 1501.77   1
 -10  -4   0 670.384 1726.40  19
 -10   4   0 306.031 692.362  19
 -10   4   0 2196.04 888.082   4
  10   4   0 1011.44 976.238   2
 -10   4   0 1057.97 790.918  16
  -4  10   0 609.008 837.341   6
   4  10   0 814.082 599.404  13
 -10   4   0 2423.25 1341.74   6
 -10  -4   0-410.400 1823.35  10
  -4 -10   0 8528.34 4839.42  10
  10  -4   0 1116.88 760.857  23
   4  10   0 1648.87 586.517   5
  10   4   0 1257.56 501.706   5
   4  10   0 87.6426 1778.17  22
  -4  10   0 1595.01 1686.64  22
   4  10   2 1373.99 668.412   5
 -10  -4  -2 505.055 1367.49  21
  -4 -10  -2-446.706 1042.23  21
  -4 -10   2-2489.74 2106.03  21
   4  10   2 1749.94 1321.32   1
  10   4  -2 1340.83 1158.31   1
  -4  10   2-3623.43 2555.33   3
   4 -10  -2-2591.11 2731.19  20
   4 -10   2-3133.59 2785.62  20
  10  -4  -2 2669.91 1844.51  20
  10  -4   2 1394.54 1418.09  20
  10   4   2 1249.31 1171.13   1
 -10  -4   2 1626.95 1221.00  19
 -10   4   2 1527.17 1360.10  19
 -10  -4  -2 1508.47 1380.52  19
 -10   4  -2-108.419 628.539  19
  -4  10  -2-35.2372 518.308   4
 -10   4   2 77.3709 511.119   4
  10   4  -2 894.859 1334.39   2
 -10   4  -2 741.642 564.145   4
 -10   4   2 573.789 681.525  16
  -4  10  -2 2263.55 1067.40   6
  -4  10   2-348.532 897.597   6
 -10   4  -2 1393.80 1072.21  16
  10   4   2 1092.09 530.547   5
   4  10   2 776.372 602.268  13
 -10   4   2-271.129 1037.49   6
 -10   4  -2 1807.36 1069.63   6
 -10   4   2-98.4147 590.758  11
 -10  -4   2 720.758 3073.30  10
  -4 -10   2 8148.51 4630.61  10
 -10  -4  -2 4463.47 3192.02  10
  -4 -10  -2 2761.45 2986.33  10
  10  -4  -2 757.589 718.244  23
  10  -4   2 438.274 835.927  23
   4  10  -2 977.247 525.636   5
  10   4  -2 394.346 455.013   5
   4  10  -2 1720.07 1738.09  22
   4  10   2-217.030 1559.49  22
  -4  10  -2-2116.65 1889.40  22
  -4  10   2 2390.96 2332.54  22
  -4  10   4 474.520 1806.67  22
  10  -4   4 550.554 1271.06   9
   4  10   4 282.252 442.626   5
  10   4   4 205.691 468.005   5
 -10  -4  -4-1171.24 2183.14  21
  -4 -10  -4 379.267 1039.37  21
  -4 -10   4-5380.55 2990.76  21
   4 -10  -4 712.773 889.647  21
  10   4  -4 4423.55 1952.17   1
  -4  10   4-1816.16 1962.63   3
   4 -10  -4-3535.77 3132.90  20
   4 -10   4 5382.85 3383.77  20
  10  -4  -4-242.114 678.882  20
  10  -4   4 1423.44 1414.61  20
  10   4  -4 372.092 780.786   2
 -10  -4   4 558.793 1031.33  19
 -10   4   4 82.2489 569.654  19
 -10  -4  -4 92.6388 746.378  19
 -10   4  -4 2049.03 1434.61  19
  -4  10  -4 1418.82 978.291   4
   4  10   4-1493.93 1348.51   1
 -10   4  -4-312.336 727.817   4
  10   4   4 2126.65 1462.42   1
  10   4   4 247.612 297.849  25
  -4  10   4 241.341 895.337   6
 -10   4  -4-262.308 669.723  16
  10   4   4 158.904 605.456   3
 -10   4   4 532.798 787.245   6
   4  10   4 52.1824 881.508  13
 -10   4  -4-1514.00 1070.49   6
 -10  -4   4 1827.08 1183.72   6
 -10   4   4 959.484 1783.49  11
 -10  -4   4-7437.32 4282.11  10
  -4 -10   4 1492.21 4820.79  10
  10  -4  -4-876.202 797.928  23
  -4 -10  -4-4433.22 3993.05  10
  10  -4   4 657.677 583.988  23
   4 -10   4 268.119 536.701  23
   4  10  -4 1063.01 616.469   5
  10   4  -4 623.949 433.150   5
   4  10   4 1537.81 1173.60   3
   4  10  -4-1877.37 1695.67  22
  -4  10  -4 952.407 1713.90  22
   4  10   4-1234.18 1758.10  22
  -4  10   6 3824.45 3470.93  22
  10  -4   6 1712.28 1919.48   9
   4  10   6 5824.95 1106.54   5
  10   4   6 4080.40 870.344   5
 -10  -4  -6 3391.63 3219.34  21
  -4 -10  -6 1641.05 1737.81  21
  -4 -10   6 3469.25 2390.49  21
  -4  10   6 889.902 1493.21   3
  10  -4  -6 4167.92 755.266   8
   4 -10  -6-1838.92 2452.80  20
   4 -10   6-2498.29 2259.81  20
  10  -4   6 4119.31 2298.05  20
   4  10   6 4379.75 2259.40   1
  10   4  -6 4725.31 2193.18   2
 -10  -4   6 3248.26 1989.48  19
 -10   4   6 109.475 588.945  19
  -4  10  -6 5452.00 1444.01   4
 -10   4  -6 6050.60 1421.73   4
  -4 -10  -6 3490.95 818.353  17
  -4  10   6 4657.85 1661.98   6
 -10   4  -6 3345.84 1389.98  16
  10   4   6 4730.15 2158.09   1
 -10   4   6 3877.69 1874.77   6
   4  10   6 2818.47 1254.74  13
  10  -4   6 3145.80 1550.76   1
 -10  -4   6 3501.86 1440.48   6
  10   4   6 2735.41 625.841  25
 -10   4   6 4618.47 2649.95  11
  -4  10  -6 478.681 1954.40  24
  10   4   6 2854.15 1802.54   3
 -10  -4   6-5948.79 4231.70  10
  -4 -10   6 9101.11 4854.13  10
   4  10  -6 5337.73 999.701   5
  10   4  -6 5366.71 968.001   5
  10  -4  -6 1903.76 1197.50  23
  10  -4   6 933.922 492.624  23
   4 -10   6 3810.48 1405.36  23
  -4 -10  -6 4668.60 4055.56  10
   4  10   6 6038.73 2460.66   3
   4  10  -6 288.720 1101.63  22
  -4  10  -6 12117.4 3882.96  22
   4  10   8 5561.80 1036.14   5
  10   4   8 2796.46 741.855   5
 -10  -4  -8 284.535 1605.10  21
  -4 -10  -8 8659.66 3995.23  21
  10  -4  -8 4128.66 760.174   8
   4 -10  -8 1263.41 1988.95  20
  10  -4   8 2896.99 1977.83  20
 -10  -4   8 2125.04 1767.37  19
 -10   4  -8 4097.18 1207.75   4
  -4 -10  -8 3191.51 881.174  17
  -4  10   8 2614.29 1357.87   6
 -10   4  -8 4237.87 1317.61  16
 -10   4   8 2909.23 1492.10   6
   4  10   8 4101.62 1504.29  13
  10   4   8 3306.66 722.864  25
  -4  10  -8 8978.95 5694.26  24
  10  -4  -8 1694.82 1119.75  23
  10  -4   8 2344.20 1258.35  23
   4 -10   8 5074.47 1859.17  23
   4  10  -8 3870.05 2231.87  22
   4  10  10-62.6794 718.573   5
  10   4  10 1336.97 663.402   5
  10  -4 -10 708.327 415.855   8
  10   4 -10 902.789 439.957   8
 -10   4 -10 1307.27 773.846   4
  -4 -10 -10 364.657 452.171  17
  -4  10  10-254.606 871.882   6
 -10   4 -10 802.307 790.410  16
 -10   4  10-122.250 946.021   6
  -4  10  10-204.373 707.850  13
  10  -4  10 76.0996 207.584  25
  10   4  10 156.368 224.172  25
   4  10  12 1213.77 502.769   5
  10   4  12 1111.34 484.555   5
  10  -4 -12 705.597 315.083   8
  10   4 -12 1275.46 444.525   8
 -10   4 -12 1044.70 623.862   4
  -4 -10 -12 447.392 377.451  17
   4  10  12 795.160 578.183  15
   4  10 -12 733.821 505.665  14
  -4  10  12 546.076 757.162  13
  10  -4  12 330.306 227.965  25
  10   4  12 867.764 420.913  25
   4  10  14-1375.84 676.970   5
  10   4  14-200.518 415.436   5
  10  -4 -14 191.721 199.106   8
  10   4 -14-402.912 305.383   8
 -10   4 -14 450.501 451.799   4
  -4 -10 -14 260.728 357.764  17
   4  10  14-484.155 535.699  15
   4  10 -14-36.2358 300.837  14
  10   4 -14 420.740 498.438  14
  10   4  14 342.925 321.693  25
   4  10  16 493.794 463.958   5
  10   4  16-127.180 384.059   5
  10  -4 -16 563.527 275.960   8
  10   4 -16 253.750 238.110   8
   4 -10 -16-107.842 177.856   7
 -10   4 -16-505.687 613.280   4
  -4 -10 -16-17.3530 284.852  17
 -10  -4 -16-367.075 492.073   4
   4  10 -16 132.791 220.151  14
  10   4 -16-195.590 188.869  14
  10   4  16 78.4447 193.464  25
   4  10  18 647.152 327.371   5
  10   4  18-52.1303 282.133   5
  10  -4 -18 736.883 236.643   8
  10   4 -18 1131.09 267.372   8
 -10   4 -18 1065.72 502.392   4
   4 -10 -18 711.079 241.795  17
  10   4  18 340.966 226.978  25
 -10  -5  -1 47117.8 10606.9  21
  -5 -10  -1 48598.0 9476.05  21
  -5 -10   1 47182.2 9186.31  21
 -10  -5   1 38120.4 9758.61  21
  10  -5  -1 32652.5 6651.93  20
  10  -5   1 33813.7 6909.31  20
  -5  10  -1 25081.5 2817.63   4
 -10   5   1 39308.2 3390.73   4
 -10   5  -1 46885.4 3652.40   4
   5 -10  -1 28143.1 8165.34  20
   5 -10   1 25303.4 7922.01  20
  -5  10   1 25376.0 6741.35   3
   5  10  -1 49195.2 2804.08   5
  -5  10  -1 29095.6 7079.18   3
 -10  -5   1 49410.3 7652.48  19
 -10  -5  -1 44192.5 7117.85  19
  -5  10  -1 31868.1 3646.39   6
  -5  10   1 38654.7 4114.05   6
   5  10   1 37209.8 5710.18   1
 -10   5   1 50876.5 5093.61   6
 -10   5  -1 47381.3 4829.04   6
   5  10  -1 38411.0 5655.80   1
 -10   5   1 33588.1 3869.36  16
 -10   5  -1 36039.5 4176.30  16
   5  10  -1 40572.1 3398.00  15
   5  10   1 36047.3 3333.13  15
  10   5   1 35021.2 5289.44   3
   5  10  -1 44120.3 4056.55  13
   5  10   1 43083.6 4083.00  13
  10   5  -1 31159.5 5304.16   2
  10   5  -1 40649.5 6132.50   1
 -10   5   1 32962.8 6197.17  11
  10   5   1 40153.1 6168.15   1
  10   5  -1 47796.5 2656.68   5
   5  10   1 48940.9 2872.46   5
  10   5   1 42981.8 2569.37   5
  10  -5  -1 35522.5 4639.11  23
  10  -5   1 37586.9 4796.13  23
 -10  -5   1 43242.1 10687.0  10
 -10  -5  -1 40589.4 9434.19  10
  -5 -10   1 39034.3 10254.7  10
  -5 -10  -1 25334.4 8697.85  10
   5  10  -1 36102.8 6319.00  22
   5  10   1 33010.2 6119.33  22
  -5  10  -1 36910.7 7408.30  22
  -5  10   1 32917.7 7254.52  22
 -10  -5  -3 4396.66 3493.93  21
  -5 -10  -3 5696.26 3251.25  21
  -5 -10   3 13165.0 4791.45  21
   5 -10  -3 11896.5 3659.22  21
 -10   5   3 2400.20 871.017   4
  -5  10  -3 7836.15 1676.43   4
  -5  10   3 714.339 1568.69   3
   5 -10  -3 8578.96 4636.37  20
   5 -10   3 1324.40 1904.52  20
 -10   5  -3 9088.42 1684.51   4
  10  -5  -3 8290.60 3280.70  20
  10  -5   3 5181.80 2695.26  20
 -10  -5   3 11748.6 3750.55  19
 -10  -5  -3 8397.89 3401.16  19
  10   5  -3 4308.51 2198.56   2
  10   5  -3 10608.9 3027.37   1
   5  10   3 5578.24 2316.74   1
 -10   5  -3 4952.83 1668.71  16
  -5  10   3 5578.45 2080.74   6
   5  10  -3 8723.57 1538.31  15
   5  10  -3 9756.48 1263.37   5
  10   5   3 8814.32 2916.00   1
 -10   5   3 9698.94 2420.51   6
 -10   5  -3 9068.58 2138.54   6
   5  10   3 9525.72 2101.84  13
  10   5  -3 10082.9 1324.83   5
 -10   5   3 6657.92 2721.07  11
   5  10   3 12710.5 1464.55   5
  10   5   3 9105.94 1281.18   5
  10   5   3 6483.37 2554.11   3
 -10  -5   3 6481.21 4249.09  10
  -5 -10   3 8993.89 6256.69  10
 -10  -5  -3 1699.58 2545.61  10
  -5 -10  -3-3997.02 3964.93  10
  10  -5  -3 6248.22 1992.29  23
  10  -5   3 8121.07 2265.32  23
   5 -10   3 8439.33 2196.22  23
   5  10  -3 7151.24 2913.28  22
  -5  10  -3 12656.8 3959.02  22
  -5  10   3 5203.97 3630.21  22
  -5  10   5 23216.4 7360.39  22
 -10  -5  -5 22364.0 8551.75  21
  -5 -10  -5 25029.3 6783.10  21
  -5 -10   5 31969.1 7362.38  21
  -5  10   5 15364.8 5629.18   3
  -5  10  -5 22079.2 2722.50   4
   5 -10  -5 18438.6 6650.42  20
   5 -10   5 19687.1 5844.00  20
 -10   5  -5 25456.5 2699.53   4
  10  -5   5 20541.9 5296.85  20
 -10  -5   5 26984.9 5616.30  19
  10   5  -5 19263.6 4284.59   2
 -10  -5  -5 20787.9 5145.52  19
  10  -5   5 15911.4 3429.09   1
  -5  10   5 17342.0 3228.09   6
  -5 -10  -5 30576.6 2512.10  17
 -10   5   5 25951.2 3790.72   6
 -10   5  -5 23720.7 3225.95   6
 -10  -5   5 24718.0 3367.36   6
 -10   5  -5 21477.9 3038.72  16
   5  10   5 23394.7 5135.08   1
  10   5   5 22244.8 4668.02   3
  10   5   5 25582.1 1750.28  25
   5  10   5 23886.5 3252.44  13
 -10   5   5 26921.5 5583.15  11
   5  10  -5 30795.7 2215.10   5
  10   5  -5 26715.4 2032.05   5
  -5  10  -5 16698.8 7085.23  24
   5  10   5 28890.6 2323.61   5
  10   5   5 25459.8 1989.94   5
  10  -5  -5 20486.0 3609.80  23
 -10  -5   5 22367.6 7635.32  10
  10  -5   5 18992.6 3430.63  23
   5 -10   5 19866.7 3468.64  23
  -5 -10   5 25743.7 8699.46  10
  10   5   5 26355.5 5002.27   1
  -5 -10  -5 9683.98 5900.54  10
   5  10   5 23216.1 4586.27   3
   5  10  -5 20502.1 4538.34  22
  10  -5   5 20288.2 6543.29   9
 -10  -5  -7 10812.3 5807.53  21
  -5 -10  -7 17901.8 5982.99  21
  -5  10  -7 29397.8 2982.56   4
   5 -10  -7 17007.2 6203.69  20
   5 -10   7 12910.3 4613.12  20
 -10   5  -7 32821.0 3139.35   4
  -5  10   7 19422.0 3283.68   6
  -5 -10  -7 30191.5 2620.43  17
 -10   5   7 26377.9 3673.30   6
 -10   5  -7 22771.3 3110.56  16
  10   5   7 27824.6 1872.00  25
  -5  10  -7 6784.54 4945.00  24
   5  10   7 33014.5 2516.23   5
  10   5   7 24888.1 2076.62   5
  10  -5  -7 19287.5 3511.42  23
  10  -5   7 18009.5 3478.21  23
   5 -10   7 22964.4 3880.45  23
   5  10  -7 23191.3 5042.23  22
   5  10   9 5415.06 1149.33   5
  10   5   9 4981.94 961.975   5
  10   5  -9 5934.46 878.879   8
  -5  10  -9 3702.72 1175.02   4
 -10   5  -9 6109.49 1343.74   4
  -5 -10  -9 5349.60 1125.64  17
  -5  10   9 3475.98 1387.21   6
 -10   5  -9 3390.59 1210.62  16
   5  10   9 3262.82 1111.61  15
 -10   5   9 3313.19 1426.24   6
  -5  10   9 1756.68 1085.35  13
  10   5   9 5233.27 829.797  25
  10  -5 -11 12245.2 1161.84   8
  10   5 -11 12100.0 1159.09   8
  -5  10 -11 9752.94 1657.85   4
 -10   5 -11 12382.2 1935.62   4
 -10   5  11 10807.9 2156.85   6
  -5 -10 -11 14007.9 1810.87  17
  -5  10  11 7038.82 1872.14   6
   5  10  11 9022.96 1687.99  15
  -5  10  11 7727.74 1924.31  13
  10   5  11 11724.9 1261.02  25
   5  10  11 13699.8 1715.41   5
  10   5  11 11495.2 1484.05   5
  10  -5 -13 21905.5 1430.99   8
  10   5 -13 18901.7 1360.96   8
 -10   5 -13 18956.8 2271.83   4
  -5 -10 -13 20769.8 2083.00  17
   5  10  13 14777.8 1908.07  15
   5  10 -13 24305.3 1958.06  14
  10   5  13 17304.0 1517.49  25
   5  10  13 25518.5 2226.30   5
  10   5  13 20998.9 1811.68   5
  10  -5 -15 11248.5 946.986   8
  10   5 -15 11514.5 940.097   8
 -10   5 -15 11917.5 1660.50   4
  -5 -10 -15 10140.8 1382.09  17
   5  10 -15 10992.6 1156.65  14
  10   5 -15 11252.8 1150.90  14
  10   5  15 9568.77 1034.06  25
   5  10  15 11853.4 1451.96   5
  10   5  15 11153.1 1260.70   5
  10  -5 -17 5379.79 565.615   8
  10   5 -17 7983.04 651.187   8
 -10   5 -17 6597.23 1078.37   4
   5 -10 -17 4554.11 599.150   7
   5 -10 -17 5965.81 718.535  17
   5  10 -17 6396.32 725.675  14
  10   5 -17 5849.52 625.728  14
  10   5  17 6722.67 753.572  25
   5  10  17 8825.81 1039.80   5
  10   5  17 6626.75 814.556   5
 -10   5 -19 5073.70 753.525   4
  10   5  19 6510.62 561.885  25
  -6 -10   0 44631.1 9611.68  21
 -10  -6   0 32819.5 8962.31  21
  10  -6   0 31506.9 6853.60  20
  -6  10   0 10120.9 2132.67   4
 -10   6   0 29922.5 3131.41   4
   6 -10   0 18289.8 6137.02  20
  -6  10   0 25579.3 7274.05   3
 -10  -6   0 37386.6 6807.92  19
   6  10   0 25281.6 4934.35   1
  -6  10   0 27060.3 3617.35   6
 -10   6   0 36454.6 4393.72   6
 -10   6   0 26511.2 3480.70  16
   6  10   0 34233.8 3238.54  15
   6  10   0 36805.6 2569.96   5
  10   6   0 32453.6 2363.27   5
  10   6   0 33929.4 5710.83   1
  10  -6   0 29365.3 4237.16  23
   6 -10   0 28036.0 3940.27  23
 -10  -6   0 37437.4 9761.42  10
  -6 -10   0 23183.9 8588.48  10
  -6  10   0 30994.6 7024.03  22
 -10  -6  -2 5580.01 3910.15  21
  -6 -10  -2 13239.3 5706.21  21
  -6 -10   2 13119.8 5085.70  21
  -6  10  -2 8707.80 1883.18   4
 -10   6  -2 15178.7 2209.18   4
   6 -10  -2 9531.40 4759.33  20
   6 -10   2 10516.6 4722.27  20
  10  -6  -2 12361.3 4222.09  20
  10  -6   2 11480.1 4208.61  20
  -6  10   2-4169.79 3124.71   3
 -10  -6   2 18653.9 5025.79  19
 -10   6   2 4677.44 1079.97   4
 -10  -6  -2 17205.0 4435.31  19
  10   6  -2 12821.2 3442.76   2
 -10   6  -2 10076.8 2214.53  16
  -6  10  -2 9188.19 2154.94   6
  -6  10   2 11589.1 2732.96   6
   6  10  -2 13543.3 1988.54  15
   6  10   2 11858.8 2022.00  15
 -10   6   2 14672.6 2995.83   6
 -10   6  -2 12980.8 2630.24   6
  10   6  -2 12477.9 3355.98   1
   6  10   2 8681.90 2925.74   1
  10   6   2 12459.8 3523.03   1
   6  10  -2 16405.3 1736.57   5
  10   6  -2 14723.1 1583.54   5
   6  10   2 15417.4 1700.87   5
  10   6   2 14866.4 1631.90   5
 -10   6   2 7317.82 2909.53  11
  10   6   2 9031.99 2693.16   3
  10  -6   2 12869.5 2919.49  23
 -10  -6   2 18649.6 7544.38  10
  -6 -10   2 16555.1 7764.45  10
 -10  -6  -2 21162.9 7790.37  10
  -6 -10  -2 14264.3 6974.21  10
  10  -6  -2 10732.1 2667.85  23
   6 -10   2 9887.53 2509.93  23
   6  10  -2 9392.08 3007.39  22
  -6  10   2 11347.9 4525.66  22
 -10  -6  -4 16825.2 6845.86  21
  -6 -10  -4 31209.3 8113.27  21
  -6 -10   4 28833.5 7371.77  21
  -6  10  -4 26262.6 2971.91   4
   6 -10  -4 17579.5 6292.14  20
 -10   6  -4 26879.4 2888.83   4
  -6  10   4 14019.7 5671.15   3
   6 -10   4 12346.4 4934.96  20
  10  -6  -4 21154.5 5238.10  20
  10  -6   4 22216.6 5531.83  20
 -10  -6   4 34046.2 6483.94  19
 -10  -6  -4 24317.5 5521.50  19
  10   6  -4 22085.0 4356.05   2
  -6  10   4 25269.8 3594.02   6
 -10   6   4 30177.6 4144.83   6
 -10   6  -4 23552.4 3221.22   6
 -10   6  -4 21944.4 3165.90  16
   6  10   4 25483.1 2956.15  15
   6  10  -4 32345.2 2357.93   5
  10   6  -4 29742.5 2221.50   5
 -10   6   4 23518.5 5242.15  11
   6  10   4 33103.5 2490.17   5
  10   6   4 28057.3 2216.94   5
  10   6   4 18032.2 3974.90   3
  10  -6  -4 21302.9 3656.95  23
  10  -6   4 20168.7 3654.99  23
   6 -10   4 24602.5 3959.60  23
 -10  -6   4 25549.2 8757.44  10
  -6 -10   4 25906.2 9009.75  10
 -10  -6  -4 16382.4 6692.26  10
  -6 -10  -4 9601.20 5961.04  10
   6  10   4 19181.5 4766.82   1
  10   6   4 29975.3 5489.05   1
   6  10  -4 20366.1 4802.25  22
  -6  10   4 14950.9 5456.50  22
  -6  10  -6 26073.0 2903.51   4
 -10   6  -6 26676.3 2898.68   4
  -6  10   6 17511.0 3208.23   6
  -6 -10  -6 30920.2 2655.27  17
 -10   6   6 25546.6 3796.27   6
 -10   6  -6 18101.5 2792.54  16
   6  10   6 23110.4 2848.71  15
   6  10  -6 30029.7 2253.00   5
  10   6  -6 28595.3 2174.17   5
   6  10   6 30284.0 2382.33   5
  10   6   6 26730.7 2169.39   5
  10   6  -8 7638.16 1027.91   8
  -6  10  -8 9730.35 1865.15   4
 -10   6  -8 9841.95 1818.89   4
  -6 -10  -8 10986.9 1638.98  17
 -10   6  -8 5366.76 1563.35  16
  -6  10   8 6772.72 2142.63   6
   6  10   8 8479.17 1712.12  15
 -10   6   8 7866.42 2075.62   6
  10   6   8 8636.46 1056.13  25
   6  10   8 11081.8 1584.55   5
  10   6   8 8820.62 1271.69   5
  10   6 -10 9533.82 1018.11   8
  -6  10 -10 7996.93 1652.04   4
 -10   6 -10 8958.56 1755.83   4
  -6 -10 -10 9832.27 1582.37  17
  -6  10  10 6306.64 1977.73   6
 -10   6  10 8176.55 1990.38   6
   6  10  10 7307.43 1567.32  15
  -6  10  10 4778.69 1762.09  13
  10   6  10 8209.56 1072.25  25
   6  10  10 11636.8 1548.56   5
  10   6  10 10927.5 1446.79   5
  10   6 -12 15090.8 1186.68   8
  -6  10 -12 11326.8 1735.55   4
 -10   6 -12 18545.7 2315.71   4
  -6  10  12 14528.1 2364.97   6
  -6 -10 -12 19745.3 2105.45  17
 -10   6  12 12739.4 2120.71   6
   6  10  12 17296.3 2141.88  15
   6  10 -12 23198.6 2032.31  14
  10   6  12 17320.4 1476.58  25
   6  10  12 22237.5 2052.58   5
  10   6  12 19448.1 1799.49   5
  10   6 -14 11700.3 934.439   8
 -10   6 -14 11534.9 1760.56   4
  -6 -10 -14 11051.5 1493.36  17
   6  10 -14 12960.3 1310.86  14
  10   6 -14 13927.0 1407.73  14
  10   6  14 11157.9 1143.77  25
   6  10  14 12804.5 1482.90   5
  10   6  14 10174.1 1270.81   5
  10   6 -16 9715.16 705.009   8
 -10   6 -16 9662.40 1334.92   4
   6 -10 -16 6929.57 746.784   7
   6  10 -16 11112.2 993.521  14
  10   6 -16 10220.9 913.670  14
  10   6  16 9668.04 922.507  25
   6  10  16 13088.7 1318.59   5
  10   6  16 9953.49 1067.80   5
 -10   6 -18 4409.17 737.980   4
  10   6  18 5228.37 546.315  25
   6  10  18 6315.39 740.061   5
  10   6  18 5602.57 654.825   5
 -10  -7  -1-1369.96 2123.90  21
  -7 -10  -1-9190.64 4732.15  21
  -7 -10   1 8816.09 4613.70  21
  10  -7  -1-7643.65 3463.67  20
  -7  10  -1-367.017 680.034   4
 -10   7   1 476.128 617.902   4
 -10   7  -1 90.2892 665.107   4
  -7  10  -1-481.900 1038.22   6
  -7  10   1-999.099 1344.85   6
   7  10  -1-151.459 546.149  15
   7  10   1 135.166 629.887  15
 -10   7   1 545.058 1015.83   6
 -10   7  -1-1199.96 1270.27   6
  10  -7  -1 255.763 542.852  23
  10  -7   1 604.548 603.520  23
   7 -10   1-707.876 762.885  23
   7  10  -1-653.642 636.980   5
  10   7  -1-287.954 553.631   5
   7  10   1-182.979 523.201   5
  10   7   1-179.589 589.813   5
  -7  10  -3 4653.89 1466.70   4
 -10   7  -3 6345.57 1595.03   4
  -7  10  -3 5963.79 1640.45   6
   7  10  -3 9491.98 1622.43  15
  -7  10   3 3105.45 1523.28   6
   7  10   3 5809.64 1458.92  15
 -10   7   3 7011.62 2355.28   6
 -10   7  -3 4215.84 1477.69   6
  10   7   3 7471.66 1269.86   5
   7  10  -3 6416.96 1121.08   5
  10   7  -3 6352.93 1088.04   5
   7  10   3 7363.08 1273.20   5
   7  10   5 5641.11 1222.22   5
  -7  10  -5 3287.19 1303.50   4
 -10   7  -5 5607.43 1467.85   4
 -10   7  -5 3504.87 1221.59  16
  -7  10   5 4647.86 1902.26   6
   7  10   5 4870.97 1466.19  15
 -10   7   5 6189.85 2058.08   6
  10   7   5 6113.05 1210.54   5
   7  10  -5 5854.00 1114.15   5
  10   7  -5 5300.53 1013.78   5
   7  10   7 4001.17 1048.28   5
  10   7   7 4916.91 1094.40   5
  10   7  -7 4040.92 738.149   8
  -7  10  -7 4978.00 1332.85   4
 -10   7  -7 4606.47 1360.37   4
  -7 -10  -7 3638.05 982.054  17
 -10   7  -7 2380.76 959.986  16
  -7  10   7 2634.30 1509.44   6
   7  10   7 2158.69 821.180  15
 -10   7   7 3645.91 1760.26   6
   7  10   9 3329.02 936.049   5
  10   7   9 3805.75 958.253   5
  10   7  -9 3119.63 617.495   8
  -7  10  -9 3424.06 1162.09   4
 -10   7  -9 2677.49 1146.40   4
  -7 -10  -9 3390.73 933.155  17
  -7  10   9 3193.81 1442.96   6
 -10   7   9 3606.23 1560.33   6
   7  10   9 3364.34 1104.11  15
  10   7   9 2906.61 606.007  25
   7  10  11 2297.29 849.756   5
  10   7  11 1702.72 769.653   5
  10   7 -11 1194.74 386.836   8
  -7  10 -11 300.589 644.253   4
 -10   7 -11 879.106 792.493   4
  -7  10  11 1258.75 909.667   6
 -10   7  11 950.040 890.749   6
   7  10  11 453.812 496.331  15
  -7  10  11-16.9948 530.000  13
  10   7  11 427.248 251.942  25
   7  10  13 199.876 534.192   5
  10   7  13-160.733 432.499   5
  10   7 -13-138.468 230.114   8
  -7  10 -13 522.159 373.363   4
 -10   7 -13-496.940 615.557   4
   7  10 -13-69.3657 286.421  14
  10   7  13 48.4613 213.527  25
   7  10  15-103.887 379.432   5
  10   7  15-311.613 362.103   5
  -7  10 -15 353.559 424.184   4
 -10   7 -15 732.019 519.830   4
   7  10 -15 629.721 345.560  14
  10   7 -15 700.661 300.153  14
  10   7  15 94.2124 153.250  25
   7  10  17 1148.69 393.667   5
  10   7  17 992.919 363.054   5
 -10   7 -17 1111.22 425.198   4
   7 -10 -17 652.558 192.321  17
   7  10 -17 571.613 208.788  14
  10   7 -17 372.948 171.867  14
  10   7  17 693.695 222.354  25
  -8  10   0 1709.63 931.875   4
 -10   8   0 4093.42 1474.15   4
   8  10   0 13773.9 2093.21  15
  -8  10   0 6136.40 1947.49   6
 -10   8   0 10345.5 2465.62   6
   8  10   0 11740.0 1548.37   5
  10   8   0 11131.3 1477.36   5
  -8  10  -2-370.948 668.743   4
 -10   8  -2-126.078 695.768   4
  -8  10  -2-1157.40 1312.51   6
  -8  10   2-767.413 1267.60   6
   8  10   2 926.117 747.484  15
 -10   8   2-992.033 1131.57   6
 -10   8  -2 1467.97 998.637   6
   8  10  -2 13.0882 524.621   5
  10   8  -2-74.2781 486.671   5
   8  10   2 346.452 500.196   5
  10   8   2 395.199 618.079   5
  -8  10  -4 269.194 746.784   4
 -10   8  -4 1430.03 936.285   4
  -8  10   4 1124.14 1287.37   6
   8  10   4 1424.47 913.845  15
 -10   8  -4 1388.14 665.054   6
 -10   8   4 2104.92 1385.37   6
   8  10  -4 1978.24 786.591   5
  10   8  -4 1131.17 664.006   5
   8  10   4 1821.88 706.680   5
  10   8   4 1787.37 713.993   5
   8  10   6 1955.44 824.041   5
  10   8   6 1439.41 657.572   5
  10   8  -6 908.221 377.575   8
  -8  10  -6 2096.53 1065.35   4
 -10   8  -6 173.677 790.859   4
  -8  10   6 2275.14 1488.83   6
   8  10   6 1785.54 848.156  15
 -10   8   6 2194.37 1413.93   6
   8  10  -6 1509.63 614.035   5
  10   8  -6 1697.47 739.529   5
   8  10   8 404.339 493.654   5
  10   8   8 725.091 675.673   5
  -8  10  -8 545.634 576.910   4
 -10   8  -8 480.445 625.907   4
  -8  10   8-220.239 1040.71   6
 -10   8   8 1197.61 1117.17   6
   8  10   8 721.600 801.239  15
   8  10  10 196.213 499.759   5
  10   8  10-198.454 506.949   5
  -8  10 -10-647.148 663.632   4
 -10   8 -10-741.261 798.464   4
  -8  10  10-108.217 817.620   6
 -10   8  10-193.407 712.580   6
   8  10  10 48.4753 520.918  15
  -8  10  10 1417.75 903.525  13
   8  10  12 5810.03 1055.99   5
  10   8  12 5684.74 992.604   5
  -8  10 -12 3916.18 1053.88   4
 -10   8 -12 4156.22 1166.24   4
  -8  10  12 3919.66 1290.87   6
 -10   8  12 3094.96 1119.50   6
   8  10 -12 9314.51 1232.97  14
  10   8  12 7473.06 846.185  25
   8  10  14 2533.44 709.335   5
  10   8  14 2730.74 663.050   5
  -8  10 -14 1528.33 705.090   4
 -10   8 -14 1727.88 671.835   4
   8  10 -14 2890.72 581.999  14
  10   8 -14 3260.86 633.178  14
  10   8  14 2620.40 467.933  25
   8  10  16 1369.89 423.728   5
  10   8  16 236.498 250.074   5
 -10   8 -16 442.028 344.735   4
   8  10 -16 1523.87 334.143  14
  10   8 -16 1287.03 311.057  14
  -9  10  -1-1475.45 1124.09   4
 -10   9  -1-1085.66 1004.27   4
  -9  10  -1 477.189 834.729   6
  -9  10   1 2.76022 1057.40   6
 -10   9  -1 1278.99 1149.77   6
 -10   9   1 577.943 1042.15   6
   9  10  -1-121.112 548.651   5
  10   9  -1 962.052 603.101   5
   9  10   1-268.207 501.312   5
  10   9   1 648.767 522.874   5
  -9  10  -3 300.140 670.556   4
 -10   9  -3 550.590 797.234   4
  -9  10  -3 1141.75 955.934   6
   9  10   3 2414.30 905.372  15
  -9  10   3-169.885 1109.16   6
 -10   9  -3 2328.60 1237.00   6
 -10   9   3 2546.32 1648.51   6
   9  10  -3 629.780 599.456   5
  10   9  -3 1876.12 808.276   5
   9  10   3 934.616 516.553   5
  10   9   3 1492.32 623.958   5
  -9  10  -5 1196.66 881.541   4
 -10   9  -5 246.553 820.197   4
  -9  10   5 36.9852 1055.20   6
   9  10   5 333.791 494.349  15
 -10   9   5-901.323 960.473   6
   9  10  -5 712.974 566.251   5
  10   9  -5 373.080 649.560   5
   9  10   5 85.0278 494.855   5
  10   9   5 16.3713 517.558   5
   9  10   7 98.4043 575.603   5
  10   9   7-188.223 506.387   5
  -9  10  -7 1298.72 1000.69   4
 -10   9  -7 326.585 873.891   4
  -9  10   7-279.779 910.978   6
   9  10   7 8.62148 554.354  15
 -10   9   7 2.70843 855.397   6
   9  10   9 585.156 634.430   5
  10   9   9 595.386 571.117   5
  -9  10  -9 333.163 557.965   4
 -10   9  -9-310.820 651.352   4
  -9  10   9-990.613 1168.77   6
 -10   9   9 1275.43 1056.75   6
   9  10  11 1199.32 600.788   5
  10   9  11 1019.39 627.133   5
  -9  10 -11 909.789 659.850   4
 -10   9 -11 799.141 604.750   4
  -9  10  11 998.185 935.610   6
 -10   9  11-897.983 734.582   6
   9  10  13-141.962 352.557   5
  10   9  13-241.717 417.042   5
  -9  10 -13 361.058 425.038   4
 -10   9 -13 140.515 357.676   4
 -10   9  13-1125.20 651.716   6
   9  10 -13 956.446 380.562  14
  10   9 -13 1187.24 459.441  14
   9  10  15 142.058 284.343   5
  10   9  15 166.243 247.553   5
 -10   9 -15-92.2560 289.677   4
   9  10 -15 355.427 206.010  14
  10   9 -15 598.641 240.360  14
 -10  10   0 36108.0 4079.50   6
  10  10   0 47611.9 2980.22   5
 -10  10  -2-444.338 708.793   4
 -10  10  -2 535.735 708.327   6
 -10  10   2 4284.61 1711.93   6
  10  10  -2 3592.92 944.181   5
  10  10   2 4448.27 1001.32   5
 -10  10  -4-157.964 669.930   4
 -10  10   4 578.387 1086.98   6
  10  10  -4 660.526 574.529   5
  10  10   4 687.835 550.443   5
 -10  10  -6 1758.76 1071.55   4
 -10  10   6 3436.95 1413.64   6
  10  10   6 4782.10 995.248   5
 -10  10  -8 1148.26 632.650   4
 -10  10   8 769.554 970.519   6
  10  10   8 1669.11 637.889   5
  10  10  10 1345.03 593.214   5
 -10  10 -10 1837.95 766.120   4
 -10  10  10 1241.52 933.363   6
 -10  10 -12 4744.67 1002.31   4
 -10  10  12 4786.20 1156.98   6
  10  10 -12 6659.59 895.935  14
  10  10  12 8412.79 1055.13   5
 -10  10 -14 2414.50 553.438   4
  10  10 -14 3234.23 462.994  14
  11   0   1 68273.8 11308.8   9
  11   0  -1 80639.7 11888.9   9
   0 -11  -1 119749. 13398.7  21
   0 -11   1 101942. 12794.4  21
   0 -11   1 74621.1 13896.1  20
  11   0   1 111912. 11538.7  20
  11   0  -1 102984. 10645.2  20
 -11   0   1 129211. 11316.5  19
 -11   0  -1 120020. 11134.6  19
 -11   0   1 97007.0 6879.65   6
 -11   0  -1 85869.5 6591.87   6
 -11   0   1 125328. 7130.26  16
  11   0  -1 78565.0 8607.71   1
  11   0   1 72176.8 8060.46   1
   0  11   1 83113.6 6145.70  13
   0  11  -1 89337.4 6086.03  13
  11   0  -1 56194.4 5863.12   2
 -11   0   1 94571.2 10448.2  11
  11   0  -1 104238. 7416.01  23
  11   0   1 103404. 7342.99  23
   0  11  -1 101430. 12356.1  22
   0  11   1 92510.6 12371.2  22
  11   0   3 59136.5 10820.1   9
  11   0  -3 47143.0 8564.42   9
   0 -11  -3 77990.6 10662.7  21
   0 -11   3 59298.0 10036.8  21
 -11   0  -3 45870.7 11342.5  21
   0 -11   3 43303.2 10451.1  20
  11   0   3 64792.0 9013.94  20
  11   0  -3 58634.6 7586.64  20
 -11   0   3 76323.3 8762.12  19
 -11   0  -3 67866.9 8567.30  19
 -11   0   3 74172.1 6114.13   6
 -11   0  -3 65325.7 5637.88   6
 -11   0   3 61374.0 4847.85  16
  11   0  -3 59149.5 7496.00   1
  11   0   3 55858.8 7123.69   1
   0  11   3 54715.4 5027.04  13
   0  11  -3 56260.8 4664.86  13
  11   0  -3 45987.9 5707.56   2
   0  11   3 45051.3 7070.47   3
 -11   0   3 69049.1 9058.27  11
  11   0  -3 56904.1 5584.34  23
   0  11  -3 62830.2 9184.32  22
   0  11   3 59683.7 10602.7  22
   0  11   5 23419.4 5423.91   3
   0 -11  -5 37729.1 7205.49  21
  11   0   5 29169.4 7756.04   9
   0 -11   5 30654.8 7345.54  21
 -11   0  -5 24906.7 8795.23  21
  11   0   5 34489.3 6730.20  20
   0 -11   5 17647.7 6377.15  20
  11   0   5 35104.8 2129.93  25
 -11   0   5 36085.1 6057.69  19
 -11   0  -5 32660.7 6035.02  19
 -11   0   5 28337.5 3785.14   6
 -11   0  -5 22797.4 3226.60   6
  11   0  -5 26463.0 4980.54   1
 -11   0   5 27402.6 3187.85  16
  11   0  -5 21280.3 4134.05   2
   0  11   5 25091.7 3547.53  13
  11   0   5 20757.0 4272.37   1
 -11   0   5 30803.5 6117.87  11
  11   0  -5 26854.3 4009.36  23
   0 -11  -5 18081.9 6789.89  10
   0  11  -5 30938.0 6257.72  22
   0  11   5 31877.2 8242.25  22
 -11   0  -7 19094.5 7732.83  21
   0  11   7 22318.3 5374.23   3
   0 -11  -7 25650.4 5931.32  21
   0 -11   7 16161.4 5797.38  21
  11   0   7 17045.0 3841.66   1
  11   0   7 29474.6 6197.83  20
  11   0  -7 17860.1 3806.11   2
 -11   0   7 36994.3 6358.21  19
 -11   0   7 26879.9 3595.92   6
 -11   0  -7 21578.8 2981.42   6
  11   0   7 33527.2 2103.01  25
   0  11   7 24722.4 3506.70  13
  11   0  -7 20029.5 4250.45   1
 -11   0   7 25360.0 5869.96  11
   0 -11  -7 2056.17 2759.54  10
   0  11  -7 29725.5 5914.76  22
   0  11   7 27104.0 7571.03  22
  11   0  -9 8054.28 1058.09   8
 -11   0  -9 6580.48 1263.35   4
 -11   0   9 4296.47 1335.48   6
   0  11   9 5553.83 1730.28  13
  11   0   9 7898.70 1052.05  25
  11   0 -11 83047.3 3146.11   8
 -11   0 -11 73281.4 4343.76   4
  11   0  11 75826.2 3210.35  25
  11   0 -13 51582.4 2390.38   8
 -11   0 -13 48937.0 3388.24   4
   0 -11 -13 56832.1 3248.73  17
   0  11  13 51226.9 4366.08  13
  11   0  13 52452.3 2541.16  25
  11   0 -15 41144.8 1933.65   8
 -11   0 -15 33887.4 2651.55   4
   0 -11 -15 42086.7 2569.68  17
  11   0  15 39720.1 2048.35  25
  11   0 -17 15221.4 1025.65   8
 -11   0 -17 12214.9 1373.89   4
   0 -11 -17 15462.4 1343.31  17
  11   0  17 14788.1 1073.28  25
  11   0 -19 8917.94 616.484   8
   0 -11 -19 8858.35 752.310  17
  -1 -11   0 50387.6 9046.63  21
  11   1   0 35189.3 7818.47   9
   1 -11   0 45004.8 8428.08  21
  11  -1   0 45245.1 7254.18  20
  11   1   0 46803.5 7231.78  20
   1 -11   0 34120.7 9595.83  20
 -11  -1   0 55142.9 7598.07  19
 -11   1   0 51231.5 7098.19  19
  11   1   0 17680.2 3245.52   2
 -11   1   0 37665.5 4373.15   6
 -11  -1   0 40633.4 4413.00   6
  11  -1   0 32665.4 5562.96   1
 -11   1   0 52337.9 4801.09  16
  11   1   0 36471.3 5881.32   1
   1  11   0 39662.6 4115.47  13
  -1  11   0 35130.0 4184.73  13
 -11   1   0 24505.1 5407.10  11
  11  -1   0 43622.5 4906.17  23
  -1 -11   0 15924.2 5877.30  10
   1  11   0 43263.2 8105.45  22
  -1  11   0 44374.1 8321.04  22
  11  -1   0 36407.6 8342.57   9
  11  -1   2 44239.3 9054.93   9
  11  -1  -2 49183.1 9001.31   9
  11   1   2 47590.6 9837.50   9
  11   1  -2 41204.8 8178.37   9
  -1 -11  -2 62105.9 9776.83  21
  -1 -11   2 62655.7 10226.5  21
   1 -11  -2 57108.2 9024.49  21
   1 -11   2 44755.0 8438.10  21
 -11  -1  -2 31950.7 9595.25  21
  -1  11   2 27375.5 5606.74   3
  -1 -11   2 33284.6 9022.37  20
   1 -11  -2 41990.2 10852.2  20
  11  -1   2 55853.4 8211.50  20
  11  -1  -2 53058.5 7499.20  20
  11   1   2 58532.4 8325.85  20
  11   1  -2 51590.6 7189.81  20
   1 -11   2 34842.1 9645.15  20
 -11  -1   2 60920.6 8034.62  19
 -11   1   2 60601.0 7686.67  19
 -11  -1  -2 59823.1 8073.17  19
 -11   1  -2 54797.9 7633.13  19
  11  -1  -2 51630.6 6900.72   1
 -11   1   2 52787.3 5217.69   6
 -11   1  -2 53778.2 5089.53   6
 -11  -1   2 54725.6 5360.37   6
 -11  -1  -2 56506.8 5139.06   6
 -11   1   2 56176.6 4798.12  16
 -11  -1   2 62895.6 4978.97  16
  11  -1   2 47017.0 6475.87   1
  11   1  -2 54297.7 7147.80   1
  11   1   2 46147.6 6536.96   1
   1  11  -2 48676.6 4313.24  13
   1  11   2 46079.5 4575.15  13
  -1  11   2 50362.2 4845.00  13
  -1  11  -2 48346.8 4555.51  13
  11   1  -2 34737.9 5017.72   2
 -11   1   2 49191.2 7553.86  11
 -11  -1   2 50132.7 7750.17  11
  11   1  -2 51384.4 5196.78  23
  11  -1  -2 47830.8 5197.80  23
  11  -1   2 43606.9 4830.86  23
  -1 -11  -2 33755.9 8796.19  10
   1  11  -2 49947.6 8233.17  22
  -1  11  -2 52857.0 8656.50  22
   1  11   2 47128.2 9012.46  22
  -1  11   2 54393.7 9922.16  22
  11  -1   4 31010.5 7656.31   9
  -1 -11  -4 38114.8 7515.00  21
   1 -11  -4 39943.2 7397.85  21
  11   1   4 28526.3 7606.99   9
   1 -11   4 26765.4 6875.56  21
 -11  -1  -4 20366.9 8435.32  21
  -1  11   4 25672.7 5641.99   3
  -1 -11   4 25735.1 6761.98  21
  11  -1   4 30496.5 6320.89  20
  11   1   4 36724.0 6863.84  20
   1 -11  -4 11940.6 6236.84  20
  -1 -11   4 22334.5 7268.59  20
   1 -11   4 18926.5 6673.57  20
 -11  -1   4 32997.7 5973.67  19
 -11   1   4 40234.3 6176.67  19
 -11  -1  -4 34551.5 6375.30  19
 -11   1  -4 30007.8 5800.42  19
 -11   1   4 32748.7 4172.99   6
 -11  -1   4 33761.1 4152.89   6
 -11   1  -4 27249.0 3594.89   6
 -11  -1  -4 29147.6 3739.34   6
 -11   1   4 31330.6 3581.24  16
 -11  -1   4 27690.3 3206.35  16
  11   1  -4 27202.7 5111.00   1
  11  -1   4 24294.4 4568.34   1
  11  -1  -4 20438.5 3863.15   2
   1  11   4 27641.7 3698.97  13
  -1  11   4 26840.6 3814.55  13
  11   1  -4 23098.0 4240.60   2
  11   1   4 28867.2 5212.96   1
   1  11   4 27549.6 5349.57   3
 -11  -1   4 36909.0 6644.99  11
 -11   1   4 31671.0 6334.99  11
  11   1   4 39876.8 2194.04  25
  11   1  -4 29968.8 4078.19  23
  11  -1  -4 29069.4 4159.63  23
  11  -1   4 27274.6 3824.25  23
  -1 -11  -4 15092.8 6306.97  10
   1  11  -4 29008.2 6102.53  22
  -1  11  -4 30579.7 6236.04  22
   1  11   4 31658.5 7886.06  22
  -1  11   4 31514.3 8060.28  22
   1  11   6 17739.1 4525.10   3
  11  -1   6 9283.91 4394.93   9
  -1  11   6 12194.2 4173.39   3
 -11  -1  -6 12184.6 5931.68  21
  -1 -11  -6 15250.7 4444.60  21
   1 -11  -6 17805.8 4789.36  21
  -1 -11   6 16698.6 5353.38  21
   1 -11   6 14801.4 5083.34  21
  11  -1  -6 10400.6 2883.55   2
   1 -11  -6 14989.8 6751.46  20
  11   1   6 9922.96 2994.41   1
  11   1  -6 10530.1 3044.26   2
 -11   1  -6 16164.7 1989.78   4
  11  -1   6 12536.3 4050.01  20
  11   1   6 18433.3 4875.86  20
 -11  -1   6 16766.1 4449.66  19
 -11   1   6 16061.4 3988.07  19
 -11   1   6 13863.1 2838.15   6
 -11  -1   6 12453.6 2776.04   6
 -11   1  -6 11186.9 2313.48   6
   1  11   6 12934.5 2556.49  13
  -1  11   6 12608.9 2648.91  13
 -11  -1  -6 11578.9 2350.46   6
  11   1  -6 11135.3 3152.87   1
 -11  -1   6 26108.6 5784.61  11
  11  -1   6 19735.2 1602.39  25
  11   1   6 17555.6 1535.04  25
 -11   1   6 21084.3 5015.48  11
  11  -1  -6 15358.1 3121.30  23
  11  -1   6 9684.41 2843.56   1
  -1 -11  -6 2861.42 3153.60  10
   1  11  -6 18358.2 4923.28  22
  -1  11  -6 15476.2 4440.65  22
   1  11   6 16782.3 6679.13  22
  -1  11   6 13730.9 6021.08  22
  11  -1  -8 11876.3 1282.64   8
  11   1  -8 10880.5 1283.30   8
 -11   1  -8 8952.27 1614.25   4
   1  11   8 11421.3 2469.29  13
 -11   1   8 7501.34 2089.19   6
 -11  -1   8 8398.34 2003.65   6
  -1  11   8 7486.73 1913.21  13
 -11  -1  -8 6861.02 1542.58   6
  11  -1   8 11705.0 1258.88  25
  11   1   8 11743.8 1283.31  25
  11  -1 -10 23057.5 1710.44   8
  11   1 -10 24359.1 1760.46   8
 -11   1 -10 22161.6 2409.36   4
 -11  -1 -10 22665.1 2362.88   4
 -11   1  10 16278.5 2559.73   6
   1  11  10 19352.7 2984.83  13
  -1  11  10 20509.7 3108.29  13
  11  -1  10 22755.4 1755.09  25
  11   1  10 24460.7 1846.73  25
  11  -1 -12 34534.3 2003.91   8
  11   1 -12 34850.0 2025.23   8
 -11   1 -12 32785.2 2838.85   4
 -11  -1 -12 30485.8 2731.15   4
  -1 -11 -12 37633.2 2729.35  17
   1  11 -12 37331.3 2159.93  14
   1  11  12 32685.7 3667.20  13
  -1  11  12 27670.3 3335.35  13
  11  -1  12 33959.6 2075.54  25
  11   1  12 32008.9 2069.66  25
  11  -1 -14 26275.2 1645.87   8
  11   1 -14 26455.0 1646.17   8
 -11   1 -14 23042.4 2387.21   4
 -11  -1 -14 23207.1 2276.97   4
  -1 -11 -14 29460.9 2271.39  17
   1  11 -14 28095.8 1766.58  14
  -1  11  14 25307.7 2829.71  13
  11  -1  14 24850.0 1682.30  25
  11   1  14 24032.4 1704.72  25
  11  -1 -16 13119.7 1034.88   8
  11   1 -16 13303.5 1039.95   8
 -11   1 -16 12922.9 1551.57   4
 -11  -1 -16 12514.5 1449.10   4
  -1 -11 -16 13742.9 1384.35  17
   1 -11 -16 12995.0 1307.88  17
  11  -1  16 11012.6 994.488  25
  11   1  16 12282.0 1079.49  25
  11  -1 -18 6574.48 610.683   8
  11   1 -18 7351.38 650.289   8
 -11   1 -18 5816.11 908.424   4
 -11  -1 -18 6194.34 860.209   4
  -1 -11 -18 6888.48 801.792  17
   1 -11 -18 7205.49 789.276  17
  11   1  18 6577.75 652.797  25
  11  -2  -1 1710.30 1922.22   9
  11  -2   1-3393.36 2633.51   9
 -11  -2  -1 644.905 1969.69  21
  -2 -11  -1-567.180 1260.28  21
  -2 -11   1 344.371 1127.65  21
   2 -11  -1 1168.85 1406.93  21
   2 -11   1-1958.78 1823.20  21
   2 -11  -1 2859.40 2868.23  20
   2 -11   1 1629.49 2081.00  20
  11  -2  -1 258.219 973.567  20
  11  -2   1 626.009 867.825  20
 -11  -2   1 1959.54 1593.14  19
 -11   2   1 10.9494 1257.30  19
 -11  -2  -1 1861.42 1530.68  19
 -11   2  -1-40.0826 883.578  19
  11   2  -1 1268.87 1030.87   2
  11   2   1 1513.28 1067.68   2
  -2  11   1-395.354 952.083   6
 -11   2   1 595.581 789.014  16
 -11   2  -1 1343.70 909.206  16
  11  -2   1-2058.11 1443.62   1
   2  11  -1-224.685 697.515  13
   2  11   1 1066.36 777.852  13
 -11   2   1 285.410 986.879   6
 -11   2  -1 450.900 1048.65   6
 -11  -2   1 328.436 809.508   6
 -11  -2  -1-13.8322 1017.11   6
 -11   2   1-4390.21 2286.75  11
 -11  -2   1-2038.27 1642.14  11
  11   2  -1 2080.36 1487.30   1
  -2 -11   1 4195.22 3407.55  10
  11  -2  -1 1587.81 993.388  23
  11  -2   1 228.490 451.398  23
  -2 -11  -1-4888.44 3729.35  10
  11   2   1 2687.55 1670.21   1
   2  11  -1 2070.48 1756.72  22
   2  11   1 1506.15 1821.22  22
  -2  11  -1-1766.89 1983.80  22
  -2  11   1 777.328 1621.54  22
  11  -2  -3 4937.70 2792.26   9
  11  -2   3 1440.56 1815.71   9
  11   2   3 5219.00 2281.45   1
 -11  -2  -3 3990.31 3578.91  21
  -2  11   3 1479.86 1524.72   3
  -2 -11  -3 10471.5 4136.64  21
  -2 -11   3 6645.60 3405.83  21
   2 -11  -3 3881.19 2350.90  21
   2 -11  -3 518.694 1640.38  20
   2 -11   3 1763.63 2189.18  20
  11  -2   3 6960.69 2964.34  20
  11  -2  -3 2860.73 1769.92  20
  11   2  -3 4596.50 1820.76   2
 -11  -2   3 9596.23 3374.13  19
 -11   2   3 7081.00 2691.90  19
 -11  -2  -3 7591.40 2698.40  19
 -11   2  -3 7237.47 2787.65  19
 -11   2  -3 6722.06 1335.40   4
  -2  11   3 4072.45 1597.42   6
 -11   2   3 4536.78 1462.98  16
 -11  -2   3 5244.59 1307.11  16
   2  11   3 4663.29 1597.35  13
 -11   2   3 2829.27 1297.84   6
  11  -2   3 2072.72 1443.92   1
 -11   2  -3 4583.19 1523.01   6
 -11  -2   3 4208.78 1697.93   6
 -11  -2  -3 4261.53 1525.68   6
  11   2   3 7431.33 938.993  25
 -11   2   3 5332.49 2508.48  11
 -11  -2   3 4195.32 2272.26  11
  11   2  -3 5808.40 2360.73   1
  11  -2  -3 4864.60 1703.45  23
  11  -2   3 5710.62 1885.24  23
  -2 -11  -3-1749.20 2772.99  10
   2  11  -3 6151.87 2953.03  22
  -2  11  -3 2551.58 2122.29  22
   2  11   3 2772.31 2204.15  22
  -2  11   3 3776.93 3498.77  22
  11  -2   5 5749.69 3439.22   9
 -11  -2  -5 8271.58 5130.78  21
  -2  11   5 8978.95 3668.14   3
  -2 -11  -5 7393.31 3403.38  21
   2 -11  -5 8982.95 3363.10  21
  -2 -11   5 14285.8 4984.95  21
  11  -2  -5 4584.78 1822.46   2
   2 -11  -5 7330.10 4653.39  20
   2 -11   5 3012.06 2539.11  20
  11  -2   5 6010.87 2777.76  20
  11   2   5 5775.13 2373.75   1
  11   2  -5 8908.50 2685.56   2
 -11  -2   5 10331.8 3368.72  19
 -11   2   5 10508.7 3188.14  19
 -11  -2  -5 10021.5 3549.98  19
 -11   2  -5 5936.15 2678.44  19
  -2  11   5 7040.76 1957.84   6
 -11   2  -5 7939.29 1521.22   4
   2  11   5 9930.71 2232.08  13
 -11   2   5 6905.59 1917.03   6
  -2  11   5 6968.60 2010.79  13
 -11   2  -5 7868.25 1930.27   6
 -11  -2   5 10448.0 2367.05   6
 -11  -2  -5 5523.94 1528.34   6
  11   2   5 10395.7 1167.02  25
  11  -2   5 6530.28 2333.24   1
 -11  -2   5 11333.3 3688.53  11
 -11   2   5 5034.95 2463.09  11
  11   2  -5 6671.46 2873.30   1
  11  -2   5 13251.9 2742.37  23
  11  -2  -5 7723.82 2256.19  23
  -2 -11  -5-2451.09 3073.24  10
   2  11  -5 8265.54 3203.80  22
  -2  11  -5 7008.11 3153.96  22
   2  11   5 4103.40 3049.45  22
  -2  11   5 7198.44 3415.70  22
   2  11   5 11833.4 3552.31   3
  -2 -11  -7 422.924 960.909  21
  -2 -11   7 1751.51 1862.01  21
   2 -11  -7 523.424 2130.86  20
  11  -2  -7 794.597 435.931   8
 -11   2   7-2598.40 1701.03  19
 -11   2  -7 333.245 515.053   4
 -11   2   7 116.868 1048.81   6
   2  11   7 1377.04 1031.09  13
  -2  11   7 1057.80 1094.94  13
 -11   2  -7 540.113 775.348   6
 -11  -2   7-2242.56 1213.70   6
 -11  -2  -7-7.18985 863.296   6
  11  -2   7 1604.36 523.512  25
  11   2   7 1160.93 441.955  25
  -2  11  -7-1711.12 1626.21  22
   2  11   7 3252.62 3561.98  22
  11  -2  -9 20543.7 1613.03   8
  11   2  -9 18319.4 1588.75   8
 -11   2  -9 17456.3 2284.43   4
 -11   2   9 18624.8 2970.71   6
  11  -2   9 20637.5 1662.63  25
  -2 -11  -9 21548.6 2164.98  17
 -11  -2  -9 14014.1 2382.32   6
   2  11  -9 25662.4 1906.98  14
   2  11   9 19411.0 3028.73  13
  -2  11   9 14437.8 2680.70  13
  11   2   9 20903.5 1691.48  25
  11  -2 -11 170.205 277.147   8
  11   2 -11-325.596 304.010   8
 -11   2 -11-799.606 760.343   4
  -2 -11 -11-22.0912 461.477  17
   2  11 -11 79.9625 296.695  14
   2  11  11-1263.11 1067.91  13
  -2  11  11 635.843 929.810  13
  11  -2  11-64.5367 282.900  25
  11   2  11 97.2129 309.465  25
  11  -2 -13 332.820 235.164   8
  11   2 -13 766.758 359.243   8
 -11   2 -13 177.032 517.325   4
  -2 -11 -13 1016.14 462.546  17
 -11  -2 -13-140.083 509.170   4
   2  11 -13 580.500 334.697  14
  -2  11  13-308.848 770.643  13
  11  -2  13 1048.02 420.850  25
  11   2  13 418.209 306.597  25
  11  -2 -15 454.338 223.546   8
  11   2 -15-151.153 242.125   8
 -11   2 -15 313.193 393.306   4
  -2 -11 -15 436.311 347.383  17
   2 -11 -15 375.839 282.929  17
 -11  -2 -15 190.634 326.196   4
   2  11 -15-337.668 308.652  14
  11  -2  15 130.382 224.189  25
  11   2  15 191.725 223.824  25
  11  -2 -17 931.076 291.260   8
  11   2 -17 1406.56 347.851   8
 -11   2 -17 605.206 386.908   4
  -2 -11 -17 1043.36 349.322  17
 -11  -2 -17 946.516 418.262   4
   2 -11 -17 678.622 276.470  17
  11   2  17 766.776 301.468  25
  11   2 -19 335.175 143.402   8
 -11   2 -19 1177.67 382.960   4
  11   2  19 848.284 205.182  25
  11  -3   0 4503.16 2962.65   9
  11   3   0-954.464 1096.72   1
  -3 -11   0 1666.43 1855.09  21
   3 -11   0 2242.32 1895.18  21
   3 -11   0-844.778 1730.81  20
  11  -3   0-2269.79 1739.08  20
 -11  -3   0 1583.66 1470.12  19
 -11   3   0 3706.31 1934.62  19
 -11   3   0 1157.72 767.082   4
  11   3   0 1647.70 1133.72   2
  -3  11   0 747.363 864.891   6
 -11   3   0 1276.37 916.499  16
   3  11   0 1116.07 757.502  13
 -11   3   0 44.1306 1071.16   6
  -3 -11   0 5345.39 3517.13  10
  11  -3   0 1986.34 1109.01  23
   3  11   0 2137.19 2229.59  22
  -3  11   0 534.596 1732.43  22
  11  -3  -2-200.959 968.180   9
  11  -3   2-11.2179 1078.83   9
 -11  -3  -2-8759.73 5099.45  21
  -3 -11  -2-969.429 1434.56  21
  -3 -11   2-1063.58 1593.74  21
   3 -11  -2 2839.60 2001.21  21
  -3  11   2-5723.79 3094.96   3
  11   3   2-1762.34 1402.16   1
   3 -11  -2 4598.60 2804.34  20
   3 -11   2-13.9635 1260.81  20
  11  -3  -2-946.567 1103.67  20
  11  -3   2-599.486 1029.75  20
 -11  -3   2 219.620 2031.23  19
 -11   3   2-37.7943 1104.18  19
 -11  -3  -2-2532.71 1853.23  19
 -11   3  -2-136.936 645.166  19
  11   3  -2 764.486 919.820   2
 -11   3  -2 274.861 477.887   4
  11  -3   2-2610.16 1567.70   1
  -3  11  -2 933.126 832.616   6
  -3  11   2-1512.12 1333.23   6
 -11   3   2 622.859 1013.33  16
 -11   3  -2 636.963 911.991  16
   3  11  -2-985.371 910.480  13
   3  11   2 167.770 711.185  13
 -11   3   2-560.163 1390.64   6
 -11   3  -2 446.350 1032.76   6
 -11  -3   2 430.945 1065.97   6
 -11   3   2-3298.24 2031.75  11
 -11  -3   2-1138.39 1331.13  11
  -3 -11   2 9822.99 5129.56  10
  11  -3  -2 220.448 501.803  23
  -3 -11  -2-349.544 2603.87  10
  11  -3   2 443.687 475.788  23
   3  11  -2 1400.09 1368.54  22
  11   3  -2-2555.76 1567.22   1
  -3  11  -2-566.467 998.667  22
   3  11   2-4339.26 2679.39  22
  -3  11   2-725.856 1798.87  22
  11  -3   4 2365.70 2277.31   9
 -11  -3  -4 5554.89 4155.15  21
  -3 -11  -4 1669.39 1810.02  21
  -3 -11   4 3230.29 2422.48  21
   3 -11  -4 4755.72 2481.73  21
  -3  11   4 8461.02 3816.80   3
   3 -11  -4 2819.68 3006.15  20
   3 -11   4 2208.84 2220.93  20
  11  -3   4 4121.78 2328.32  20
  11   3  -4 3734.40 1845.20   2
  11   3   4-1671.58 1379.91   1
 -11  -3   4 3131.20 1913.49  19
 -11   3   4 6642.68 2500.14  19
 -11  -3  -4 2504.64 1901.07  19
 -11   3  -4 5349.52 2278.38  19
 -11   3  -4 4534.04 1235.23   4
 -11   3   4 4233.36 1412.70  16
  -3  11   4 3567.08 1474.62   6
 -11   3  -4 3680.40 1369.57  16
 -11   3   4 3889.28 1406.77   6
   3  11   4 3573.59 1554.47  13
 -11   3  -4 3884.20 1528.49   6
  11  -3   4-365.461 637.931   1
 -11  -3   4 2969.42 1389.43   6
  11   3   4 4565.72 801.974  25
 -11   3   4 2984.57 2044.41  11
 -11  -3   4 5753.01 2710.35  11
  -3 -11   4 10721.3 5173.66  10
  11  -3  -4 2159.53 1110.40  23
  11  -3   4 4214.76 1785.07  23
  -3 -11  -4 8417.75 5195.21  10
  11   3  -4 1529.68 1291.30   1
   3  11  -4 3141.34 2082.30  22
  -3  11  -4 867.017 1396.86  22
   3  11   4 2447.30 1870.81  22
  -3  11   4 8169.88 3845.19  22
  -3  11   6 437.637 1934.28  22
   3  11   6 3715.52 983.727   5
  11   3   6 2233.16 712.248   5
 -11  -3  -6 2900.98 3295.50  21
  -3 -11  -6 52.2413 546.606  21
  -3 -11   6-1995.87 1915.63  21
   3 -11  -6 10724.0 5394.28  20
   3 -11   6-5585.88 3320.34  20
  11  -3  -6 2219.77 624.339   8
 -11   3   6 2139.99 1520.58  19
 -11   3  -6 2408.70 931.303   4
  -3 -11  -6 3118.65 838.591  17
  -3  11   6 1962.53 1309.42   6
 -11   3  -6 3100.49 1617.62  16
 -11   3   6 4173.68 1626.13   6
   3  11   6 1193.25 1078.84  13
 -11   3  -6 1835.99 1100.13   6
  -3  11   6 1195.53 1395.14  13
 -11  -3   6 1193.05 1052.47   6
  11   3   6 2505.92 674.101  25
  11  -3  -6 2526.68 1316.72  23
  11  -3   6 1136.88 419.249  23
   3  11  -6 299.678 1478.05  22
  -3  11  -6 4443.20 2272.22  22
   3  11   6 991.817 1210.25   3
   3  11   6 5277.62 3024.54  22
  11  -3  -8 10821.0 1207.81   8
  11   3  -8 9708.62 1231.89   8
 -11   3  -8 9108.89 1749.51   4
  -3 -11  -8 14224.7 1788.89  17
 -11   3   8 11725.8 2558.73   6
   3  11   8 11136.3 2310.08  13
  -3  11   8 7237.56 2009.77  13
  11   3   8 11101.2 1250.79  25
   3  11   8 11117.6 1497.47   5
  11   3   8 8543.84 1152.52   5
   3  11  10 1036.57 712.586   5
  11   3  10 9.46777 360.078   5
  11  -3 -10 279.802 323.469   8
  11   3 -10 340.109 291.242   8
 -11   3 -10 777.509 748.247   4
  -3 -11 -10 554.819 337.276  17
 -11   3 -10 599.766 676.047  16
 -11   3  10 455.300 752.103   6
   3  11 -10 556.784 383.524  14
  11  -3  10 422.246 356.404  25
   3  11  10 125.584 999.424  13
  -3  11  10 1483.33 1229.40  13
 -11  -3 -10 934.747 1005.22   6
  11   3  10 211.136 269.564  25
   3  11  12 395.336 452.260   5
  11   3  12 546.838 404.020   5
  11  -3 -12 162.149 253.239   8
  11   3 -12 492.887 327.061   8
 -11   3 -12 450.065 655.429   4
  -3 -11 -12 1471.35 672.241  17
 -11   3 -12 1776.53 854.107  16
   3  11  12 27.0406 530.720  15
   3  11 -12 1149.18 471.610  14
  -3  11  12 1891.69 961.382  13
  11  -3  12 710.477 373.931  25
  11   3  12 998.882 421.439  25
   3  11  14 785.751 469.462   5
  11   3  14-538.238 374.236   5
  11  -3 -14 367.045 212.099   8
  11   3 -14-255.492 345.779   8
 -11   3 -14-736.007 664.581   4
  -3 -11 -14 962.236 523.001  17
   3  11  14 340.328 539.665  15
   3  11 -14 504.399 284.605  14
  11   3  14 298.956 275.408  25
  11  -3 -16 492.153 233.776   8
  11   3 -16 208.213 186.196   8
 -11   3 -16 725.038 486.435   4
  -3 -11 -16 299.635 247.585  17
   3 -11 -16 124.709 160.810  17
  11   3  16 491.839 266.418  25
  11  -3 -18-24.7638 144.209   8
  11   3 -18 338.936 168.235   8
 -11   3 -18 216.747 318.518   4
   3 -11 -18 141.939 145.273  17
  11   3  18 252.381 153.993  25
  11  -4  -1 9845.97 4307.94   9
  11  -4   1 14028.4 5190.39   9
 -11  -4  -1 4843.67 3770.72  21
  -4 -11  -1 6569.18 3531.99  21
  -4 -11   1 13869.3 5056.09  21
   4 -11  -1 7525.56 3265.98  21
 -11   4  -1 8898.86 1729.96   4
   4 -11  -1 5123.01 3807.10  20
   4 -11   1 3878.88 3209.57  20
  -4  11   1 1869.78 2003.22   3
  11  -4  -1 5276.07 2618.31  20
  11  -4   1 4382.25 2591.13  20
  11   4  -1 7731.91 2768.51   1
  11   4   1 8747.79 2944.87   1
 -11  -4   1 13939.2 4414.20  19
 -11   4   1 8617.80 2954.64  19
 -11  -4  -1 11231.8 3762.21  19
 -11   4  -1 5485.12 2374.91  19
 -11   4   1 5499.35 1260.10   4
  11   4  -1 6345.30 2286.09   2
  -4  11  -1 4640.59 1368.45   6
  -4  11   1 3602.84 1614.46   6
 -11   4   1 6848.50 1888.47  16
 -11   4  -1 6634.12 1746.84  16
   4  11  -1 8784.46 1884.96  13
   4  11   1 7587.83 1894.96  13
 -11   4   1 8086.40 2347.99   6
 -11   4  -1 6699.79 1985.09   6
   4  11  -1 8779.45 1200.19   5
  11   4  -1 7817.38 1100.35   5
  -4 -11   1 2274.40 3096.07  10
  -4 -11  -1 17921.5 7390.79  10
  11  -4  -1 6743.74 2111.18  23
  11  -4   1 7830.34 2212.09  23
   4  11   1 6527.40 1052.26   5
  11   4   1 6970.08 964.167   5
   4  11  -1 6817.24 2728.78  22
   4  11   1 2195.61 1960.37  22
  -4  11  -1 5809.59 3121.81  22
  -4  11   1 5157.21 3348.94  22
  11  -4  -3 15641.3 5199.06   9
  11  -4   3 17988.8 5960.40   9
 -11  -4  -3 15451.4 6788.82  21
  -4 -11  -3 18453.2 5909.13  21
  -4 -11   3 14798.6 5506.72  21
   4 -11  -3 12939.9 4075.15  21
  -4  11   3 16630.0 5620.63   3
   4 -11  -3 9265.28 5032.93  20
   4 -11   3 12394.1 5288.26  20
 -11   4  -3 15420.2 2110.96   4
  11   4  -3 13592.7 3567.75   1
  11  -4  -3 12046.1 3655.65  20
  11  -4   3 15540.7 4518.06  20
  -4  11  -3 5461.90 1322.20   4
 -11  -4   3 14704.4 4069.05  19
 -11   4   3 13997.3 3569.85  19
 -11  -4  -3 14883.2 4400.21  19
 -11   4  -3 8068.41 3015.59  19
  11   4  -3 11083.0 3221.12   2
  11  -4   3 10865.7 3058.45   1
  11   4   3 13601.5 3716.32   1
 -11   4   3 18228.8 3262.69   6
 -11  -4   3 16277.6 2827.06   6
 -11   4  -3 14399.1 2646.90  16
  -4  11   3 9038.23 2573.07   6
  11   4   3 13661.2 3470.30   3
   4  11   3 12762.8 2477.16  13
 -11   4  -3 13184.6 2615.24   6
   4  11  -3 19035.8 1746.29   5
  11   4  -3 17407.7 1594.91   5
  11   4   3 15072.2 1300.48  25
   4  11   3 16297.5 1675.24   5
  11   4   3 13683.6 1496.57   5
 -11   4   3 9628.14 3449.03  11
  11  -4  -3 12559.0 2866.11  23
 -11  -4   3 11300.5 5281.36  10
  -4 -11   3 20497.8 9064.97  10
  11  -4   3 10401.1 2674.14  23
  -4 -11  -3 15224.4 7066.49  10
   4  11  -3 12007.8 3736.02  22
  -4  11  -3 12562.5 4223.63  22
   4  11   3 12892.1 4223.33  22
  -4  11   3 13205.9 5175.55  22
  11   4   5 5495.65 1023.81   5
 -11  -4  -5 10803.4 5919.73  21
  -4 -11  -5 5662.55 3374.31  21
  -4 -11   5 3984.86 2934.33  21
   4 -11  -5 7705.36 4651.10  20
   4 -11   5 10622.6 4658.61  20
 -11   4  -5 5641.00 1246.29   4
  -4 -11  -5 9257.04 1418.63  17
  -4  11   5 4266.45 1634.30   6
 -11   4  -5 6069.31 1697.46  16
 -11   4   5 7910.93 2158.09   6
   4  11   5 7207.30 1924.71  13
 -11   4  -5 5779.88 1648.88   6
 -11  -4   5 7017.64 1783.45   6
   4  11  -5 9773.27 1327.13   5
  11   4  -5 7137.50 1139.19   5
  11   4   5 7851.87 999.742  25
   4  11   5 8159.51 1213.85   5
  11  -4  -5 4669.28 1761.49  23
  11  -4   5 4809.93 1741.64  23
   4  11  -5 1312.59 1733.21  22
  -4  11  -5 7551.72 3081.03  22
  -4  11   5-1077.41 2105.90  22
  11  -4  -7 20551.4 1582.63   8
 -11   4  -7 23870.4 2673.87   4
  -4  11   7 14632.5 3015.58   6
  -4 -11  -7 26258.2 2420.93  17
 -11   4   7 19821.9 3313.88   6
 -11  -4   7 15182.8 2658.68   6
 -11   4  -7 22114.7 3077.76  16
   4  11   7 23546.2 3359.14  13
  -4  11   7 15758.7 3050.45  13
  11   4   7 24628.5 1789.67  25
   4  11   7 21873.0 2127.04   5
  11   4   7 21464.2 1794.04   5
  11  -4  -9 10577.4 1090.01   8
  11   4  -9 8926.59 1105.40   8
 -11   4  -9 10086.4 1814.95   4
  -4  11   9 6037.31 1826.82   6
  -4 -11  -9 9976.21 1553.29  17
 -11   4  -9 9040.05 1910.97  16
 -11   4   9 8304.89 2180.45   6
  -4  11   9 5769.51 1801.32  13
  11   4   9 9020.73 1117.39  25
   4  11   9 11388.5 1496.93   5
  11   4   9 9189.43 1192.32   5
   4  11  11 5541.63 1173.35   5
  11   4  11 5518.89 968.982   5
  11  -4 -11 7277.73 907.819   8
  11   4 -11 7048.91 918.575   8
 -11   4 -11 6737.90 1378.52   4
  -4 -11 -11 6569.82 1229.03  17
 -11   4 -11 3574.98 1175.15  16
 -11   4  11 6812.68 1674.49   6
   4  11  11 5005.75 1292.00  15
   4  11 -11 7308.82 1091.63  14
  -4  11  11 4799.26 1543.15  13
 -11  -4 -11 3782.02 1169.20   6
  11   4  11 5848.61 878.019  25
   4  11  13 2973.84 815.095   5
  11   4  13 1776.42 512.207   5
  11  -4 -13 2042.44 423.679   8
  11   4 -13 1702.63 454.137   8
 -11   4 -13 2651.94 969.741   4
  -4 -11 -13 2271.72 718.190  17
   4  11  13 1362.05 737.737  15
   4  11 -13 2552.10 584.049  14
  11   4  13 1772.90 496.861  25
   4  11  15 5013.24 829.336   5
  11   4  15 2641.58 561.018   5
  11  -4 -15 3590.78 528.638   8
  11   4 -15 4101.30 554.141   8
 -11   4 -15 3340.83 879.139   4
  -4 -11 -15 3584.25 773.136  17
  11   4 -15 3594.53 568.848  14
   4  11 -15 2990.00 553.903  14
  11   4  15 3274.99 615.594  25
   4  11  17 4432.83 628.021   5
  11   4  17 2829.10 448.216   5
  11  -4 -17 2625.52 381.379   8
  11   4 -17 4452.69 478.407   8
 -11   4 -17 4004.33 776.405   4
   4 -11 -17 3863.67 563.179  17
  11   4  17 4005.11 561.770  25
  -5 -11   0 59165.5 11168.6  21
  11  -5   0 44807.9 7842.07  20
 -11   5   0 44777.2 3743.60   4
   5 -11   0 31765.5 9364.04  20
 -11  -5   0 56868.9 8758.46  19
  -5  11   0 45534.9 4580.85   6
 -11   5   0 56665.7 5516.96   6
 -11   5   0 47447.7 4764.29  16
  11   5   0 54256.5 2833.54   5
   5  11   0 52649.5 4110.69  15
   5  11   0 58719.1 3087.15   5
  11  -5   0 46155.6 5462.59  23
   5  11   0 43876.2 7414.58  22
  -5  11   0 46899.4 8497.57  22
  -5 -11  -2 61369.5 11292.9  21
  -5 -11   2 60783.9 11066.2  21
   5 -11  -2 46619.5 7961.42  21
 -11  -5  -2 53196.7 11941.4  21
  11  -5  -2 45039.6 7814.70  20
  11  -5   2 45807.4 7959.06  20
 -11   5   2 21440.8 2685.81   4
 -11   5  -2 57792.7 4238.11   4
   5 -11  -2 29629.6 8544.28  20
   5 -11   2 31482.4 8684.72  20
  -5  11   2 17677.6 6040.34   3
 -11  -5   2 71025.6 9737.80  19
 -11  -5  -2 58718.0 8831.32  19
  -5  11  -2 38223.0 3901.07   6
  -5  11   2 39997.9 4614.20   6
 -11   5   2 62686.7 6054.55   6
 -11   5  -2 56033.2 5365.46   6
 -11   5  -2 46814.1 4711.97  16
   5  11  -2 57977.0 4099.27  15
   5  11   2 51025.9 4161.00  15
  11   5   2 43946.4 6222.87   3
   5  11   2 59970.4 5097.06  13
   5  11  -2 59412.6 3121.51   5
  11   5  -2 53018.1 2850.89   5
   5  11   2 60135.7 3223.31   5
  11   5   2 55843.9 2926.57   5
  11  -5  -2 47177.6 5603.70  23
  11  -5   2 45652.5 5394.11  23
 -11  -5   2 53116.6 12045.9  10
   5  11  -2 41664.2 6960.01  22
  -5  11  -2 47678.4 8303.97  22
  -5  11   2 42202.8 9180.36  22
  -5  11  -4 12621.3 2003.79   4
 -11   5  -4 22353.2 2641.42   4
  -5  11   4 16080.0 2983.86   6
 -11   5   4 20089.9 3603.52   6
 -11   5  -4 20748.8 3085.51   6
 -11  -5   4 18037.8 3202.75   6
 -11   5  -4 21551.8 3166.95  16
   5  11   4 20089.1 2734.81  15
   5  11   4 26175.5 3483.58  13
   5  11  -4 22379.2 1941.45   5
  11   5  -4 22328.5 1881.49   5
   5  11   4 21996.9 2051.04   5
  11   5   4 20876.0 1899.99   5
  -5  11  -6 28757.6 3101.76   4
 -11   5  -6 39266.2 3550.49   4
  -5  11   6 30309.8 4127.05   6
  -5 -11  -6 52696.0 3432.39  17
 -11   5   6 38559.0 4557.63   6
 -11  -5   6 35687.0 4115.91   6
 -11   5  -6 35684.6 4007.38  16
   5  11   6 37699.0 3696.49  15
   5  11  -6 45046.7 2722.49   5
  11   5  -6 41067.6 2537.44   5
  11   5   6 47970.3 2392.45  25
   5  11   6 47764.7 2963.83   5
  11   5   6 36421.7 2465.52   5
  11   5  -8 24089.2 1706.81   8
  -5  11  -8 20465.1 2399.29   4
 -11   5  -8 26047.0 2787.90   4
  -5  11   8 16269.9 3284.52   6
  -5 -11  -8 28627.9 2596.08  17
 -11   5   8 22682.6 3404.45   6
 -11   5  -8 17275.6 2638.38  16
   5  11   8 21211.1 2796.60  15
  -5  11   8 17102.1 3061.42  13
  11   5   8 27421.0 1847.01  25
   5  11   8 30172.5 2393.16   5
  11   5   8 24387.3 1973.41   5
  11   5 -10 26604.6 1696.12   8
 -11   5 -10 30797.9 2976.31   4
  -5  11  10 18694.1 3154.89   6
  -5 -11 -10 30991.1 2688.50  17
 -11   5  10 23815.1 3197.90   6
 -11   5 -10 19329.3 2534.48  16
   5  11  10 23417.7 2743.25  15
   5  11 -10 36706.0 2527.42  14
  -5  11  10 19267.1 2944.28  13
  11   5  10 27685.7 1871.64  25
   5  11  10 33781.9 2488.59   5
  11   5  10 24140.1 1953.56   5
  11  -5 -12 24685.3 1448.20   8
  11   5 -12 23592.5 1515.21   8
 -11   5 -12 22431.7 2527.54   4
 -11   5  12 21265.2 2629.27   6
  -5 -11 -12 26167.0 2354.03  17
   5  11  12 22659.5 2478.18  15
   5  11 -12 29288.6 1973.34  14
  -5  11  12 17894.2 2541.80  13
  11   5  12 25041.2 1757.54  25
   5  11  12 29931.8 2237.97   5
  11   5  12 22588.9 1817.18   5
  11  -5 -14 21472.3 1216.24   8
  11   5 -14 25052.3 1379.90   8
 -11   5 -14 23221.9 2319.35   4
  -5 -11 -14 25923.7 2170.36  17
   5  11  14 25400.1 2191.78  15
   5  11 -14 26992.0 1709.15  14
  11   5 -14 29103.3 1847.77  14
  11   5  14 25115.4 1591.79  25
   5  11  14 30129.0 2059.12   5
  11   5  14 20773.9 1596.52   5
  11   5 -16 16881.1 932.851   8
 -11   5 -16 16238.2 1582.66   4
   5  11 -16 15450.9 1087.34  14
  11   5 -16 14995.9 951.771  14
  11   5  16 16102.3 1099.93  25
   5  11  16 19447.0 1412.37   5
  11   5  16 14962.9 1128.99   5
 -11   5 -18 8107.64 905.140   4
 -11   6   1 21501.2 2767.34   4
 -11   6  -1 38857.0 3643.93   4
  -6  11  -1 30059.7 3719.16   6
  -6  11   1 35954.6 4143.47   6
 -11   6   1 45221.9 5012.84   6
 -11   6  -1 44812.4 4818.90   6
 -11   6  -1 41616.5 4473.20  16
   6  11  -1 50172.5 3925.00  15
   6  11   1 50787.8 4096.56  15
   6  11  -1 49920.3 2993.40   5
  11   6  -1 46613.3 2737.52   5
   6  11   1 48768.3 2934.34   5
  11   6   1 42111.8 2605.99   5
 -11   6  -3 29030.2 3132.17   4
  -6  11   3 22003.7 3475.82   6
 -11   6   3 30212.5 4221.16   6
 -11   6  -3 26031.0 3477.02   6
 -11   6  -3 23454.1 3331.59  16
   6  11  -3 35862.3 3145.07  15
   6  11   3 28150.2 3187.18  15
   6  11  -3 29116.9 2274.76   5
  11   6  -3 27471.7 2118.36   5
   6  11   3 31003.1 2427.08   5
  11   6   3 27100.6 2162.09   5
  -6  11  -5 30077.1 3107.02   4
 -11   6  -5 41618.1 3634.82   4
  -6  11   5 30836.5 4107.01   6
 -11   6   5 43366.6 4840.01   6
 -11   6  -5 31784.5 3608.09   6
 -11  -6   5 33847.4 4071.27   6
 -11   6  -5 33464.4 3867.76  16
   6  11   5 38060.0 3711.84  15
   6  11  -5 44458.2 2819.48   5
  11   6  -5 39798.1 2606.23   5
   6  11   5 44218.4 2920.43   5
  11   6   5 35974.8 2516.30   5
  11   6  -7 19758.4 1508.74   8
  -6  11  -7 16600.5 2326.77   4
 -11   6  -7 20887.5 2622.84   4
  -6  11   7 16419.1 2930.34   6
  -6 -11  -7 27938.4 2564.33  17
 -11   6   7 19269.2 3332.06   6
 -11   6  -7 17792.0 2714.86  16
   6  11   7 21735.2 2760.65  15
  11   6   7 27218.8 1787.21  25
   6  11   7 25607.6 2248.88   5
  11   6   7 19309.8 1835.30   5
  11   6  -9 33932.3 1900.75   8
  -6  11  -9 26313.7 2804.73   4
 -11   6  -9 34216.5 3222.37   4
  -6  11   9 27723.5 3659.42   6
  -6 -11  -9 37685.5 3013.23  17
 -11   6   9 33163.5 3863.84   6
 -11   6  -9 24805.2 2896.24  16
   6  11   9 32192.4 3222.55  15
  -6  11   9 24337.5 3453.62  13
  11   6   9 35714.2 2074.81  25
   6  11   9 43423.2 2846.79   5
  11   6   9 35920.3 2402.89   5
  11   6 -11 27948.8 1595.95   8
  -6  11 -11 17236.2 2103.94   4
 -11   6 -11 24576.1 2597.60   4
  -6 -11 -11 30972.3 2623.49  17
 -11   6  11 24661.7 3084.34   6
   6  11  11 25976.3 2673.24  15
   6  11 -11 37138.8 2438.81  14
  -6  11  11 18425.0 2665.61  13
  11   6  11 28649.9 1809.95  25
   6  11  11 32264.1 2455.35   5
  11   6  11 23426.8 1966.34   5
  11   6 -13 18803.8 1169.29   8
 -11   6 -13 18020.1 2090.50   4
   6  11  13 21549.4 2140.60  15
   6  11 -13 23701.2 1685.78  14
  11   6  13 22923.7 1524.16  25
   6  11  13 24356.8 1951.07   5
  11   6  13 17725.9 1544.27   5
  11   6 -15 15737.7 888.535   8
 -11   6 -15 15784.1 1686.12   4
   6  11 -15 18974.2 1246.04  14
  11   6 -15 18638.7 1215.67  14
  11   6  15 18393.8 1184.57  25
   6  11  15 20407.2 1538.90   5
  11   6  15 16461.8 1270.63   5
 -11   6 -17 7774.51 950.254   4
   6 -11 -17 8399.39 673.774  17
 -11   7   0 5663.43 1627.93   4
  -7  11   0 8987.78 2298.56   6
   7  11   0 15768.5 2232.15  15
 -11   7   0 11624.6 2548.18   6
   7  11   0 14697.4 1689.25   5
  11   7   0 13816.7 1529.91   5
  -7  11  -2-702.487 686.698   4
 -11   7  -2 2549.51 1156.51   4
  -7  11  -2 3077.94 1343.88   6
  -7  11   2 2950.57 1513.17   6
   7  11  -2 6670.67 1475.55  15
   7  11   2 4273.15 1261.36  15
 -11   7   2 4323.08 1578.56   6
 -11   7  -2 3650.56 1434.62   6
   7  11  -2 3971.59 944.337   5
  11   7  -2 3379.93 828.166   5
   7  11   2 3594.99 883.363   5
  11   7   2 2874.65 742.990   5
  -7  11  -4 15476.3 2493.36   4
 -11   7  -4 29611.2 3255.74   4
  -7  11   4 20378.5 3518.96   6
 -11   7   4 30072.9 4189.40   6
 -11   7  -4 22671.3 3077.39   6
   7  11   4 28175.3 3109.88  15
   7  11  -4 31887.3 2375.51   5
  11   7  -4 29679.4 2234.93   5
   7  11   4 32510.2 2501.46   5
  11   7   4 28942.1 2239.26   5
   7  11   6 6998.90 1276.76   5
  11   7   6 6173.67 1148.21   5
  -7  11  -6 3709.72 1193.58   4
 -11   7  -6 6047.43 1518.04   4
  -7  11   6 5111.69 2163.07   6
   7  11   6 7987.16 1782.72  15
 -11   7   6 7320.99 2103.22   6
   7  11  -6 6975.81 1271.46   5
  11   7  -6 6709.77 1187.72   5
  11   7  -8 13390.1 1175.27   8
  -7  11  -8 12564.0 1989.75   4
 -11   7  -8 16845.2 2294.87   4
 -11   7   8 15329.3 2724.72   6
  -7  11   8 12200.6 2641.06   6
   7  11   8 17459.3 2359.08  15
   7  11   8 21390.9 2055.55   5
  11   7   8 18112.4 1785.25   5
  11   7 -10 7978.60 865.714   8
 -11   7 -10 6779.88 1568.06   4
  -7  11 -10 5942.01 1319.47   4
  -7  11  10 5957.85 1844.32   6
   7  11  10 9444.72 1689.51  15
 -11   7  10 9271.38 2123.12   6
  -7  11  10 5751.75 1569.34  13
  11   7  10 10383.1 1037.04  25
   7  11  10 11431.4 1486.61   5
  11   7  10 9535.59 1282.50   5
  11   7  12 5168.67 927.986   5
  11   7 -12 4817.68 572.393   8
  -7  11 -12 3218.93 967.208   4
 -11   7 -12 5591.78 1305.74   4
 -11   7  12 3630.31 1156.08   6
   7  11  12 7077.28 1258.97  15
   7  11 -12 7446.60 1024.83  14
  11   7  12 6774.23 781.446  25
   7  11  12 6868.37 1191.28   5
   7  11  14 3227.90 696.064   5
  11   7  14 2669.74 598.379   5
 -11   7 -14 2291.96 764.208   4
   7  11 -14 3277.17 555.348  14
  11   7 -14 3587.55 612.635  14
  11   7  14 2826.04 470.320  25
   7  11  16 3430.58 566.290   5
  11   7  16 2765.49 478.674   5
 -11   7 -16 2104.88 577.041   4
   7  11 -16 3004.25 411.529  14
  11   7 -16 2954.38 381.219  14
 -11   8  -1-1813.61 1171.15   4
  -8  11  -1-719.655 863.529   6
  -8  11   1 131.668 944.410   6
   8  11  -1-131.306 560.479  15
   8  11   1 196.940 601.165  15
 -11   8   1-875.141 1049.10   6
 -11   8  -1 2131.25 1291.06   6
   8  11  -1 708.704 483.184   5
  11   8  -1-111.121 425.610   5
   8  11   1-274.077 466.459   5
  11   8   1 71.7305 505.616   5
  -8  11  -3 855.193 665.420   4
 -11   8  -3 4301.85 1333.93   4
  -8  11   3 3137.86 1517.64   6
   8  11   3 5088.60 1434.06  15
 -11   8  -3 4539.12 1526.98   6
 -11   8   3 3744.17 1717.03   6
   8  11  -3 4941.12 1037.45   5
  11   8  -3 5067.20 1028.10   5
   8  11   3 6182.86 1141.94   5
  11   8   3 4840.40 995.045   5
  -8  11  -5 854.233 616.418   4
 -11   8  -5 1250.24 900.925   4
  -8  11   5 1002.44 1352.36   6
   8  11   5 1029.05 825.771  15
 -11   8   5 696.331 1353.01   6
 -11  -8   5 193.936 760.350   6
   8  11  -5 2052.59 748.619   5
  11   8  -5 1478.01 705.773   5
   8  11   5 1625.38 788.791   5
  11   8   5 1376.97 652.298   5
   8  11   7 644.050 542.339   5
  11   8   7 199.022 465.251   5
  11   8  -7 92.3053 193.449   8
  -8  11  -7-11.6122 727.130   4
 -11   8  -7 364.547 540.431   4
  -8  11   7 322.273 1083.89   6
   8  11   7 292.670 514.727  15
 -11   8   7 889.182 919.061   6
   8  11   9 1935.08 770.536   5
  11   8   9 1330.87 570.866   5
  11   8  -9 960.256 312.088   8
  -8  11  -9 1514.77 926.781   4
 -11   8  -9 1220.42 734.542   4
  -8  11   9-90.3391 783.461   6
 -11   8   9 3021.71 1218.19   6
   8  11   9 1964.04 905.847  15
  -8  11   9 799.202 901.892  13
   8  11  11-115.869 400.555   5
  11   8  11 19.0768 394.518   5
  -8  11 -11 508.274 558.477   4
 -11   8 -11-30.9339 424.878   4
  -8  11  11-403.635 703.966   6
 -11   8  11-502.471 778.438   6
   8  11 -11 228.524 319.246  14
  -8  11  11 141.432 631.829  13
   8  11  13 875.351 462.645   5
  11   8  13 684.939 387.418   5
  -8  11 -13-577.255 429.598   4
 -11   8 -13-398.779 408.572   4
 -11   8  13 1264.05 579.045   6
   8  11 -13 209.044 275.154  14
  11   8 -13 75.1057 239.643  14
 -11   8 -15 313.616 366.484   4
   8  11 -15 168.873 146.243  14
  11   8 -15 68.7925 157.681  14
   8  11  15 296.272 271.505   5
  11   8  15 276.935 280.659   5
  -9  11   0-888.443 975.209   6
 -11   9   0 1345.10 957.468   6
   9  11   0 117.322 556.156   5
  11   9   0-42.2480 569.747   5
 -11   9  -2 1706.81 727.115   4
  -9  11  -2 5139.50 1534.30   6
  -9  11   2 6437.97 1927.55   6
 -11   9  -2 4567.33 1514.06   6
 -11   9   2 5445.71 1863.61   6
   9  11  -2 6487.05 1125.11   5
  11   9  -2 6009.56 1083.54   5
   9  11   2 6113.21 1151.49   5
  11   9   2 5453.61 1063.34   5
  -9  11  -4 1498.23 741.218   4
 -11   9  -4 2012.09 1008.95   4
  -9  11   4 3660.71 1685.39   6
 -11   9   4 4173.80 1744.16   6
 -11  -9   4 3518.63 1510.61   6
   9  11  -4 4368.96 961.401   5
  11   9  -4 3168.25 876.588   5
   9  11   4 3990.46 921.132   5
  11   9   4 3737.96 916.014   5
  -9  11  -6-299.485 534.499   4
 -11   9  -6 338.047 638.209   4
  -9  11   6 633.771 1097.63   6
 -11   9   6 1204.53 1261.27   6
   9  11   6 806.029 645.755   5
  11   9   6 1001.65 548.355   5
  -9  11  -8 173.380 553.340   4
 -11   9  -8 27.1677 481.624   4
  -9  11   8-142.472 777.086   6
 -11   9   8 1243.80 1000.57   6
   9  11   8 227.578 466.273   5
  11   9   8 1292.06 594.013   5
  -9  11 -10-374.294 543.514   4
 -11   9 -10 386.491 662.898   4
  -9  11  10 1797.35 979.433   6
 -11   9  10 94.4926 615.469   6
  -9  11  10-536.592 719.370  13
   9  11  10 1208.25 550.920   5
  11   9  10 742.033 532.142   5
  -9  11 -12 716.799 475.461   4
 -11   9 -12 748.962 446.776   4
 -11   9  12 1360.33 626.657   6
   9  11 -12 1319.77 415.895  14
  11   9 -12 1418.16 460.652  14
   9  11  12 1574.50 553.566   5
  11   9  12 1522.19 474.060   5
 -11   9 -14 934.777 426.015   4
   9  11 -14 633.253 216.565  14
  11   9 -14 497.248 245.187  14
   9  11  14 1311.40 378.229   5
  11   9  14 726.644 328.189   5
 -10  11  -1 15084.7 2343.97   6
 -10  11   1 14131.6 2587.05   6
 -11  10  -1 15312.3 2455.34   6
 -11  10   1 17366.2 2855.24   6
  10  11  -1 23094.8 2005.23   5
  11  10  -1 21585.5 1926.90   5
  10  11   1 23172.3 2039.52   5
  11  10   1 21033.9 1919.50   5
 -10  11   3 12544.9 2458.73   6
 -11  10  -3 9699.12 1771.80   6
 -11  10   3 11802.8 2450.70   6
  10  11  -3 14461.3 1562.11   5
  11  10  -3 14208.9 1556.34   5
  10  11   3 14440.3 1588.43   5
  11  10   3 13140.7 1511.75   5
 -10  11  -5 2003.47 1078.73   4
 -11  10  -5 4590.70 1288.30   4
 -10  11   5 8208.86 1987.46   6
 -11  10   5 10553.4 2265.82   6
  10  11   5 14541.4 1562.35   5
  11  10   5 13323.6 1493.91   5
 -11  10  -7 4447.19 1238.18   4
 -10  11   7 4510.75 1485.42   6
 -11  10   7 6446.06 1833.65   6
  10  11   7 7729.67 1145.32   5
  11  10   7 7382.78 1113.38   5
 -10  11  -9 1351.31 703.347   4
 -11  10  -9 2902.09 949.722   4
 -10  11   9 4422.27 1285.62   6
 -11  10   9 3598.53 1149.86   6
 -10  11   9 2787.01 932.909  13
 -11  10   9 2885.22 998.479  13
  10  11   9 6094.07 970.171   5
  11  10   9 4943.18 842.497   5
 -11  10 -11 4580.79 992.692   4
 -10  11 -11 3235.75 839.492   4
 -11  10  11 6887.15 1305.16   6
  10  11 -11 11556.9 1090.50  14
  11  10 -11 11958.9 1109.55  14
  10  11  11 11763.6 1167.53   5
  11  10  11 10820.0 1097.18   5
  10  11 -13 10051.6 747.286  14
  11  10 -13 10310.0 778.332  14
  10  11  13 12128.1 957.104   5
  11  10  13 11094.4 883.498   5
 -11  11   0 20903.4 2675.86   6
  11  11   0 29471.1 2124.66   5
 -11  11  -2 13988.5 1996.25   6
 -11  11   2 14706.3 2400.48   6
  11  11  -2 22187.3 1834.77   5
  11  11   2 21038.7 1822.16   5
 -11  11   4 16083.1 2540.22   6
  11  11   4 24109.5 1891.41   5
 -11  11   6 13756.7 2277.43   6
  11  11   6 17566.6 1536.21   5
 -11  11   8 11577.8 1882.76   6
  11  11   8 18220.8 1464.69   5
 -11  11   8 8737.68 1539.18  13
  11  11 -10 18083.8 1276.37  14
  11  11  10 14755.5 1189.42   5
   0 -12   0 46081.7 8891.47  21
  12   0   0 26903.0 7774.75   9
  12   0   0 40362.1 7109.62  20
   0 -12   0 31724.2 9437.27  20
 -12   0   0 49559.8 7663.68  19
 -12   0   0 47785.6 5041.96   6
 -12   0   0 50641.3 4849.00  16
  12   0   0 41986.6 6432.14   1
   0  12   0 35863.1 4135.99  13
   0  12   0 38492.3 8127.52  22
   0 -12  -2 33267.5 7516.37  21
  12   0   2 10995.1 4836.11   9
   0 -12   2 28299.0 7107.08  21
  12   0   2 29434.8 6095.46  20
  12   0  -2 31746.8 5805.59  20
   0 -12  -2 33118.1 9880.46  20
   0 -12   2 19100.5 7250.43  20
 -12   0   2 40560.9 6971.05  19
 -12   0  -2 40482.6 6949.18  19
 -12   0   2 23193.8 3643.38   6
 -12   0  -2 23477.5 3553.27   6
 -12   0   2 27410.3 3593.12  16
   0  12  -2 28221.7 3696.17  13
   0  12   2 30739.4 4007.74  13
 -12   0   2 37463.4 6962.68  11
  12   0  -2 29621.5 4200.12  23
   0  12  -2 33215.1 7148.60  22
   0  12   2 29751.7 7474.70  22
 -12   0   4 35747.8 4457.36   6
 -12   0  -4 34692.7 4177.44   6
 -12   0   4 32371.7 3730.64  16
   0  12   4 37775.7 4519.33  13
   0  12   6 13277.7 2836.90  13
 -12   0   6 9324.47 2209.49   6
 -12   0  -6 8922.38 2078.19   6
  12   0  -8 15727.4 1419.54   8
 -12   0   8 14035.4 2529.00   6
 -12   0  -8 12935.5 2261.88   6
   0  12   8 15379.1 2872.81  13
  12   0   8 18157.5 1556.23  25
  12   0 -10 33149.7 1985.95   8
 -12   0 -10 28383.0 2629.79   4
   0  12  10 37002.2 4147.53  13
  12   0  10 37212.4 2191.61  25
  12   0 -12 28801.8 1747.77   8
 -12   0 -12 24801.7 2440.75   4
   0 -12 -12 30884.2 2412.89  17
   0  12  12 24741.4 3160.89  13
  12   0  12 27520.1 1819.23  25
  12   0 -14 16942.0 1219.45   8
 -12   0 -14 14829.4 1721.62   4
   0 -12 -14 19270.6 1726.16  17
  12   0  14 18560.1 1361.88  25
  12   0 -16 7582.96 716.291   8
 -12   0 -16 7082.96 1049.13   4
   0 -12 -16 9390.74 1040.07  17
 -12   0 -16 7394.83 1112.69  16
  12   0  16 8736.75 794.406  25
  12   0 -18 3258.97 369.067   8
   0 -12 -18 4791.80 567.772  17
  12  -1   1 20970.6 6447.08   9
  12  -1  -1 16871.7 5539.89   9
  -1 -12  -1 24333.1 6683.08  21
  -1 -12   1 26390.6 6963.56  21
   1 -12  -1 26112.3 6570.93  21
   1 -12   1 20083.6 6031.63  21
  -1 -12   1 19136.7 7394.65  20
   1 -12  -1 18676.0 7306.07  20
   1 -12   1 21977.0 7774.28  20
  12  -1   1 21563.5 5197.93  20
  12  -1  -1 19842.4 4767.62  20
 -12  -1   1 28825.6 5830.17  19
 -12   1   1 24659.2 5205.17  19
 -12  -1  -1 24472.2 5486.64  19
 -12   1  -1 22595.7 5287.54  19
 -12   1   1 25613.6 3823.36   6
 -12   1  -1 24597.8 3798.71   6
 -12  -1   1 27167.9 3933.70   6
 -12  -1  -1 23743.7 3742.84   6
 -12   1   1 25033.2 3491.85  16
 -12  -1   1 28403.4 3643.13  16
 -12   1  -1 24760.5 3560.04  16
   1  12  -1 20575.6 3141.42  13
   1  12   1 23970.4 3421.31  13
  -1  12   1 24068.0 3588.22  13
  -1  12  -1 21614.5 3354.47  13
  12  -1  -1 17465.5 3198.64  23
  12  -1   1 14069.8 2969.43  23
   1  12  -1 24894.0 6273.67  22
  -1  12  -1 24945.4 6190.02  22
   1  12   1 20973.2 5764.94  22
  -1  12   1 23647.9 6542.98  22
 -12  -1  -3 19316.7 7858.66  21
  -1 -12  -3 21181.8 6043.09  21
   1 -12  -3 22072.6 5862.74  21
  -1 -12   3 18706.1 5748.99  21
   1 -12   3 14180.3 5061.30  21
  -1 -12   3 11123.8 5438.66  20
   1 -12   3-2438.27 2800.67  20
 -12   1  -3 15163.4 2891.53   6
 -12   1   3 16797.6 2735.02  16
 -12  -1   3 16114.3 2638.22  16
   1  12   3 16331.1 2906.78  13
  -1  12   3 14224.6 2860.41  13
  -1  12  -3 17498.8 2863.78  13
 -12   1   3 12765.6 2724.15   6
 -12  -1   3 12233.0 2786.28   6
 -12  -1  -3 12083.8 2569.04   6
  12  -1  -3 17054.9 3232.34  23
   1  12  -3 17087.3 4614.57  22
  -1  12  -3 12779.7 4700.91  22
   1  12   3 15449.1 5409.68  22
  -1  12   3 15898.3 5564.70  22
 -12  -1   5 15012.9 2977.60   6
 -12   1  -5 12521.1 2574.42   6
 -12  -1  -5 14397.7 2647.36   6
   1  12   5 13530.9 2844.45  13
 -12   1   5 13922.1 2767.68   6
  -1  12   5 12144.5 2719.03  13
  12   1   5 16730.6 1480.31  25
  12  -1  -7 8789.81 1121.23   8
  12   1  -7 8349.73 1089.70   8
 -12   1  -7 8322.46 1541.50   4
 -12   1   7 8925.26 2283.13   6
   1  12   7 7924.77 2120.15  13
  -1  12   7 7541.05 2044.79  13
 -12  -1   7 6740.37 1721.93   6
 -12   1  -7 5590.02 1527.46   6
 -12  -1  -7 7604.39 1826.84   6
  12   1   7 9531.67 1148.82  25
  12  -1  -9 12641.1 1266.54   8
  12   1  -9 11003.2 1194.32   8
 -12   1  -9 12006.0 1794.07   4
  -1 -12  -9 14917.1 1803.08  17
 -12   1   9 9115.14 2048.02   6
 -12  -1   9 9914.39 2011.13   6
   1  12   9 11540.6 2411.42  13
  -1  12   9 10550.5 2342.81  13
 -12  -1  -9 6593.05 1611.42   6
  12  -1   9 13347.9 1345.10  25
  12   1   9 13545.5 1376.65  25
  12  -1 -11 11343.5 1140.13   8
  12   1 -11 10758.5 1131.15   8
 -12   1 -11 9628.96 1627.92   4
  -1 -12 -11 15718.4 1790.65  17
  12  -1  11 13676.7 1299.56  25
   1  12  11 11219.2 2214.16  13
  -1  12  11 12736.7 2465.07  13
  12   1  11 13019.5 1287.44  25
  12  -1 -13 11081.9 1049.24   8
  12   1 -13 10991.8 1044.98   8
 -12   1 -13 10509.6 1572.24   4
 -12  -1 -13 10949.8 1475.36   4
  -1 -12 -13 12575.0 1496.54  17
   1 -12 -13 13019.1 1501.34  17
  -1  12  13 12234.3 2047.47  13
  12  -1  13 10888.0 1102.63  25
  12   1  13 12886.7 1187.67  25
  12  -1 -15 4601.45 620.683   8
  12   1 -15 4671.43 618.663   8
 -12   1 -15 5948.54 1094.31   4
  -1 -12 -15 5315.10 879.841  17
 -12  -1 -15 5184.14 945.052   4
   1 -12 -15 5341.01 829.665  17
 -12   1 -15 4468.40 1048.64  16
  12   1  15 5210.26 707.071  25
  12  -1 -17 3597.08 455.650   8
  12   1 -17 3296.48 418.835   8
 -12   1 -17 2558.23 609.886   4
  -1 -12 -17 4384.79 653.294  17
   1 -12 -17 3835.27 581.391  17
  -2 -12   0-1818.63 1989.40  21
   2 -12   0 7127.40 3478.28  21
   2 -12   0 5522.92 3984.88  20
  12  -2   0-2841.60 1911.98  20
 -12   2   0 2659.75 1802.01  19
 -12   2   0 2863.64 1419.06  16
   2  12   0 2149.37 1010.76  13
 -12   2   0 1982.41 1037.88   6
  -2  12   0 1197.70 764.815  13
 -12  -2   0 3059.89 1386.56   6
  12  -2   0-2163.15 1199.76  23
   2  12   0 3144.51 2595.04  22
  -2  12   0-116.868 1257.59  22
 -12  -2  -2 4264.23 4081.57  21
  -2 -12  -2 2726.62 2317.03  21
  -2 -12   2-950.584 1550.98  21
   2 -12  -2-4881.74 2803.64  21
   2 -12   2 3443.89 2507.10  21
  -2 -12   2-5383.39 3991.26  20
  12  -2  -2 5170.07 2482.33  20
 -12   2   2 857.934 1130.57  16
 -12  -2   2 472.166 715.804  16
 -12   2  -2 1088.66 1029.20  16
   2  12  -2 520.424 731.844  13
   2  12   2 803.033 669.699  13
 -12   2   2-2631.64 1480.73   6
 -12   2  -2-666.518 940.038   6
  -2  12   2 295.104 783.718  13
  -2  12  -2 747.862 900.227  13
 -12  -2   2-392.561 880.618   6
 -12  -2  -2-53.7861 965.093   6
  12  -2  -2-2044.16 1170.00  23
  12  -2   2 2138.38 1343.15  23
   2  12  -2 2761.81 2233.32  22
  -2  12  -2 4125.80 2650.29  22
   2  12   2-2892.55 2509.93  22
 -12   2  -4-136.034 760.415   4
 -12   2   4-633.410 1058.58  16
 -12   2  -4 530.928 687.748  16
   2  12   4-1536.15 1231.60  13
 -12   2   4-717.087 1384.19   6
  -2  12   4-455.458 966.064  13
  -2  12  -4-351.566 1146.25  13
 -12   2  -4 84.2188 1175.52   6
 -12  -2   4 282.044 1051.22   6
 -12  -2  -4 976.337 1033.02   6
  12  -2  -6 9105.46 1090.86   8
 -12   2  -6 8242.32 1657.93   4
  -2 -12  -6 8923.37 1357.55  17
 -12   2   6 8314.02 2209.26   6
   2  12   6 6900.38 1937.78  13
  -2  12   6 5577.81 1957.64  13
 -12   2  -6 9390.21 2098.51   6
 -12  -2   6 12317.7 2560.78   6
 -12  -2  -6 9702.57 2118.41   6
  12   2   6 9205.06 1134.28  25
  12  -2  -8 2337.38 601.845   8
  12   2  -8 1949.72 567.090   8
 -12   2  -8 2299.30 1065.79   4
  -2 -12  -8 2958.59 826.822  17
 -12   2   8 2948.66 1497.10   6
   2  12   8 2926.40 1162.69  13
 -12  -2   8 1710.82 874.690   6
  -2  12   8 1640.96 1197.66  13
 -12  -2  -8 1757.71 1183.50   6
  12   2   8 2740.71 640.289  25
  12  -2 -10 655.440 323.803   8
  12   2 -10 110.484 260.122   8
 -12   2 -10 424.421 577.914   4
  -2 -12 -10 262.144 398.305  17
 -12   2  10 2190.03 915.563   6
   2  12  10 343.594 637.120  13
  -2  12  10 1334.83 1078.56  13
  12   2  10 230.593 311.479  25
  12  -2 -12-490.243 331.667   8
  12   2 -12-166.186 237.902   8
 -12   2 -12 548.436 575.777   4
  -2 -12 -12-194.213 332.927  17
 -12   2 -12 856.894 872.097  16
   2  12 -12-71.0711 260.830  14
  -2  12  12 450.690 582.876  13
  12   2  12 150.181 211.355  25
  12  -2 -14 15.1765 197.747   8
  12   2 -14-89.2542 216.749   8
 -12   2 -14-432.444 558.923   4
  -2 -12 -14 35.5367 236.357  17
   2 -12 -14-31.3571 230.506  17
 -12   2 -14 335.392 435.923  16
   2  12  14-650.735 385.811  15
  12   2  14 195.179 232.316  25
  12  -2 -16 465.976 234.829   8
  12   2 -16 210.837 146.999   8
 -12   2 -16 157.108 382.511   4
  -2 -12 -16 163.076 194.800  17
   2 -12 -16 191.736 187.334  17
  12   2  16 126.535 198.503  25
 -12   3  -1 1475.57 729.352   4
 -12   3   1-393.304 851.526  16
 -12   3  -1 387.442 841.329  16
 -12  -3   1 1430.48 882.495  16
   3  12  -1 795.555 829.498  13
   3  12   1 563.007 1055.08  13
 -12   3   1 1328.68 1283.88   6
 -12   3  -1 626.491 916.475   6
 -12  -3   1-28.2304 914.896   6
 -12  -3  -1-240.294 913.985   6
 -12   3  -3 2478.80 1072.52   4
 -12   3   3 922.886 696.768  16
 -12   3  -3 506.299 913.497  16
   3  12   3 925.155 1250.51  13
 -12   3   3 2181.43 1385.69   6
 -12   3  -3 1206.44 917.996   6
  -3  12   3 1061.09 1186.02  13
 -12  -3   3 3294.90 1409.56   6
 -12  -3  -3 2036.42 916.094   6
  12  -3  -5 882.169 388.302   8
 -12   3  -5 1455.64 759.509   4
 -12   3  -5 2133.68 1284.41  16
 -12   3   5 391.792 877.436   6
   3  12   5 1117.23 1151.58  13
 -12   3  -5-1381.67 1010.72   6
  -3  12   5 1011.03 961.571  13
 -12  -3   5 115.682 936.103   6
 -12  -3  -5 1486.09 900.371   6
  12   3   5 992.870 367.316  25
  12  -3  -7 3440.36 668.215   8
 -12   3  -7 2183.21 934.860   4
  -3 -12  -7 4479.70 974.265  17
 -12   3  -7 4965.61 1579.62  16
 -12   3   7 5390.53 1947.88   6
   3  12   7 3880.07 1426.32  13
 -12   3  -7 2096.22 1006.92   6
  -3  12   7 3896.99 1688.66  13
 -12  -3   7 3988.82 1540.62   6
 -12  -3  -7 737.300 757.441   6
  12   3   7 4528.72 791.925  25
  12  -3  -9 1136.41 434.674   8
  12   3  -9 1034.83 445.516   8
 -12   3  -9 1156.06 825.873   4
  -3 -12  -9 692.851 372.082  17
 -12   3  -9 187.436 687.865  16
 -12   3   9 1595.10 1082.12   6
   3  12   9 305.441 692.934  13
  -3  12   9-937.889 1075.35  13
 -12  -3  -9 509.302 775.068   6
  12   3   9 1075.94 428.008  25
  12  -3 -11 1000.34 334.442   8
  12   3 -11 1094.14 392.564   8
 -12   3 -11 1241.72 744.174   4
  -3 -12 -11 511.085 429.433  17
 -12   3 -11 1372.57 886.724  16
   3  12  11-96.5314 573.543  15
 -12   3  11 1093.64 972.011   6
   3  12 -11 1097.28 462.984  14
  -3  12  11 605.572 990.545  13
  12   3  11 645.365 400.834  25
  12  -3 -13 1289.62 365.563   8
  12   3 -13 600.575 308.493   8
 -12   3 -13 1043.39 642.073   4
  -3 -12 -13 2023.59 672.107  17
 -12   3 -13-325.030 552.188  16
   3  12  13 1151.50 613.089  15
   3  12 -13 1073.59 365.719  14
  -3  12  13 1848.33 920.972  13
  12   3  13 1364.64 431.012  25
  12  -3 -15 328.616 190.543   8
  12   3 -15-110.535 159.410   8
 -12   3 -15 532.490 445.968   4
  -3 -12 -15 244.341 239.423  17
   3 -12 -15-21.2864 173.697  17
  12   3  15 135.098 195.405  25
  12  -3 -17-228.130 167.460   8
  12   3 -17 403.104 170.048   8
 -12   3 -17 165.729 291.906   4
   3 -12 -17 75.6210 102.515  17
  12   3  17 141.539 131.487  25
 -12   4   0 3866.37 1162.95   4
  -4  12   0 5063.24 1723.66   6
 -12   4   0 4099.76 1647.26  16
   4  12   0 4763.56 1278.53  15
   4  12   0 5938.97 1698.25  13
 -12   4   0 5296.44 1912.90   6
 -12  -4   0 8053.66 2212.52   6
   4  12   0 6641.41 1011.83   5
  12   4   0 4208.64 784.403   5
 -12   4  -2 1555.56 978.070   4
  -4  12   2 1424.94 1052.64   6
 -12   4   2 2423.01 1276.31  16
 -12   4  -2 1091.55 750.714  16
   4  12  -2 2366.70 878.649  15
 -12   4   2 1230.13 1144.33   6
   4  12   2 2265.75 1096.06  13
 -12   4  -2 677.006 873.940   6
 -12  -4   2 1760.71 1137.03   6
   4  12  -2 2833.49 897.368   5
  12   4  -2 516.335 343.127   5
   4  12   2 1503.05 481.066   5
  12   4   2 1458.72 511.637   5
 -12   4  -4 5283.48 1439.13   4
  -4  12   4 2729.75 1434.35   6
 -12   4  -4 4275.44 1436.61  16
 -12   4   4 5736.28 2008.66   6
   4  12   4 4910.22 1713.76  13
 -12   4  -4 4822.15 1656.12   6
 -12  -4   4 5082.56 1670.53   6
   4  12   4 7532.39 1150.87   5
   4  12  -4 5754.66 994.146   5
  12   4  -4 5366.67 932.084   5
  12   4   4 4802.89 867.177   5
  12   4   6 3681.33 818.655   5
 -12   4  -6 4319.29 1258.94   4
  -4  12   6 2741.90 1431.71   6
  -4 -12  -6 7115.39 1237.87  17
 -12   4  -6 4213.30 1489.76  16
 -12   4   6 6394.06 2018.51   6
 -12   4  -6 3049.87 1358.05   6
   4  12   6 4906.30 1710.21  13
  -4  12   6 3189.45 1568.33  13
 -12  -4   6 4063.78 1787.13   6
  12   4   6 5419.06 846.517  25
   4  12   6 4098.54 914.116   5
   4  12   8 3722.61 813.647   5
  12   4   8 2587.51 650.803   5
  12  -4  -8 2786.59 563.891   8
  12   4  -8 2904.98 662.970   8
 -12   4  -8 2856.11 1089.07   4
  -4 -12  -8 3787.13 980.256  17
 -12   4  -8 1909.21 1182.26  16
 -12   4   8 1953.66 1207.82   6
   4  12  -8 4946.00 944.740  14
  -4  12   8 2401.72 1335.16  13
 -12  -4  -8 1713.37 1063.12   6
  12   4   8 3760.92 697.429  25
   4  12  10 1750.45 598.400   5
  12   4  10 948.235 448.103   5
  12  -4 -10 850.741 275.898   8
  12   4 -10 1067.35 437.929   8
 -12   4 -10 901.969 872.729   4
  -4 -12 -10 1388.82 634.690  17
 -12   4 -10 324.280 497.617  16
   4  12  10 2218.71 962.933  15
 -12   4  10 529.314 693.502   6
   4  12 -10 2048.62 584.484  14
  -4  12  10 448.353 747.110  13
 -12  -4 -10 125.604 741.663   6
  12   4  10 880.837 374.568  25
   4  12  12 2398.26 700.349   5
  12   4  12 1552.10 430.723   5
  12  -4 -12 2371.47 437.052   8
  12   4 -12 1904.44 468.513   8
 -12   4 -12 2789.51 914.501   4
  -4 -12 -12 1863.48 671.142  17
 -12   4 -12 1055.32 695.775  16
   4  12  12 1405.27 711.285  15
   4  12 -12 2303.34 539.208  14
  -4  12  12 1240.75 657.908  13
  12   4  12 1811.97 489.133  25
  12  -4 -14 2388.45 405.757   8
  12   4 -14 1747.22 369.078   8
 -12   4 -14 2181.11 712.375   4
  -4 -12 -14 1899.29 572.655  17
   4  12  14 2476.68 722.009  15
   4  12 -14 1482.23 376.233  14
  12   4 -14 1409.14 334.276  14
  12   4  14 1760.09 450.130  25
  12   4 -16 2765.39 373.776   8
  12  -4 -16 1412.04 255.049   8
 -12   4 -16 2244.20 623.442   4
   4 -12 -16 2662.88 489.173  17
  12   4  16 3343.93 466.450  25
 -12   5  -1 21671.8 2768.98   4
  -5  12  -1 20722.7 3099.27   6
  -5  12   1 18632.9 3202.38   6
 -12   5   1 29523.7 4175.92   6
 -12   5  -1 29645.6 4020.57   6
 -12  -5   1 30875.4 4273.48   6
 -12   5  -1 23697.7 3568.85  16
   5  12  -1 34498.1 3309.10  15
   5  12   1 30368.6 3232.20  15
   5  12  -1 32968.9 2292.27   5
  12   5  -1 25962.2 1952.82   5
   5  12   1 28503.3 2214.77   5
  12   5   1 24724.2 1889.99   5
 -12   5  -3 22980.7 2815.63   4
  -5  12   3 14292.7 3164.15   6
 -12   5   3 28886.5 4096.20   6
 -12   5  -3 22936.1 3317.03   6
 -12  -5   3 24841.4 3716.02   6
 -12   5  -3 24382.8 3459.58  16
   5  12   3 31019.1 3393.88  15
   5  12  -3 27159.9 2107.95   5
  12   5  -3 22446.9 1879.71   5
   5  12   3 23747.2 2108.99   5
  12   5   3 20065.6 1772.85   5
 -12   5  -5 12823.3 2103.36   4
  -5  12   5 6454.89 2028.22   6
 -12   5  -5 9514.97 2114.36  16
   5  12   5 14395.3 2382.36  15
 -12   5   5 11192.7 2597.17   6
 -12   5  -5 8674.74 1903.00   6
 -12  -5   5 10546.2 2290.02   6
   5  12  -5 13727.5 1506.95   5
  12   5  -5 10864.0 1286.67   5
   5  12   5 11193.3 1492.48   5
  12   5   5 8663.83 1268.33   5
  12   5  -7 7871.31 1063.85   8
 -12   5  -7 9189.24 1738.28   4
  -5 -12  -7 14788.8 1858.37  17
  -5  12   7 8060.76 2192.71   6
 -12   5  -7 7738.34 1866.06  16
   5  12   7 12239.4 2182.83  15
 -12   5   7 10665.4 2462.03   6
  -5  12   7 8529.97 2255.21  13
  12   5   7 12959.9 1227.40  25
   5  12   7 10394.1 1496.21   5
  12   5   7 8331.07 1218.97   5
  12   5  -9 15939.3 1329.50   8
 -12   5  -9 14508.9 2163.79   4
  -5 -12  -9 20496.0 2129.86  17
 -12   5   9 13885.5 2524.80   6
 -12   5  -9 10983.0 1908.64  16
   5  12   9 20420.2 2595.66  15
   5  12  -9 23902.2 1988.10  14
  -5  12   9 11679.7 2436.34  13
 -12  -5  -9 10252.9 2009.22   6
  12   5   9 20401.0 1512.77  25
   5  12   9 20677.7 1856.74   5
  12   5   9 13736.1 1377.60   5
  12   5 -11 11788.1 1055.02   8
 -12   5 -11 11515.3 1767.75   4
  -5 -12 -11 15096.2 1778.38  17
   5  12  11 13643.0 1970.40  15
 -12   5  11 8690.17 1815.88   6
   5  12 -11 16334.5 1378.99  14
  -5  12  11 10211.2 1961.28  13
 -12  -5 -11 7712.84 1488.78   6
  12   5  11 15211.8 1251.30  25
   5  12  11 13714.4 1472.07   5
  12   5  11 8903.88 1108.60   5
  12   5 -13 15367.5 1063.08   8
 -12   5 -13 12643.4 1707.27   4
  -5 -12 -13 14217.6 1576.50  17
   5  12  13 16366.9 1831.20  15
   5  12 -13 16669.7 1254.80  14
  12   5 -13 18847.5 1405.27  14
  12   5  13 15303.9 1197.62  25
   5  12  13 15432.9 1491.98   5
  12   5  13 12296.1 1130.48   5
  12   5 -15 10088.5 700.797   8
 -12   5 -15 9343.20 1239.43   4
   5  12 -15 11074.2 843.820  14
  12   5 -15 9553.43 701.594  14
  12   5  15 11419.9 872.275  25
   5  12  15 11033.3 961.375   5
  -6  12   0 24283.8 3323.48   6
 -12   6   0 31181.5 4103.36   6
   6  12   0 38577.9 3536.21  15
   6  12   0 38633.3 2543.95   5
  12   6   0 30441.2 2157.49   5
 -12   6  -2 22013.0 2757.35   4
  -6  12  -2 20255.2 2907.19   6
  -6  12   2 18166.2 3225.71   6
 -12   6   2 27485.1 3948.03   6
 -12   6  -2 26438.2 3599.81   6
 -12  -6   2 26707.0 3838.64   6
   6  12  -2 37853.0 3298.92  15
   6  12   2 33302.7 3426.06  15
   6  12  -2 30006.9 2315.02   5
  12   6  -2 24142.5 1993.54   5
   6  12   2 31675.5 2330.57   5
  12   6   2 27209.9 2064.79   5
 -12   6  -4 8725.42 1790.86   4
  -6  12   4 7825.16 2157.29   6
 -12   6  -4 8934.88 2192.17  16
   6  12   4 13354.4 2245.43  15
 -12   6   4 7748.27 2238.31   6
 -12   6  -4 9347.47 2007.22   6
 -12  -6   4 7416.08 2055.35   6
   6  12  -4 11023.3 1405.28   5
  12   6  -4 9790.80 1245.64   5
   6  12   4 10393.6 1417.07   5
  12   6   4 9043.17 1222.76   5
 -12   6  -6 15612.2 2265.50   4
  -6  12   6 11576.7 2501.56   6
 -12   6  -6 11956.6 2265.81  16
   6  12   6 17500.1 2529.44  15
 -12   6   6 13993.2 2700.83   6
 -12  -6   6 13102.9 2400.14   6
   6  12   6 17766.2 1760.47   5
  12   6   6 13482.5 1474.36   5
  12   6  -8 16844.9 1329.83   8
 -12   6  -8 18296.9 2318.94   4
  -6  12   8 16348.4 2902.07   6
  -6 -12  -8 19955.6 2107.76  17
 -12   6   8 18426.1 2873.27   6
 -12   6  -8 12936.8 2207.27  16
   6  12   8 23409.4 2793.43  15
  -6  12   8 17110.4 2867.40  13
  12   6   8 22401.4 1513.03  25
   6  12   8 22627.1 1962.56   5
  12   6   8 15352.3 1576.40   5
  12   6 -10 18607.6 1288.99   8
 -12   6 -10 17800.2 2189.02   4
  -6 -12 -10 23322.5 2215.25  17
 -12   6  10 17293.8 2513.05   6
 -12  -6 -10 14509.2 2217.94   6
   6  12  10 23842.6 2588.24  15
   6  12 -10 30003.5 1977.36  14
  -6  12  10 14153.5 2447.56  13
  12   6  10 23250.8 1512.10  25
   6  12  10 21773.1 1917.01   5
  12   6  10 19101.4 1601.25   5
  12   6 -12 9606.24 834.571   8
 -12   6 -12 8856.02 1454.09   4
 -12   6  12 7600.56 1422.42   6
   6  12  12 14031.4 1726.26  15
   6  12 -12 13606.4 1186.78  14
  -6  12  12 8709.45 1558.75  13
  12   6  12 13913.0 1085.55  25
   6  12  12 11321.4 1257.41   5
  12   6  12 8249.55 976.604   5
  12   6 -14 9029.30 657.976   8
 -12   6 -14 8058.73 1203.96   4
   6  12 -14 11615.2 920.003  14
  12   6 -14 11759.6 910.089  14
  12   6  14 12191.3 885.436  25
   6  12  14 10915.2 1068.58   5
  12   6  14 8176.10 848.354   5
 -12   6 -16 3864.56 667.819   4
   6 -12 -16 4378.13 497.461  17
 -12   7  -1 2244.88 944.078   4
  -7  12  -1 6421.47 1691.20   6
  -7  12   1 5663.90 1775.86   6
   7  12  -1 14724.0 2112.36  15
   7  12   1 13888.1 2102.53  15
 -12   7   1 5818.40 1940.40   6
 -12   7  -1 8604.88 2169.23   6
   7  12  -1 9394.42 1345.21   5
  12   7  -1 8276.29 1235.13   5
   7  12   1 10220.8 1394.56   5
  12   7   1 8890.12 1294.48   5
 -12   7  -3 637.071 553.028   4
  -7  12   3 1100.72 1079.64   6
   7  12   3 1028.66 823.750  15
 -12   7   3 1263.22 1122.44   6
 -12   7  -3 932.378 1166.15   6
 -12  -7   3 904.206 1095.28   6
   7  12  -3 602.077 545.287   5
  12   7  -3-167.508 414.495   5
   7  12   3 803.854 646.433   5
  12   7   3 912.189 489.223   5
  -7  12  -5 251.881 567.854   4
 -12   7  -5 2173.03 1057.55   4
  -7  12   5 2553.39 1202.96   6
   7  12   5 4257.31 1278.29  15
 -12   7   5 2622.26 1369.19   6
 -12  -7   5 2816.42 1344.18   6
   7  12  -5 3065.84 785.507   5
  12   7  -5 2584.12 781.775   5
   7  12   5 2685.51 843.330   5
  12   7   5 1709.14 707.424   5
  12   7  -7 7153.26 877.788   8
  -7  12  -7 1891.17 869.730   4
 -12   7  -7 8739.45 1669.73   4
  -7  12   7 5729.46 1952.44   6
   7  12   7 11834.9 1964.39  15
 -12   7   7 7278.37 2061.49   6
  -7  12   7 7154.36 1941.16  13
   7  12   7 9141.12 1418.16   5
  12   7   7 7480.00 1190.88   5
  12   7  -9 1557.43 405.886   8
  -7  12  -9 601.448 569.354   4
 -12   7  -9 1835.80 821.965   4
  -7  12   9 1202.47 914.114   6
 -12   7   9 1298.49 1056.80   6
   7  12   9 3389.94 977.391  15
  -7  12   9 1688.44 981.557  13
   7  12   9 1605.77 602.187   5
  12   7   9 2491.33 707.745   5
   7  12  11 1773.44 622.540   5
  12   7  11 2214.32 605.850   5
  12   7 -11 1526.06 349.974   8
 -12   7 -11 1998.40 819.694   4
 -12   7  11 2710.86 1085.75   6
   7  12  11 3732.61 959.283  15
   7  12 -11 3887.92 702.181  14
  -7  12  11 2447.36 1017.95  13
 -12  -7 -11 350.654 613.569   6
  12   7  11 3498.79 499.389  25
 -12   7 -13 947.508 475.198   4
   7  12 -13 2231.24 452.186  14
  12   7 -13 2926.91 555.715  14
  12   7  13 2379.99 367.813  25
   7  12  13 1634.48 470.872   5
  12   7  13 2057.72 484.487   5
 -12   7 -15 655.366 359.119   4
  -8  12   0 366.807 787.244   6
   8  12   0 461.233 425.578  15
 -12   8   0 1479.94 1120.39   6
   8  12   0 36.8338 461.489   5
  12   8   0 281.166 495.476   5
 -12   8  -2 317.398 551.704   4
  -8  12  -2 1973.76 928.586   6
  -8  12   2-510.720 965.453   6
   8  12   2 580.920 911.022  15
 -12   8  -2 115.083 960.873   6
 -12   8   2 1435.85 1171.76   6
 -12  -8   2-2112.44 1526.02   6
   8  12  -2 1143.63 606.790   5
  12   8  -2 906.846 511.816   5
   8  12   2-346.313 593.470   5
  12   8   2 267.566 418.315   5
 -12   8  -4-557.102 816.686   4
  -8  12   4 733.788 837.689   6
   8  12   4-609.126 627.296  15
 -12   8  -4 387.417 648.267   6
 -12   8   4 870.844 1275.76   6
 -12  -8   4 373.869 778.445   6
   8  12  -4 206.807 466.450   5
  12   8  -4-154.551 447.805   5
   8  12   4 484.310 512.810   5
  12   8   4 562.788 513.280   5
  -8  12  -6-244.317 700.156   4
  12   8  -6 370.185 196.914   8
 -12   8  -6 950.845 838.332   4
  -8  12   6 2593.53 1304.98   6
   8  12   6 934.041 725.035  15
 -12   8   6 1326.34 1206.69   6
   8  12   6 273.813 474.317   5
  12   8   6 521.208 461.910   5
  12   8  -8 212.508 216.486   8
  -8  12  -8-105.066 575.575   4
 -12   8  -8 572.588 639.502   4
  -8  12   8-320.804 810.968   6
 -12   8   8 992.102 956.690   6
   8  12   8 777.741 533.793  15
  -8  12   8 389.024 877.095  13
   8  12   8-466.954 517.894   5
  12   8   8 172.190 374.065   5
  -8  12 -10-316.053 432.734   4
 -12   8 -10 797.510 653.623   4
 -12   8  10 1083.06 858.231   6
   8  12 -10 16.5385 301.211  14
  -8  12  10-482.413 603.983  13
   8  12  10 935.990 531.291   5
  12   8  10 438.033 352.940   5
 -12   8 -12 36.0900 358.572   4
 -12   8  12-106.531 434.190   6
   8  12 -12 509.307 303.669  14
  12   8 -12 274.606 297.486  14
   8  12  12-77.0775 326.438   5
  12   8  12 371.274 341.994   5
 -12   8 -14 484.991 318.104   4
  -9  12  -1-775.806 869.443   6
  -9  12   1 598.849 818.652   6
 -12   9  -1 1112.28 1037.22   6
 -12   9   1 845.304 1029.44   6
   9  12  -1-392.978 500.908   5
  12   9  -1-135.540 446.531   5
   9  12   1-437.606 554.669   5
  12   9   1 264.289 458.207   5
 -12   9  -3-720.768 891.017   4
  -9  12   3 529.317 987.125   6
 -12   9  -3 570.966 656.993   6
 -12   9   3 1291.20 1210.76   6
 -12  -9   3 2055.82 1205.79   6
   9  12  -3 1040.73 559.342   5
  12   9  -3 1080.12 519.845   5
   9  12   3 1226.47 601.751   5
  12   9   3 789.065 482.467   5
 -12   9  -5 355.382 577.583   4
  -9  12   5 542.458 770.998   6
 -12   9   5 2962.54 1411.68   6
   9  12   5 2113.27 724.881   5
  12   9   5 1031.05 549.045   5
 -12   9  -7-232.963 603.061   4
  -9  12   7-906.824 878.899   6
 -12   9   7 175.118 712.351   6
  -9  12   7 54.9212 658.812  13
   9  12   7 808.238 554.793   5
  12   9   7-39.4245 446.225   5
 -12   9  -9 167.636 407.178   4
  -9  12   9 338.002 656.029   6
 -12   9   9-68.6219 674.271   6
  -9  12   9-511.254 574.703  13
   9  12   9 35.2048 351.047   5
  12   9   9 1025.56 453.192   5
 -12   9 -11 417.787 410.780   4
 -12   9  11-102.580 397.029   6
   9  12 -11 123.551 191.299  14
 -12  -9 -11-911.563 558.998   6
   9  12  11-26.1611 326.544   5
  12   9  11 220.189 303.237   5
 -10  12   0 3155.32 1108.34   6
 -12  10   0 5882.43 1558.94   6
  10  12   0 7403.14 1077.60   5
  12  10   0 5880.57 951.616   5
 -10  12   2 5625.96 1500.33   6
 -12  10  -2 3033.02 1029.06   6
 -12  10   2 6831.73 1717.22   6
 -12 -10   2 5411.28 1681.70   6
  10  12  -2 7553.40 1089.42   5
  12  10  -2 7305.27 1049.62   5
  10  12   2 6765.73 1057.71   5
  12  10   2 6018.41 1001.06   5
 -10  12   4 5699.25 1539.11   6
 -12  10   4 5735.16 1600.34   6
  10  12   4 10231.3 1244.79   5
  12  10   4 8565.21 1135.49   5
 -12  10  -6-461.053 715.346   4
 -10  12   6 2543.52 1059.19   6
 -12  10   6 2294.73 1094.09   6
  10  12   6 2843.76 710.749   5
  12  10   6 1516.43 534.171   5
 -12  10  -8-283.160 380.738   4
 -10  12   8 513.397 643.774   6
 -12  10   8 1389.49 798.659   6
 -10  12   8 2685.48 938.798  13
 -12  10   8 808.679 665.576  13
  10  12   8 2538.45 623.930   5
  12  10   8 2120.72 555.803   5
 -12  10 -10 931.859 407.916   4
 -12  10  10 3112.09 872.468   6
  10  12 -10 5329.97 650.445  14
 -12 -10 -10 1744.13 710.020   6
  10  12  10 5061.56 712.409   5
  12  10  10 3963.77 621.840   5
 -11  12  -1 8306.87 1331.60   6
 -12  11  -1 8936.78 1497.39   6
 -12  11   1 9071.85 1622.42   6
 -11  12   1 7840.48 1493.79   6
 -12 -11   1 6685.77 1769.02   6
  11  12  -1 13630.9 1290.06   5
  12  11  -1 13600.5 1298.39   5
  11  12   1 14545.5 1352.17   5
  12  11   1 13694.8 1297.05   5
 -11  12   3 9405.85 1713.75   6
 -12  11   3 8829.01 1738.91   6
  11  12   3 14452.2 1327.15   5
  12  11   3 10720.6 1141.67   5
 -11  12   5 6850.63 1490.07   6
 -12  11   5 7453.97 1556.06   6
  11  12   5 10597.9 1110.85   5
  12  11   5 9810.60 1062.30   5
 -11  12   7 8023.76 1423.83   6
 -12  11   7 7142.64 1398.31   6
 -11  12   7 5327.68 1092.96  13
 -12  11   7 6785.57 1249.15  13
  11  12   7 12041.0 1121.11   5
  12  11   7 10759.4 1025.06   5
  12  11  -9 13891.3 1016.41  14
  11  12   9 11440.4 933.324   5
 -12 -12   0 2874.15 987.893   6
  12  12   0 8440.41 920.334   5
 -12  12   2 3623.17 883.592   6
  12  12   2 4256.78 666.373   5
 -12  12   4 1139.63 579.307   6
  12  12   4 1640.86 425.170   5
 -12 -12  -6 1661.43 895.088   6
  12  12   6 5995.54 679.830   5
 -13   0   1 2107.65 634.479  16
 -13   0  -1 1941.99 989.837  16
   0  13  -1 899.686 989.280  13
   0  13   1 1091.65 1210.84  13
 -13   0   1 1518.12 1491.76   6
 -13   0  -1 518.393 1117.23   6
 -13   0   3 6283.96 1816.14  16
 -13   0  -3 7465.95 2112.62  16
   0  13  -3 6223.65 1591.01  13
   0  13   3 4875.41 1636.15  13
 -13   0   3 6498.32 2235.24   6
 -13   0  -3 8576.34 2335.67   6
   0  13   5 1474.58 1348.88  13
 -13   0   5 1181.75 932.523   6
 -13   0  -5 1582.17 1100.77   6
  13   0  -7 266.907 224.671   8
 -13   0   7 114.260 979.947   6
   0  13   7-626.581 978.936  13
 -13   0  -7 472.326 835.383   6
  13   0  -9 10182.1 1107.94   8
   0 -13  -9 13437.8 1669.47  17
 -13   0   9 8958.61 2000.56   6
   0  13   9 14087.2 2668.86  13
  13   0 -11 1903.14 473.364   8
   0 -13 -11 2160.23 630.724  17
   0  13  11 2232.61 1018.49  13
  13   0 -13 26.0077 170.532   8
   0 -13 -13 586.444 346.216  17
 -13   0 -13 35.3897 556.547  16
  13   0 -15 4.87959 128.316   8
   0 -13 -15 524.170 263.479  17
 -13   0 -15 983.610 426.774  16
 -13   1   0 520.177 829.290  16
 -13  -1   0 1082.49 951.210  16
   1  13   0 1291.58 1424.09  13
  -1  13   0-369.585 1047.31  13
 -13   1   0 1569.19 1223.63   6
 -13  -1   0 185.567 1142.29   6
 -13   1   2 295.982 881.607  16
 -13  -1   2 681.170 870.237  16
 -13   1  -2 553.317 831.811  16
 -13  -1  -2 2299.29 1285.51  16
   1  13  -2-621.185 784.774  13
   1  13   2 720.252 1205.77  13
  -1  13  -2 166.701 669.671  13
  -1  13   2-821.445 915.869  13
 -13   1   2-938.582 1226.21   6
 -13   1  -2 2010.90 1436.15   6
 -13  -1   2 228.772 887.145   6
 -13  -1  -2-275.871 897.295   6
 -13  -1   4 1134.19 887.488  16
 -13   1  -4 1454.73 910.435  16
   1  13   4 841.685 1000.02  13
 -13   1   4-40.5659 968.010   6
  -1  13   4 720.280 828.861  13
 -13  -1   4 15.7032 993.363   6
 -13   1  -4 1523.67 1162.93   6
 -13  -1  -4 636.032 893.687   6
  13  -1  -6 454.096 287.169   8
  -1 -13  -6 648.052 392.301  17
 -13   1  -6 511.302 840.754  16
 -13   1   6 1493.39 1216.80   6
   1  13   6 118.591 750.039  13
  -1  13   6 351.979 753.491  13
 -13  -1   6 1507.37 1119.26   6
 -13   1  -6-165.856 969.262   6
 -13  -1  -6 2110.77 1243.53   6
  13  -1  -8 698.487 377.432   8
  13   1  -8 511.827 298.962   8
  -1 -13  -8 415.399 373.052  17
 -13   1   8 616.612 791.991   6
 -13  -1   8-1789.76 1257.48   6
   1  13   8 605.136 1026.87  13
  -1  13   8 451.816 1024.86  13
 -13   1  -8 27.1169 727.614   6
 -13  -1  -8 910.689 914.722   6
  13  -1 -10 513.795 305.054   8
  13   1 -10 392.017 260.434   8
 -13   1 -10 422.208 362.158   4
  -1 -13 -10 365.228 348.763  17
 -13   1 -10 1332.29 886.701  16
 -13   1  10-277.792 851.150   6
   1  13  10 1001.89 724.641  13
  -1  13  10 826.331 789.759  13
  13   1  10 624.816 366.849  25
  13  -1 -12-433.888 277.581   8
  13   1 -12 443.036 265.905   8
 -13   1 -12 233.424 417.062   4
  -1 -13 -12 312.965 327.252  17
   1 -13 -12 37.7022 286.916  17
 -13   1 -12-221.857 647.659  16
  -1  13  12 125.256 727.482  13
  13   1  12 153.925 232.541  25
  13  -1 -14 324.674 195.896   8
  13   1 -14 180.964 177.398   8
 -13   1 -14-296.164 354.393   4
  -1 -13 -14 278.655 258.043  17
   1 -13 -14-69.3409 180.395  17
 -13   1 -14-179.773 379.495  16
   1  13  14 88.1706 401.589  15
  13  -1 -16 238.001 169.327   8
  13   1 -16 132.586 156.256   8
  -1 -13 -16 95.8649 135.063  17
   1 -13 -16 167.488 183.292  17
 -13   2   1 4977.97 1734.88  16
 -13   2  -1 5729.64 1996.45  16
 -13  -2   1 6160.23 1818.81  16
 -13  -2  -1 6183.85 1826.28  16
   2  13  -1 6441.24 1604.76  13
   2  13   1 5484.27 1628.64  13
 -13   2   1 8048.13 2345.99   6
 -13   2  -1 7164.17 2098.91   6
  -2  13   1 5658.13 2054.90  13
  -2  13  -1 4778.39 1810.77  13
 -13  -2   1 7733.97 2316.29   6
 -13  -2  -1 8891.13 2389.12   6
 -13   2   3 3666.26 1485.46  16
 -13  -2   3 3558.82 1497.64  16
 -13   2  -3 5930.36 1794.30  16
   2  13   3 6464.53 1879.30  13
 -13   2   3 4746.15 1970.91   6
 -13   2  -3 5144.85 1819.43   6
  -2  13   3 5937.41 1968.76  13
  -2  13  -3 6964.10 1857.91  13
 -13  -2   3 6271.03 2104.03   6
 -13  -2  -3 4273.16 1734.95   6
  13  -2  -5 4595.73 819.404   8
 -13   2  -5 4714.46 1607.94  16
 -13   2   5 6890.60 2022.76   6
   2  13   5 5827.98 1898.73  13
 -13   2  -5 3789.14 1525.99   6
  -2  13   5 5065.83 1823.94  13
 -13  -2   5 6514.26 1896.64   6
 -13  -2  -5 5280.40 1758.91   6
  13  -2  -7 1018.53 433.389   8
  13   2  -7 1485.84 461.216   8
 -13   2  -7-173.349 422.197   4
  -2 -13  -7 262.015 282.295  17
 -13   2  -7-88.1116 920.613  16
 -13   2   7 395.438 876.622   6
   2  13   7 969.386 1039.78  13
 -13   2  -7 657.263 708.653   6
 -13  -2   7 70.6045 895.513   6
  -2  13   7-212.853 825.770  13
 -13  -2  -7 397.774 714.616   6
  13  -2  -9 6711.18 859.154   8
  13   2  -9 7227.75 919.288   8
 -13   2  -9 5949.24 1235.42   4
  -2 -13  -9 6121.78 1102.71  17
 -13   2  -9 6971.78 1720.87  16
 -13   2   9 5085.84 1449.88   6
   2  13   9 6523.22 1854.00  13
  -2  13   9 7225.16 1980.35  13
 -13  -2  -9 5720.32 1501.86   6
  13   2   9 6713.93 939.697  25
  13  -2 -11 4623.12 680.210   8
  13   2 -11 6091.26 801.373   8
 -13   2 -11 5368.91 1175.24   4
  -2 -13 -11 5143.94 986.547  17
 -13   2 -11 3553.87 1204.93  16
  -2  13  11 5882.42 1640.86  13
  13   2  11 5867.98 787.020  25
  13  -2 -13 4480.53 586.253   8
  13   2 -13 4406.41 592.040   8
 -13   2 -13 3787.59 890.869   4
  -2 -13 -13 4474.56 853.558  17
   2 -13 -13 4104.17 743.873  17
 -13   2 -13 3430.36 903.208  16
   2  13  13 4493.42 1073.21  15
  -2  13  13 4942.78 1204.66  13
  13   2  13 4388.84 644.051  25
  13  -2 -15 3741.98 441.029   8
  13   2 -15 3810.62 479.002   8
 -13   2 -15 3100.41 658.211   4
   2 -13 -15 3266.96 563.028  17
  -2 -13 -15 2956.30 576.960  17
 -13   3   0 7477.64 1990.31  16
 -13  -3   0 9182.83 2177.91  16
   3  13   0 11593.2 2322.30  13
 -13   3   0 10291.4 2559.65   6
  -3  13   0 6878.27 2106.23  13
 -13  -3   0 10135.5 2473.06   6
 -13   3   2 4972.26 1815.04  16
 -13   3  -2 6589.35 1933.74  16
 -13  -3   2 5691.68 1625.81  16
   3  13  -2 7218.10 1383.46  15
 -13   3   2 5743.78 2012.69   6
   3  13   2 8871.39 2212.69  13
 -13   3  -2 6469.98 2034.38   6
  -3  13   2 6758.35 2185.24  13
  -3  13  -2 6850.15 2036.50  13
 -13  -3   2 5113.22 2050.55   6
 -13  -3  -2 6587.51 2122.94   6
  13  -3  -4 7488.66 912.763   8
 -13   3  -4 9445.28 1808.29   4
 -13   3  -4 7641.16 2062.26  16
   3  13   4 11152.9 2505.49  13
 -13   3   4 11476.0 2826.36   6
 -13   3  -4 6403.10 1914.45   6
  -3  13   4 7636.30 2222.49  13
  -3  13  -4 9261.63 2132.04  13
 -13  -3   4 9292.89 2461.22   6
 -13  -3  -4 7867.92 2137.83   6
  13  -3  -6 3312.90 608.186   8
 -13   3  -6 2482.14 982.749   4
 -13   3  -6 2165.01 1271.34  16
 -13   3   6 4700.92 1840.00   6
   3  13   6 3963.70 1650.50  13
 -13   3  -6 3231.23 1296.65   6
  -3  13   6 2901.27 1455.58  13
 -13  -3   6 2745.81 1317.16   6
 -13  -3  -6 2464.31 1294.99   6
  13  -3  -8 13968.3 1201.51   8
  13   3  -8 16640.1 1430.23   8
 -13   3  -8 14734.2 2056.46   4
  -3 -13  -8 13651.9 1668.36  17
 -13   3   8 15469.9 2705.40   6
 -13  -3   8 13965.1 2407.20   6
 -13  -3  -8 13376.0 2342.98   6
 -13   3  -8 14615.8 2479.70  16
   3  13   8 18739.5 3136.37  13
  -3  13   8 12608.9 2586.72  13
  13  -3 -10 10862.9 967.228   8
  13   3 -10 11733.0 1118.25   8
 -13   3 -10 8881.71 1564.90   4
  -3 -13 -10 11320.5 1487.13  17
 -13   3 -10 10058.5 1917.53  16
   3  13  10 11134.0 1904.01  15
 -13   3  10 10333.8 1933.75   6
  -3  13  10 11135.6 2158.05  13
 -13  -3 -10 9810.22 1661.07   6
  13   3  10 12546.9 1154.07  25
  13  -3 -12 6978.59 705.211   8
  13   3 -12 7218.81 801.372   8
 -13   3 -12 6576.23 1210.47   4
  -3 -13 -12 7424.72 1136.13  17
 -13   3 -12 4613.80 1108.92  16
   3  13  12 7664.21 1439.92  15
  -3  13  12 7798.91 1645.77  13
  13   3  12 7721.09 854.878  25
  13  -3 -14 2542.36 384.833   8
  13   3 -14 2430.88 398.177   8
 -13   3 -14 1819.55 598.775   4
  -3 -13 -14 2538.25 596.838  17
   3 -13 -14 2282.21 500.693  17
   3  13  14 2678.31 682.485  15
   3 -13 -16 2825.81 451.956  17
 -13   4  -1 392.749 509.099   4
 -13   4  -1 2017.60 1181.41  16
   4  13  -1 1874.56 886.848  15
   4  13   1 1919.68 915.820  15
   4  13   1 3821.84 1408.61  13
 -13   4   1 3233.70 1683.87   6
 -13   4  -1 2876.77 1609.44   6
  -4  13   1 3770.79 1559.56  13
 -13  -4   1 1916.94 1260.94   6
 -13  -4  -1 1215.77 1204.74   6
 -13   4  -3 751.460 752.923   4
 -13   4  -3-800.190 957.214  16
   4  13   3 12.2512 739.572  15
 -13   4   3 283.797 938.034   6
 -13   4  -3-342.437 846.455   6
   4  13   3 435.206 888.907  13
  -4  13   3-86.3159 867.988  13
  -4  13  -3 1054.35 940.462  13
 -13  -4   3-243.548 1299.87   6
 -13  -4  -3-488.033 900.620   6
 -13   4  -5-224.540 530.540   4
 -13   4  -5 447.875 754.186  16
   4  13   5 457.338 692.277  15
 -13   4   5 863.424 1231.09   6
   4  13   5 659.072 1028.42  13
 -13   4  -5-135.632 745.248   6
  -4  13   5 513.545 1231.58  13
 -13  -4   5 170.663 872.743   6
 -13  -4  -5 169.333 1120.58   6
  13   4  -7 5916.85 914.668   8
 -13   4  -7 8425.22 1600.60   4
  -4 -13  -7 5287.75 1087.98  17
 -13   4  -7 5597.68 1643.81  16
   4  13   7 6275.71 1572.15  15
 -13   4   7 6739.42 2129.99   6
  -4  13   7 5989.79 1762.11  13
 -13  -4   7 4883.55 1536.42   6
 -13  -4  -7 6880.20 1856.60   6
  13  -4  -9 1311.19 332.421   8
  13   4  -9 1117.08 448.721   8
 -13   4  -9 1224.51 749.972   4
  -4 -13  -9 1535.44 587.018  17
 -13   4  -9 920.363 666.075  16
   4  13   9 1759.90 969.879  15
 -13   4   9 422.695 693.995   6
  -4  13   9 1437.41 1169.03  13
 -13  -4  -9 2562.36 1093.76   6
  13   4   9 1849.26 434.915  25
  13  -4 -11 123.588 193.440   8
  13   4 -11 257.066 255.602   8
 -13   4 -11-3.68995 478.390   4
  -4 -13 -11 443.857 365.547  17
 -13   4 -11-261.329 387.428  16
 -13   4  11 669.276 696.696   6
   4  13  11 1127.49 652.608  15
  -4  13  11 88.2269 579.559  13
  13   4  11 531.928 253.556  25
  13  -4 -13 292.133 167.426   8
  13   4 -13 53.0796 143.365   8
 -13   4 -13-479.522 479.902   4
  -4 -13 -13-16.9359 303.706  17
   4  13  13 5.21573 366.909  15
  13   4  13 46.9421 160.746  25
  13   4 -15 219.182 127.900   8
 -13   4 -15 95.3811 233.579   4
   4 -13 -15 81.4556 147.873  17
   5  13   0 1293.72 717.180  15
 -13   5   0-79.1265 947.752   6
 -13  -5   0-237.283 962.639   6
   5  13   0 539.839 415.887   5
  13   5   0-130.191 449.148   5
 -13   5  -2 1712.70 1042.05   4
 -13   5  -2 1811.12 978.296  16
   5  13  -2 3615.03 1036.68  15
   5  13   2 3578.53 1208.65  15
 -13   5   2 2761.26 1619.94   6
 -13   5  -2 3769.33 1559.58   6
 -13  -5   2 1938.42 1579.98   6
 -13  -5  -2 1152.75 1208.03   6
   5  13  -2 2414.69 652.896   5
  13   5  -2 1865.17 617.110   5
   5  13   2 2876.95 737.738   5
  13   5   2 1534.95 579.034   5
 -13   5  -4 7553.24 1716.35   4
 -13   5  -4 5745.79 1768.07  16
   5  13   4 7337.57 1647.82  15
 -13   5   4 6037.87 1899.85   6
 -13   5  -4 7496.52 1812.90   6
  -5  13   4 5823.07 2105.53  13
 -13  -5   4 6526.60 2075.74   6
 -13  -5  -4 7550.22 2053.24   6
   5  13   4 6616.28 1067.83   5
  13   5   4 4745.22 836.676   5
  13   5  -6 1513.55 503.314   8
 -13   5  -6 2319.74 1070.15   4
 -13   5  -6 1090.05 620.766  16
   5  13   6 2363.80 1137.75  15
 -13   5   6 1782.87 1294.40   6
 -13   5  -6 1830.89 981.050   6
  -5  13   6 1496.86 1242.06  13
 -13  -5   6 910.652 1174.91   6
 -13  -5  -6 782.407 1060.14   6
   5  13   6 1372.39 585.461   5
  13   5   6 1123.28 416.964   5
  13   5  -8 122.718 200.505   8
 -13   5  -8 442.451 494.597   4
  -5 -13  -8 445.843 335.475  17
 -13   5  -8 305.342 458.327  16
   5  13   8 1206.75 768.314  15
 -13   5   8-715.057 1136.47   6
  -5  13   8 190.321 789.331  13
 -13  -5  -8 192.476 848.422   6
   5  13   8 172.955 356.304   5
  13   5   8 987.792 459.741   5
  13   5 -10 1661.85 427.740   8
 -13   5 -10 1390.47 646.779   4
  -5 -13 -10 1521.64 485.213  17
 -13   5 -10 1087.49 665.371  16
 -13   5  10 981.974 889.882   6
   5  13  10 2381.17 921.674  15
   5  13 -10 2635.02 517.519  14
  -5  13  10 2387.53 1081.17  13
 -13  -5 -10 1438.13 780.656   6
   5  13  10 1431.98 406.341   5
  13   5  10 1166.20 401.454   5
  13   5 -12 1498.37 343.424   8
 -13   5 -12 1725.69 649.704   4
   5  13  12 3477.19 876.201  15
   5  13 -12 2913.18 473.836  14
  -5  13  12 2688.54 821.225  13
  13   5 -14 841.704 208.984   8
 -13   5 -14 1225.32 451.663   4
   5 -13 -14 927.717 309.217  17
 -13   6  -1-243.754 709.259   4
  -6  13   1 913.937 996.645   6
   6  13  -1 3143.45 1062.62  15
   6  13   1 2180.38 923.491  15
 -13   6   1 757.950 937.920   6
 -13   6  -1 103.637 880.728   6
 -13  -6   1 1059.27 1139.40   6
 -13  -6  -1-329.964 882.059   6
   6  13  -1 735.656 477.458   5
  13   6  -1-139.113 423.719   5
   6  13   1 1062.55 652.172   5
  13   6   1 583.488 414.224   5
 -13   6  -3 1986.92 946.497   4
  -6  13   3 4517.98 1689.79   6
   6  13   3 5545.07 1413.29  15
 -13   6   3 3372.31 1555.95   6
 -13   6  -3 3852.20 1316.72   6
 -13  -6   3 3442.19 1631.44   6
 -13  -6  -3 2723.50 1485.88   6
   6  13  -3 2782.70 733.425   5
  13   6  -3 2466.41 639.077   5
   6  13   3 3688.67 804.851   5
  13   6   3 2516.23 609.630   5
 -13   6  -5 991.145 782.154   4
  -6  13   5-366.212 1014.50   6
   6  13   5 650.434 700.480  15
 -13   6   5 587.888 865.915   6
 -13   6  -5-428.973 739.119   6
  -6  13   5 2196.47 1324.19  13
 -13  -6   5-338.701 732.547   6
 -13  -6  -5-611.885 1370.67   6
   6  13   5 89.9053 556.290   5
  13   6   5-393.584 445.869   5
  13   6  -7 557.867 298.610   8
 -13   6  -7 1307.81 727.105   4
   6  13   7 1784.86 716.892  15
 -13   6   7-71.1446 788.996   6
  -6  13   7 1332.07 1090.71  13
 -13  -6  -7-118.959 734.255   6
   6  13   7 777.773 519.207   5
  13   6   7 596.398 452.571   5
  13   6  -9 3556.12 565.115   8
 -13   6  -9 3437.96 1083.26   4
 -13   6   9 2294.98 1096.88   6
   6  13   9 5960.00 1325.62  15
   6  13  -9 5301.13 738.954  14
  -6  13   9 2809.77 1149.94  13
 -13  -6  -9 4665.06 1303.64   6
   6  13   9 3913.66 807.710   5
  13   6   9 2852.93 661.083   5
  13   6 -11 1111.97 290.656   8
 -13   6 -11 1154.45 646.073   4
 -13   6  11 1405.17 725.372   6
   6  13  11 2272.13 749.677  15
   6  13 -11 2268.11 451.714  14
  -6  13  11 1945.76 832.648  13
 -13  -6 -11 1359.59 700.259   6
   6  13  11 1631.17 456.872   5
  13   6  11 745.011 368.413   5
  13   6 -13 422.782 178.647   8
 -13   6 -13 528.483 405.696   4
   6  13 -13 325.297 158.240  14
  13   6 -13 407.130 211.695  14
  -7  13   0 369.499 795.914   6
   7  13   0-1069.83 690.595  15
 -13   7   0-1301.34 1024.80   6
 -13  -7   0-122.656 932.246   6
   7  13   0 40.4657 438.607   5
  13   7   0 121.651 376.219   5
 -13   7  -2-1359.25 882.160   4
  -7  13   2-771.021 937.723   6
   7  13   2 133.498 609.486  15
 -13   7   2 295.453 819.950   6
 -13   7  -2 806.192 842.253   6
 -13  -7   2 1362.27 1033.27   6
 -13  -7  -2 785.701 1071.76   6
   7  13  -2-435.268 477.718   5
  13   7  -2-239.866 439.568   5
   7  13   2 128.704 539.124   5
  13   7   2 298.214 377.450   5
 -13   7  -4 1452.15 856.393   4
  -7  13   4 1207.91 1113.66   6
   7  13   4 2606.35 1029.79  15
 -13   7   4 1637.52 1320.41   6
 -13   7  -4 3286.37 1186.56   6
 -13  -7   4-472.523 993.998   6
   7  13   4 3227.10 854.059   5
  13   7   4 2578.62 618.797   5
  13   7  -6 139.838 200.987   8
 -13   7  -6-484.923 638.553   4
   7  13   6 173.651 633.794  15
 -13   7   6-118.656 765.745   6
  -7  13   6 476.989 834.029  13
 -13  -7  -6-1977.23 1330.02   6
   7  13   6 596.203 528.534   5
  13   7   6-77.7247 472.647   5
  13   7  -8 298.915 162.020   8
 -13   7  -8 516.250 667.189   4
 -13   7   8 320.681 809.549   6
   7  13   8-97.2462 550.419  15
   7  13  -8-72.5807 275.720  14
  -7  13   8-681.035 792.566  13
 -13  -7  -8-360.014 724.752   6
   7  13   8 29.6991 393.633   5
  13   7   8-365.815 312.287   5
  13   7 -10 158.080 138.280   8
 -13   7 -10 695.604 536.127   4
 -13   7  10 534.562 760.522   6
   7  13  10 204.798 328.943  15
   7  13 -10 759.633 325.279  14
  -7  13  10 1694.52 820.324  13
 -13  -7 -10 610.379 698.797   6
   7  13  10 543.639 324.760   5
  13   7  10 482.180 271.330   5
 -13   7 -12 435.310 497.079   4
   7  13 -12 418.254 184.008  14
  13   7 -12 87.6585 163.591  14
   7  13  12 150.281 261.441   5
  13   7  12 32.2729 232.873   5
  -8  13   1 3446.58 1207.13   6
 -13   8  -1 4124.63 1494.25   6
 -13   8   1 3946.46 1509.12   6
 -13  -8   1 3512.99 1509.09   6
 -13  -8  -1 5735.71 1955.92   6
   8  13  -1 3867.72 850.294   5
  13   8  -1 2537.50 703.903   5
   8  13   1 4707.80 938.097   5
  13   8   1 3451.63 740.891   5
 -13   8  -3 935.444 727.000   4
  -8  13   3 4158.26 1500.75   6
   8  13   3 8899.36 1632.94  15
 -13   8  -3 5432.03 1402.77   6
 -13   8   3 4754.47 1721.52   6
 -13  -8   3 6173.42 1811.90   6
   8  13  -3 7364.48 1091.19   5
  13   8  -3 5275.15 905.435   5
   8  13   3 6359.18 1116.31   5
  13   8   3 6175.86 1005.74   5
  13   8  -5 2327.01 447.683   8
 -13   8  -5 628.558 542.144   4
  -8  13   5 2814.90 1248.89   6
   8  13   5 3648.65 1046.39  15
 -13   8   5 3352.03 1452.63   6
  -8  13   5 2997.52 1409.80  13
   8  13   5 4689.48 867.280   5
  13   8   5 3341.12 718.736   5
  13   8  -7 2512.78 418.349   8
 -13   8  -7 1787.44 840.734   4
 -13   8   7 3465.35 1334.21   6
   8  13  -7 3980.70 700.709  14
  -8  13   7 957.157 651.179  13
 -13  -8  -7 210.569 656.672   6
   8  13   7 3147.06 759.103   5
  13   8   7 2912.84 657.029   5
 -13   8  -9 2788.69 828.426   4
 -13   8   9 6553.25 1432.93   6
   8  13  -9 5539.18 711.482  14
  -8  13   9 4165.72 1202.97  13
 -13  -8  -9 3335.98 1138.99   6
   8  13   9 7596.13 978.402   5
  13   8   9 4115.05 663.372   5
 -13   8 -11 2520.65 702.898   4
 -13   8  11 5225.81 1023.69   6
   8  13 -11 3930.73 483.882  14
  13   8 -11 4970.84 651.488  14
   8  13  11 4768.55 697.018   5
  13   8  11 2855.76 479.879   5
  -9  13   0 1734.00 848.052   6
 -13   9   0 3685.63 1263.22   6
 -13  -9   0 1499.14 1162.24   6
   9  13   0 3333.96 746.776   5
  13   9   0 4163.95 779.414   5
  -9  13   2 3152.05 1152.92   6
 -13   9  -2 4144.42 1209.69   6
 -13   9   2 4398.94 1397.18   6
 -13  -9   2 1628.22 1006.08   6
 -13  -9  -2 2822.28 1585.69   6
   9  13  -2 2971.84 722.574   5
  13   9  -2 2326.47 572.172   5
   9  13   2 3153.08 773.146   5
  13   9   2 3730.63 727.279   5
  -9  13   4-189.804 742.901   6
 -13   9   4 957.574 1068.52   6
 -13  -9   4 1417.06 1072.34   6
   9  13   4 914.758 531.098   5
  13   9   4 1606.36 520.270   5
 -13   9  -6-497.199 670.544   4
 -13   9   6 1967.79 1098.99   6
  -9  13   6 1701.46 933.429  13
 -13  -9  -6 1150.20 998.310   6
   9  13   6 3149.71 684.265   5
  13   9   6 2947.76 626.836   5
 -13   9  -8 533.932 371.722   4
 -13   9   8 1592.37 802.807   6
   9  13  -8 4073.59 590.514  14
  -9  13   8 2732.56 945.720  13
 -13  -9  -8 1438.50 804.190   6
   9  13   8 3695.41 700.905   5
  13   9   8 2513.94 509.032   5
 -13   9 -10 91.6694 292.633   4
 -13   9  10 1121.35 607.774   6
   9  13  10 2014.15 462.069   5
  13   9  10 1525.62 387.337   5
 -10  13   1-593.609 553.708   6
 -13  10  -1 723.684 588.250   6
 -13  10   1-651.084 607.533   6
 -13 -10   1-1134.89 1228.77   6
 -13 -10  -1-174.431 788.814   6
  10  13  -1-15.0685 345.788   5
  13  10  -1-211.530 386.758   5
  10  13   1-896.161 489.038   5
  13  10   1-266.109 320.818   5
 -10  13   3 244.717 521.245   6
 -13  10   3 508.686 717.248   6
 -13 -10   3 1547.72 831.900   6
 -13 -10  -3 194.275 958.223   6
  10  13   3 530.633 383.328   5
  13  10   3 1006.11 405.000   5
 -13  10   5 582.440 579.469   6
 -10  13   5 168.632 692.073  13
 -13 -10  -5-290.336 844.686   6
  10  13   5 256.716 363.152   5
  13  10   5-152.230 315.517   5
 -13  10   7-589.882 592.883   6
  10  13  -7 376.880 260.154  14
 -10  13   7 158.509 434.540  13
 -13 -10  -7-244.894 592.246   6
  10  13   7 446.821 332.745   5
  13  10   7-184.045 241.872   5
 -13  11   0 1180.81 566.606   6
 -11 -13   0 775.846 843.652   6
 -13  11   2 165.756 408.909   6
 -13 -11  -2 1080.63 1055.63   6
  11  13   2 687.508 303.388   5
  13  11   2 1175.60 397.890   5
 -13  11   4 1903.02 744.833   6
 -11  13   4 1482.36 711.144  13
 -13 -11  -4 708.520 612.885   6
  11  13   4 531.522 330.904   5
  13  11   4 1343.74 426.017   5
 -13 -11  -6 167.608 538.400   6
 -14   0   0 608.056 934.526  16
   0  14   0 827.134 852.350  13
 -14   0   0 662.706 947.342   6
 -14   0   2 134.316 603.569  16
 -14   0  -2-425.438 815.373  16
   0  14  -2-314.322 732.443  13
   0  14   2 355.086 988.657  13
 -14   0   2-759.736 1268.08   6
 -14   0  -2 889.540 983.185   6
 -14   0  -4 712.172 791.804  16
   0  14   4 723.739 997.288  13
 -14   0   4-238.065 1006.54   6
 -14   0  -4 452.024 867.541   6
  14   0  -6 4071.39 739.773   8
 -14   0  -6 5079.60 1706.23  16
 -14   0   6 6426.81 1989.86   6
   0  14   6 4108.33 1729.74  13
 -14   0  -6 1887.06 1021.89   6
  14   0  -8 918.119 327.567   8
   0 -14  -8 1459.46 512.602  17
 -14   0  -8 1935.43 1033.88  16
 -14   0   8 653.772 955.083   6
   0  14   8 1168.78 978.512  13
 -14   0  -8 1513.07 939.564   6
  14   0 -10 2036.48 473.252   8
   0 -14 -10 1706.64 464.797  17
 -14   0 -10 2178.38 954.434  16
   0  14  10 2878.42 1229.90  13
  14   0 -12-292.879 213.220   8
   0 -14 -12 27.7100 201.864  17
 -14   0 -12 337.141 493.898  16
  14   0 -14-118.612 123.585   8
   0 -14 -14 3.27065 184.301  17
 -14   0 -14-424.315 352.270  16
 -14   1   1-21.2047 653.161  16
 -14  -1   1 599.427 914.948  16
 -14   1  -1-518.750 728.670  16
 -14  -1  -1-490.055 649.188  16
   1  14  -1-146.865 621.650  13
   1  14   1 423.335 953.175  13
  -1  14  -1 452.350 1050.05  13
  -1  14   1 349.261 891.404  13
 -14   1   1 218.991 975.914   6
 -14   1  -1-344.381 988.728   6
 -14  -1   1 1303.28 1328.66   6
 -14  -1  -1-180.043 947.032   6
 -14  -1   3 884.382 776.816  16
 -14   1  -3 1116.44 911.362  16
 -14  -1  -3 358.535 893.328  16
   1  14   3 556.862 665.942  13
 -14   1   3-144.583 1171.83   6
  -1  14  -3 48.4896 907.673  13
  -1  14   3 1495.84 989.230  13
 -14   1  -3-173.790 1005.70   6
 -14  -1   3 272.730 1079.49   6
 -14  -1  -3 940.666 1284.28   6
  14  -1  -5 34.5345 200.854   8
  14   1  -5-26.7283 206.878   8
 -14   1  -5-864.373 1178.55  16
 -14  -1  -5 146.306 744.034  16
 -14   1   5 295.528 878.861   6
   1  14   5-230.150 870.063  13
  -1  14   5-240.787 772.655  13
 -14  -1   5-115.915 1101.93   6
 -14   1  -5-903.772 933.677   6
 -14  -1  -5 420.345 705.305   6
  14  -1  -7-0.55037 216.844   8
  14   1  -7 205.159 263.723   8
  -1 -14  -7 101.563 226.382  17
   1 -14  -7-133.270 251.530  17
 -14   1  -7 421.543 719.983  16
 -14   1   7 1092.75 1008.47   6
 -14  -1   7 1654.84 1014.09   6
   1  14   7 1653.36 1159.18  13
  -1  14   7-254.712 943.458  13
 -14   1  -7 1573.32 901.238   6
 -14  -1  -7-609.712 685.218   6
  14  -1  -9-37.5894 199.746   8
  14   1  -9 268.003 253.183   8
  -1 -14  -9-150.383 248.600  17
   1 -14  -9-200.537 286.729  17
 -14   1  -9-69.2168 648.404  16
   1  14   9 228.179 737.913  13
  -1  14   9-145.772 643.417  13
 -14  -1  -9 678.543 647.422   6
  14  -1 -11-154.096 194.284   8
  14   1 -11 256.637 186.023   8
  -1 -14 -11 305.225 261.831  17
   1 -14 -11-18.3317 269.041  17
 -14   1 -11 335.420 531.030  16
 -14  -1 -11 170.164 467.340  16
  -1  14  11 414.706 665.655  13
  14  -1 -13 578.178 184.279   8
  14   1 -13 321.586 181.137   8
  -1 -14 -13 641.206 317.997  17
   1 -14 -13 646.944 272.486  17
 -14   1 -13-2.13675 333.299  16
 -14  -1 -13 973.194 566.357  16
   1  14  13 860.415 511.461  15
 -14   2   0 2673.14 1412.67  16
 -14  -2   0 2801.00 1406.53  16
   2  14   0 2425.61 1132.08  13
 -14   2   0 1245.99 1070.44   6
  -2  14   0 2087.83 1261.40  13
 -14  -2   0 565.512 994.653   6
 -14   2   2 6306.11 1874.71  16
 -14  -2   2 4385.17 1456.84  16
 -14   2  -2 5268.33 1871.61  16
 -14  -2  -2 6748.99 1994.45  16
   2  14   2 7511.85 1954.75  13
 -14   2   2 7390.48 2118.73   6
 -14   2  -2 6068.10 1854.42   6
  -2  14  -2 6271.41 1668.40  13
  -2  14   2 6470.11 1887.15  13
 -14  -2   2 6342.14 2010.40   6
 -14  -2  -2 7547.89 2267.24   6
  14  -2  -4 4727.60 717.500   8
 -14   2  -4 5985.61 2015.06  16
 -14  -2  -4 7274.70 2293.31  16
 -14   2   4 6187.95 2072.75   6
   2  14   4 8348.29 2143.17  13
 -14   2  -4 4486.18 1472.94   6
  -2  14   4 5826.99 1881.25  13
 -14  -2   4 3975.79 1751.41   6
 -14  -2  -4 4659.98 1714.79   6
  14  -2  -6 4845.71 742.131   8
  14   2  -6 5069.77 806.743   8
 -14   2  -6 6171.06 1788.93  16
 -14   2   6 7624.47 2089.77   6
   2  14   6 7088.21 1964.24  13
 -14   2  -6 4688.57 1445.70   6
 -14  -2   6 4331.29 1574.07   6
  -2  14   6 4313.29 1717.09  13
 -14  -2  -6 3858.81 1555.09   6
  14  -2  -8 2840.10 523.922   8
  14   2  -8 3143.42 629.135   8
  -2 -14  -8 3023.68 737.576  17
 -14   2  -8 2282.14 1076.24  16
 -14   2   8 1447.52 904.163   6
 -14  -2   8 3429.21 1199.86   6
   2  14   8 5374.35 1702.58  13
  -2  14   8 4427.20 1502.42  13
 -14  -2  -8 947.282 792.320   6
  14  -2 -10 7352.85 736.103   8
  14   2 -10 7838.06 819.951   8
 -14   2 -10 7035.92 1167.26   4
  -2 -14 -10 7122.36 1074.14  17
   2 -14 -10 7651.72 1078.83  17
 -14   2 -10 6350.57 1385.77  16
   2  14  10 7981.00 1502.86  15
 -14   2  10 7762.57 1531.21   6
  -2  14  10 6031.63 1606.79  13
  14  -2 -12 3026.92 431.229   8
  14   2 -12 3029.96 455.525   8
 -14   2 -12 2940.64 687.597   4
  -2 -14 -12 3210.81 693.489  17
   2 -14 -12 3559.93 663.263  17
 -14   2 -12 2581.92 819.346  16
   2  14  12 4426.74 956.010  15
  -2  14  12 3484.81 986.685  13
  14   2 -14 3686.91 420.222   8
  -2 -14 -14 3837.47 601.138  17
   2 -14 -14 4060.41 583.516  17
 -14  -2 -14 2746.43 783.082  16
 -14   3  -1 6348.54 1960.27  16
 -14  -3   1 5414.10 1563.64  16
 -14  -3  -1 5984.50 1893.07  16
   3  14  -1 7261.31 1439.58  15
   3  14   1 6548.13 1558.97  15
   3  14  -1 7480.15 1858.63  13
 -14   3   1 4744.03 1806.09   6
   3  14   1 9116.06 2110.31  13
 -14   3  -1 4914.19 1722.43   6
  -3  14  -1 5078.01 1752.27  13
  -3  14   1 5817.98 1745.28  13
 -14  -3   1 7198.66 2297.57   6
 -14  -3  -1 5374.32 1928.19   6
 -14  -3  -3 12786.4 2612.15  16
 -14   3  -3 9140.53 2184.84  16
   3  14   3 12091.8 2475.36  13
 -14   3   3 12878.7 2769.72   6
 -14   3  -3 8640.10 1913.86   6
  -3  14  -3 6223.18 1798.26  13
  -3  14   3 7921.31 2364.29  13
 -14  -3   3 10493.7 2578.02   6
 -14  -3  -3 8763.16 2293.07   6
  14  -3  -5 8157.13 872.394   8
 -14   3  -5 8008.39 2068.50  16
 -14   3   5 11699.9 2599.61   6
   3  14   5 13162.5 2573.01  13
 -14   3  -5 9651.39 2099.74   6
  -3  14   5 10298.3 2462.33  13
 -14  -3   5 7682.64 1927.17   6
 -14  -3  -5 7523.12 2038.62   6
  14  -3  -7 9905.12 897.623   8
  14   3  -7 10656.3 1116.24   8
 -14   3  -7 9467.25 1602.07   4
 -14   3  -7 14347.1 2423.36  16
   3  14   7 15821.0 2390.06  15
 -14   3   7 11435.8 2284.70   6
  -3  14   7 15705.8 2793.50  13
 -14  -3   7 7073.21 1711.75   6
 -14  -3  -7 9515.21 2071.45   6
  14  -3  -9 8210.29 763.781   8
  14   3  -9 10260.6 978.506   8
 -14   3  -9 9479.42 1473.78   4
  -3 -14  -9 8198.49 1186.90  17
 -14   3  -9 10008.0 1860.43  16
   3  14   9 11772.2 1897.36  15
 -14   3   9 7361.01 1694.75   6
  -3  14   9 10051.4 2126.15  13
 -14  -3  -9 6169.18 1228.51   6
  14  -3 -11 7651.76 651.470   8
  14   3 -11 7890.22 767.458   8
 -14   3 -11 7676.91 1251.90   4
  -3 -14 -11 7126.74 1016.74  17
   3 -14 -11 8900.45 1032.54  17
 -14   3 -11 8084.64 1388.05  16
   3  14  11 9894.55 1513.62  15
  -3  14  11 7940.48 1574.20  13
  14   3 -13 2490.31 365.535   8
 -14   3 -13 3084.38 676.562   4
  -3 -14 -13 2719.78 581.489  17
   3 -14 -13 3814.67 583.640  17
   3  14  13 3716.72 765.067  15
 -14  -4   0-451.005 830.943  16
   4  14   0 2719.29 993.935  15
 -14   4   0 1590.50 1284.64   6
  -4  14   0 1069.97 1162.38  13
 -14  -4   0 2901.78 1550.54   6
 -14   4  -2 1880.15 1184.41  16
 -14  -4  -2 1142.73 929.107  16
   4  14   2 1309.90 790.232  15
 -14   4   2 2949.86 1531.10   6
 -14   4  -2 1171.55 1119.14   6
  -4  14   2 1366.73 1449.52  13
  -4  14  -2 2633.41 1123.03  13
 -14  -4   2 975.108 1323.78   6
 -14  -4  -2 1079.54 1231.67   6
 -14   4  -4 897.410 648.802   4
 -14   4  -4 1302.42 1177.29  16
   4  14   4 1809.70 1056.96  15
 -14   4   4 1320.10 1255.91   6
 -14   4  -4 1967.90 1110.74   6
  -4  14  -4 1960.77 1068.51  13
  -4  14   4 2317.47 1271.91  13
 -14  -4   4 626.198 910.547   6
 -14  -4  -4-63.4879 1105.92   6
  14   4  -6 1111.88 430.495   8
 -14   4  -6 1791.81 816.997   4
 -14   4  -6 2269.16 1150.21  16
   4  14   6 2728.78 1126.51  15
 -14   4   6 738.695 994.163   6
 -14   4  -6 583.980 594.836   6
  -4  14   6 1580.27 1295.55  13
 -14  -4   6-532.757 1219.55   6
 -14  -4  -6 755.194 889.905   6
  14   4  -8 3856.04 646.708   8
 -14   4  -8 4334.54 1040.87   4
 -14   4  -8 3767.88 1180.71  16
   4  14   8 6484.79 1436.12  15
 -14   4   8 3016.81 1156.01   6
  -4  14   8 6350.08 1865.05  13
 -14  -4  -8 5579.76 1511.50   6
  14   4 -10 1106.23 345.642   8
 -14   4 -10 1664.41 668.713   4
  -4 -14 -10 900.881 409.159  17
 -14   4 -10 894.656 585.863  16
 -14   4  10 396.952 637.747   6
   4  14  10 1664.92 694.509  15
  -4  14  10 726.562 661.155  13
 -14  -4 -10 814.189 627.067   6
  14   4 -12 151.027 142.659   8
 -14   4 -12 786.265 354.489   4
   4 -14 -12 865.559 303.286  17
   4  14  12 1839.10 623.742  15
  -4  14  12 2129.99 808.760  13
   4 -14 -14 394.760 187.458  17
 -14  -4 -14 462.412 407.784  16
 -14  -5  -1 639.251 556.102  16
   5  14  -1 16.2221 412.517  15
   5  14   1 492.995 676.487  15
 -14   5   1-297.437 931.686   6
 -14   5  -1 1110.94 1065.73   6
  -5  14   1 316.106 902.883  13
  -5  14  -1 421.260 745.900  13
 -14  -5   1 258.894 1168.83   6
 -14  -5  -1-36.3645 906.915   6
 -14   5  -3-793.035 695.520   4
   5  14   3 235.815 594.421  15
 -14   5   3-287.922 1041.85   6
 -14   5  -3 367.707 719.408   6
  -5  14   3-452.720 1046.03  13
  -5  14  -3 115.486 556.512  13
 -14  -5   3 1262.33 1315.27   6
 -14  -5  -3-266.502 1083.61   6
  14   5  -5 890.998 355.623   8
 -14   5  -5 707.400 428.793   4
   5  14   5 513.584 599.214  15
 -14   5   5 644.644 970.170   6
 -14   5  -5 321.349 622.772   6
  -5  14   5 1417.31 1121.59  13
 -14  -5   5 910.669 850.258   6
 -14  -5  -5 607.938 1077.23   6
  14   5  -7 38.2994 217.709   8
 -14   5  -7 684.616 694.827   4
   5  14   7-57.2821 565.654  15
 -14   5   7 630.132 725.048   6
  -5  14   7 2.36947 711.594  13
 -14  -5  -7-543.695 703.164   6
  14   5  -9 57.2361 163.012   8
 -14   5  -9 812.517 480.097   4
 -14   5   9-125.225 616.202   6
   5  14   9 284.502 401.764  15
  -5  14   9-371.000 778.601  13
 -14  -5  -9-823.242 798.049   6
  14   5 -11 405.862 163.241   8
 -14   5 -11 804.248 564.958   4
   5  14  11 1193.75 560.261  15
  14   5 -11 592.289 255.487  14
  -5  14  11-280.833 454.188  13
   5 -14 -13 0.76779 104.047  17
   6  14   0-45.3712 468.333  15
 -14   6   0-105.212 792.451   6
  -6  14   0-335.099 737.461  13
 -14  -6   0 388.498 947.612   6
   6  14   0-225.727 424.884   5
  14   6   0 284.418 304.752   5
   6  14   2-62.4362 636.738  15
 -14   6   2-245.471 892.283   6
 -14   6  -2 559.224 734.734   6
  -6  14   2 701.423 943.888  13
  -6  14  -2-21.0917 632.562  13
 -14  -6   2 311.431 1006.75   6
 -14  -6  -2-1623.28 1612.48   6
   6  14   2 536.909 389.043   5
  14   6   2 133.794 333.750   5
 -14   6  -4-98.1760 634.662   4
   6  14   4 942.578 711.396  15
 -14   6   4-678.403 983.575   6
 -14   6  -4-945.669 908.731   6
  -6  14   4 1535.55 1101.54  13
  -6  14  -4-150.916 681.125  13
 -14  -6   4 1656.52 1263.97   6
 -14  -6  -4-665.813 1062.13   6
   6  14   4-37.4384 378.160   5
  14   6   4 163.262 272.450   5
  14   6  -6 375.633 237.962   8
 -14   6  -6 756.984 631.142   4
   6  14   6 1078.14 683.020  15
 -14   6   6-24.9134 678.385   6
  -6  14   6-89.1663 873.768  13
 -14  -6  -6 849.851 963.178   6
   6  14   6 1103.20 509.656   5
  14   6   6 325.512 329.665   5
  14   6  -8 473.756 235.081   8
 -14   6  -8 12.5261 438.610   4
 -14   6   8 612.090 768.688   6
   6  14   8 277.964 472.303  15
  -6  14   8 347.557 731.019  13
 -14  -6  -8-191.294 541.922   6
  14   6 -10-27.1557 154.154   8
 -14   6 -10 28.7647 311.718   4
 -14   6  10 272.060 438.630   6
   6  14  10 143.693 471.594  15
  -6  14  10-529.438 522.064  13
 -14  -6 -10 346.122 562.592   6
   7  14   1 1187.86 657.519  15
 -14   7  -1 2617.29 1203.93   6
 -14   7   1 2834.49 1343.72   6
  -7  14   1 176.237 755.677  13
  -7  14  -1 1184.39 964.973  13
 -14  -7   1 2876.45 1395.70   6
 -14  -7  -1-87.3593 985.333   6
   7  14  -1 1226.61 497.639   5
  14   7  -1 861.601 374.098   5
   7  14   1 283.863 336.915   5
  14   7   1 1395.54 500.542   5
   7  14   3 1134.17 704.870  15
 -14   7  -3 2055.23 928.265   6
 -14   7   3 2639.64 1228.01   6
  -7  14   3 1241.98 1081.96  13
  -7  14  -3 1851.65 801.882  13
 -14  -7   3 521.219 843.054   6
 -14  -7  -3 1671.05 1280.32   6
   7  14   3 1975.38 567.338   5
  14   7   3 2297.83 559.183   5
  14   7  -5 514.780 285.025   8
 -14   7  -5-316.864 528.838   4
   7  14   5 1112.37 553.372  15
 -14   7   5 1132.04 897.516   6
  -7  14   5 1189.49 953.258  13
 -14  -7   5 1010.61 789.789   6
 -14  -7  -5 178.454 728.427   6
   7  14   5 878.790 450.818   5
  14   7   5 274.067 255.730   5
  14   7  -7 628.936 251.423   8
 -14   7  -7-517.720 506.625   4
 -14   7   7 143.153 635.307   6
   7  14   7 533.406 503.469  15
  -7  14   7 403.419 601.108  13
 -14  -7  -7 699.743 823.079   6
   7  14   7 1101.24 466.565   5
  14   7   7 633.396 301.297   5
  14   7  -9 400.692 161.515   8
 -14   7  -9-104.837 309.589   4
 -14   7   9 17.8304 443.600   6
  -7  14   9 541.066 675.440  13
 -14  -7  -9-471.414 602.389   6
 -14   8   0 2684.02 1107.43   6
  -8  14   0 2973.24 1204.26  13
 -14  -8   0 2508.66 1294.91   6
   8  14   0 3181.11 640.590   5
  14   8   0 2577.96 562.571   5
 -14   8  -2 5525.90 1258.74   6
 -14   8   2 6206.78 1551.08   6
  -8  14   2 6453.78 1609.85  13
  -8  14  -2 5107.89 1326.02  13
 -14  -8   2 6414.95 1736.73   6
 -14  -8  -2 5528.29 1752.34   6
   8  14   2 6677.85 901.489   5
  14   8   2 5935.19 817.818   5
  14   8  -4 3414.40 490.985   8
 -14   8   4 5267.42 1454.02   6
  -8  14   4 5111.77 1458.22  13
  -8  14  -4 5026.39 1324.71  13
 -14  -8   4 4312.49 1421.88   6
 -14  -8  -4 6823.91 1833.47   6
   8  14   4 6115.26 874.997   5
  14   8   4 4988.30 702.668   5
  14   8  -6 3643.05 442.985   8
 -14   8   6 5359.91 1317.38   6
  -8  14   6 4443.76 1296.15  13
 -14  -8  -6 4860.66 1566.05   6
   8  14   6 5621.64 818.976   5
  14   8   6 3878.10 608.096   5
 -14   8   8 4002.74 982.549   6
  -8  14   8 4221.23 1091.04  13
 -14  -8  -8 2264.20 864.008   6
  14   9  -1 1164.30 240.360   8
 -14   9  -1 1816.98 802.986   6
 -14   9   1 1493.81 806.660   6
  -9  14   1 2514.84 1012.29  13
  -9  14  -1 1745.16 875.353  13
 -14  -9   1 2212.51 1211.46   6
 -14  -9  -1 446.324 760.096   6
   9  14   1 2357.55 556.275   5
  14   9   1 1380.51 405.806   5
 -14   9   3 3116.36 983.821   6
  -9  14   3 4960.61 1390.06  13
  -9  14  -3 2634.76 943.937  13
 -14  -9   3 6461.06 1541.83   6
 -14  -9  -3 2559.98 1155.50   6
  14   9   3 4357.07 665.413   5
   9  14   3 4098.25 685.324   5
 -14   9   5 3878.14 1028.81   6
  -9  14   5 3597.99 1140.42  13
 -14  -9  -5 6209.36 1604.12   6
   9  14   5 3739.12 657.002   5
  14   9   5 3461.55 586.868   5
 -14   9   7 1932.92 709.520   6
  -9  14   7 3905.48 975.280  13
 -14  -9  -7 2593.09 966.465   6
 -10  14   0 102.321 475.121  13
 -14 -10   0 193.897 670.374   6
 -14  10   2 350.902 447.070   6
 -10  14   2-140.544 461.722  13
 -10  14  -2 667.735 510.675  13
 -14 -10  -2-619.536 811.706   6
  10  14   2 107.582 238.426   5
  14  10   2 109.168 200.422   5
 -14  10   4 1379.07 624.955   6
 -10  14   4 639.714 487.835  13
 -14 -10  -4 440.840 580.774   6
 -15   0   1 731.522 958.560  16
 -15   0  -1 450.918 1002.22  16
   0  15  -1 1173.46 901.329  13
   0  15   1 822.972 803.796  13
 -15   0   1-676.844 1224.77   6
 -15   0  -1-98.4081 974.224   6
  15   0  -3 977.877 358.638   8
 -15   0  -3 1776.80 1192.67  16
   0  15   3 1716.08 849.804  13
 -15   0   3 2351.03 1228.48   6
 -15   0  -3 1910.80 1152.53   6
  15   0  -5 4743.11 696.102   8
 -15   0  -5 7745.14 1908.22  16
 -15   0   5 6479.55 1991.84   6
   0  15   5 7741.11 1898.70  13
 -15   0  -5 5728.62 1589.81   6
  15   0  -7 5366.65 672.903   8
 -15   0  -7 7198.74 1747.72  16
 -15   0   7 6485.02 1664.35   6
   0  15   7 8925.28 2068.95  13
 -15   0  -7 5399.54 1323.33   6
  15   0  -9 1524.03 343.069   8
   0 -15  -9 1171.43 354.125  17
 -15   0  -9 1991.55 904.486  16
   0  15   9 1672.74 806.222  13
  15   0 -11 279.961 135.710   8
   0 -15 -11 764.590 332.746  17
 -15   0 -11 461.206 476.639  16
   0  15  11 98.2026 445.129  15
 -15   1   0-475.049 763.007  16
 -15  -1   0 1187.36 948.887  16
   1  15   0-85.9259 577.331  13
 -15   1   0-712.941 985.025   6
  -1  15   0 263.057 758.220  13
 -15  -1   0 24.9038 984.388   6
  15  -1  -2 3.46909 179.583   8
 -15  -1   2 817.398 871.811  16
 -15   1  -2 362.320 956.311  16
 -15  -1  -2-17.2324 590.403  16
 -15   1   2-320.935 917.122   6
   1  15   2-505.269 662.314  13
  -1  15  -2-1144.07 785.388  13
 -15   1  -2 578.270 1070.97   6
  -1  15   2 1214.32 981.690  13
 -15  -1   2-157.717 920.217   6
 -15  -1  -2-1995.78 1218.38   6
  15  -1  -4 977.262 329.859   8
  15   1  -4 683.517 324.623   8
 -15   1  -4 745.542 695.263  16
 -15  -1  -4-746.603 794.450  16
 -15   1   4 2.53787 1024.35   6
   1  15   4 2087.02 1172.82  13
 -15   1  -4 430.305 679.680   6
 -15  -1   4 413.828 856.580   6
  -1  15   4-170.177 837.441  13
 -15  -1  -4-21.0353 965.680   6
  15  -1  -6 561.580 261.678   8
  15   1  -6 943.075 343.684   8
 -15   1  -6 769.096 767.562  16
 -15  -1  -6-354.686 807.197  16
 -15   1   6 1238.60 942.216   6
 -15  -1   6 1026.60 912.115   6
   1  15   6 1815.07 1114.95  13
 -15   1  -6 809.603 693.842   6
  -1  15   6 1024.84 837.006  13
 -15  -1  -6-380.961 838.044   6
  15  -1  -8-145.494 155.136   8
  15   1  -8-0.43165 193.630   8
   1 -15  -8 64.9529 165.962  17
 -15   1  -8-217.329 673.466  16
 -15  -1  -8 700.281 783.024  16
 -15   1   8-573.095 765.041   6
 -15  -1   8 1548.08 995.667   6
   1  15   8-316.143 678.967  13
  -1  15   8 787.393 955.346  13
 -15  -1  -8-183.122 475.518   6
  15  -1 -10-96.3332 157.376   8
  15   1 -10 154.943 153.338   8
  -1 -15 -10 186.878 200.028  17
   1 -15 -10 116.557 162.390  17
 -15   1 -10 756.805 538.504  16
 -15  -1 -10-273.784 584.090  16
   1  15  10-548.934 573.245  15
  -1  15  10 179.245 556.118  13
  15  -1 -12-128.439 124.221   8
  15   1 -12 76.1867 98.2115   8
   1 -15 -12 387.836 236.762  17
 -15   1 -12 498.372 353.035  16
 -15  -1 -12-584.449 448.210  16
   1  15  12 623.463 425.815  15
  -1  15  12-440.734 456.072  15
  15  -2  -1 563.657 224.352   8
 -15   2  -1 902.750 875.917  16
 -15  -2   1 2865.77 1294.59  16
 -15  -2  -1 2221.73 1227.12  16
   2  15  -1 414.497 444.975  15
   2  15   1 1780.67 809.081  15
   2  15  -1 2164.17 1025.85  13
 -15   2   1 3349.75 1620.24   6
   2  15   1 229.518 634.968  13
 -15   2  -1 1632.45 1173.82   6
  -2  15  -1 122.543 651.928  13
  -2  15   1 1686.57 1029.81  13
 -15  -2   1 465.242 986.286   6
 -15  -2  -1 2805.51 1626.73   6
  15  -2  -3 240.704 194.735   8
 -15   2  -3 1940.33 1254.24  16
 -15  -2  -3-335.551 716.791  16
 -15   2   3 738.046 1060.16   6
   2  15   3 409.752 770.224  13
 -15   2  -3 719.814 940.054   6
  -2  15   3-301.153 901.084  13
 -15  -2   3-134.650 1182.71   6
 -15  -2  -3 118.960 855.220   6
  15  -2  -5 1860.95 393.775   8
  15   2  -5 1370.12 425.825   8
 -15   2  -5 2298.45 1065.48  16
 -15  -2  -5 2653.33 1284.50  16
 -15   2   5 3391.43 1555.22   6
 -15   2  -5 1971.03 1058.90   6
   2  15   5 4538.07 1594.31  13
 -15  -2   5 1866.77 1037.56   6
  -2  15   5 3335.38 1385.98  13
 -15  -2  -5 2249.10 1265.72   6
  15  -2  -7 2275.85 397.229   8
  15   2  -7 2416.71 469.088   8
 -15   2  -7 3564.09 1107.54  16
 -15  -2  -7 2777.15 1000.27  16
   2  15   7 5472.46 1345.02  15
 -15   2   7 2926.64 1335.77   6
 -15   2  -7 2077.89 804.879   6
 -15  -2   7 4495.11 1349.64   6
  -2  15   7 4252.52 1362.32  13
 -15  -2  -7 1735.20 900.531   6
  15  -2  -9 557.682 193.143   8
  15   2  -9 772.862 276.870   8
   2 -15  -9 246.070 212.232  17
 -15   2  -9 442.442 498.478  16
 -15  -2  -9 269.742 511.522  16
   2  15   9 1531.46 728.907  15
 -15   2   9 1257.27 796.837   6
  -2  15   9 1554.16 866.508  13
  15  -2 -11 9.99583 90.0558   8
  15   2 -11-208.353 188.037   8
  -2 -15 -11 69.4982 176.214  17
   2 -15 -11 438.252 198.888  17
 -15  -2 -11 396.613 370.271  16
   2  15  11 342.329 341.570  15
 -15  -3   0 1856.88 1000.45  16
   3  15   0 1253.14 719.029  15
 -15   3   0 2420.89 1208.98   6
  -3  15   0 1492.93 1088.78  13
 -15  -3   0 2579.44 1413.89   6
 -15   3  -2-98.3547 597.097  16
 -15  -3  -2 527.704 768.426  16
   3  15   2 1304.61 776.212  15
 -15   3   2 1782.95 1248.28   6
 -15   3  -2 912.882 979.645   6
  -3  15  -2 557.916 685.959  13
  -3  15   2 752.587 854.974  13
 -15  -3   2-109.560 950.278   6
 -15  -3  -2 1303.70 1081.14   6
  15   3  -4 2112.80 480.638   8
 -15   3  -4 2711.22 1312.34  16
 -15  -3  -4 4718.27 1478.00  16
   3  15   4 5647.04 1382.91  15
 -15   3   4 4000.37 1657.65   6
 -15   3  -4 2259.56 996.435   6
  -3  15   4 3347.54 1488.98  13
 -15  -3   4 1425.52 778.182   6
 -15  -3  -4 2067.54 1256.20   6
  15   3  -6 7107.15 804.900   8
 -15   3  -6 10653.0 2029.51  16
 -15  -3  -6 9508.17 2046.97  16
   3  15   6 12239.4 1980.96  15
 -15   3   6 8300.94 1833.84   6
 -15   3  -6 6742.10 1332.19   6
 -15  -3   6 8063.44 1795.97   6
  -3  15   6 9103.78 2099.73  13
 -15  -3  -6 8709.78 1804.88   6
  15   3  -8 3381.31 535.687   8
   3 -15  -8 3364.89 584.023  17
 -15   3  -8 5662.57 1301.80  16
 -15  -3  -8 5193.50 1383.17  16
   3  15   8 5312.50 1215.58  15
 -15   3   8 3036.84 1035.15   6
  -3  15   8 4741.66 1472.48  13
 -15  -3  -8 3076.71 888.548   6
  15   3 -10 819.243 230.887   8
   3 -15 -10 990.172 282.457  17
 -15   3 -10 777.595 491.900  16
 -15  -3 -10 337.337 427.846  16
   3  15  10 1204.93 533.393  15
  -3  15  10 1681.99 788.804  13
  15   3 -12 1462.37 239.370   8
 -15  -3 -12 1268.31 590.351  16
 -15  -4  -1 1005.40 1012.73  16
   4  15  -1 417.201 437.087  15
   4  15   1-192.303 416.650  15
 -15   4   1 1512.48 1078.11   6
 -15   4  -1 1789.19 1093.33   6
  -4  15  -1-17.2865 553.291  13
  -4  15   1 254.360 689.046  13
 -15  -4   1 473.781 1097.64   6
 -15  -4  -1 652.329 1064.82   6
 -15  -4  -3 2.19864 684.773  16
   4  15   3 449.594 568.420  15
 -15   4   3-873.108 1007.03   6
 -15   4  -3 789.506 631.632   6
  -4  15  -3 1599.99 737.977  13
  -4  15   3 89.5956 655.311  13
 -15  -4   3-1898.50 1300.97   6
 -15  -4  -3 1363.61 1224.88   6
  15   4  -5 433.753 239.404   8
 -15  -4  -5 779.679 684.157  16
   4  15   5 1115.85 728.741  15
 -15   4   5-1157.74 1089.38   6
 -15   4  -5 286.228 466.873   6
 -15  -4   5-460.685 842.305   6
  -4  15   5 641.783 737.495  13
 -15  -4  -5-611.200 805.767   6
  15   4  -7 120.177 165.180   8
 -15  -4  -7 367.865 573.257  16
   4  15   7 704.171 574.816  15
 -15   4   7-14.1046 689.001   6
  -4  15   7-263.474 628.337  13
 -15  -4  -7 84.8770 573.905   6
  15   4  -9 189.436 182.838   8
   4 -15  -9 85.3924 139.884  17
 -15  -4  -9 286.428 517.174  16
 -15   4   9 297.128 590.987   6
   4  15   9 304.286 445.373  15
  -4  15   9 1561.07 909.222  13
  15   4 -11-73.7569 142.287   8
   4 -15 -11-44.1711 186.130  17
 -15  -4 -11-533.279 608.039  16
   4  15  11 18.2486 296.762  15
   5  15   0 1358.10 597.687  15
 -15   5   0 1066.62 832.321   6
  -5  15   0 856.497 727.757  13
 -15  -5   0 1977.66 1446.02   6
 -15  -5  -2 1401.98 942.084  16
   5  15   2 1092.20 535.734  15
 -15   5   2 1812.52 1027.65   6
 -15   5  -2-691.737 826.360   6
  -5  15  -2-50.7664 601.339  13
  -5  15   2 319.877 865.352  13
 -15  -5   2 610.242 883.617   6
 -15  -5  -2 1208.19 824.463   6
  15   5  -4 574.812 314.798   8
 -15  -5  -4-1336.02 806.221  16
   5  15   4 1091.04 647.513  15
 -15   5   4 125.564 749.896   6
 -15   5  -4 68.6052 550.737   6
  -5  15   4 394.435 724.162  13
 -15  -5   4-166.390 804.424   6
 -15  -5  -4 677.322 864.903   6
  15   5  -6 2859.44 476.584   8
 -15  -5  -6 3130.59 1180.85  16
   5  15   6 3050.07 927.579  15
 -15   5   6 3160.09 1129.17   6
 -15  -5   6 3250.23 1069.30   6
  -5  15   6 3778.07 1374.24  13
 -15  -5  -6 3434.33 1277.82   6
  15   5  -8 2202.08 370.700   8
 -15   5  -8 496.907 282.926   4
 -15  -5  -8 3196.75 1045.47  16
 -15   5   8 3054.97 961.873   6
   5  15   8 3261.76 904.195  15
  -5  15   8 1981.95 849.054  13
 -15  -5  -8 1552.48 713.774   6
  15   5 -10-135.832 157.104   8
   5 -15 -10 363.845 172.169  17
 -15  -5 -10 1171.31 649.477  16
   5  15  10 1195.72 511.343  15
  -5  15  10 1494.06 577.468  13
   6  15   1 1027.39 532.719  15
 -15   6   1 496.392 704.872   6
 -15   6  -1-436.864 712.081   6
  -6  15  -1 484.735 688.410  13
  -6  15   1 24.7824 667.238  13
 -15  -6   1 284.957 966.386   6
 -15  -6  -1 344.036 1111.78   6
  15   6  -3 1238.03 363.091   8
   6  15   3 1671.02 692.532  15
 -15   6  -3 1265.10 723.246   6
 -15   6   3 1797.51 1007.38   6
  -6  15  -3 992.396 693.288  13
  -6  15   3 1029.22 878.127  13
 -15  -6   3 1733.85 980.652   6
 -15  -6  -3 2105.98 1252.92   6
  15   6  -5 2078.16 417.182   8
 -15  -6  -5 1197.61 716.119  16
   6  15   5 4958.84 1073.76  15
 -15   6   5 2791.08 1093.25   6
 -15  -6   5 1563.52 955.030   6
  -6  15   5 3289.59 1201.90  13
 -15  -6  -5 3808.43 1319.29   6
  15   6  -7 2509.81 384.242   8
 -15  -6  -7 1804.83 797.923  16
 -15   6   7 2097.91 863.825   6
   6  15   7 4264.04 948.711  15
  -6  15   7 3285.89 1056.04  13
 -15  -6  -7 3257.25 1019.16   6
 -15  -6  -9-1662.09 699.853  16
  -6  15   9 1217.08 597.131  13
 -15   7   0 899.333 732.437   6
  -7  15   0-145.518 523.274  13
 -15  -7   0 1073.68 1019.22   6
  15   7  -2 199.455 170.176   8
 -15   7  -2 35.8885 430.869   6
 -15   7   2-49.1647 531.471   6
  -7  15  -2 268.361 454.264  13
  -7  15   2 468.569 712.965  13
 -15  -7   2 117.873 741.016   6
 -15  -7  -2 657.640 908.425   6
  15   7  -4 86.4232 141.439   8
 -15   7   4 319.276 551.820   6
  -7  15   4 106.820 598.687  13
 -15  -7   4 1234.24 863.984   6
 -15  -7  -4-48.6209 711.393   6
  15   7  -6-17.8085 113.326   8
 -15   7   6-107.927 586.154   6
  -7  15   6 221.424 448.615  13
 -15  -7  -6-185.498 524.239   6
  15   8  -1 519.872 212.512   8
 -15   8  -1-41.7301 378.008   6
 -15   8   1 1416.04 625.219   6
  -8  15  -1 1156.22 650.350  13
  -8  15   1 368.130 447.612  13
 -15  -8   1 2014.86 1030.17   6
 -15  -8  -1 1400.97 888.591   6
 -15   8   3-464.807 547.490   6
  -8  15   3-443.625 685.664  13
 -15  -8  -3 1443.51 956.980   6
 -15   8   5 1253.23 641.885   6
  -8  15   5 885.519 764.870  13
 -15  -8  -5 755.658 659.414   6
  -9  15   0 1164.88 600.978  13
  -9  15   2 282.345 375.654  13
 -15  -9  -2 1296.00 748.272   6
   0  16   0 4945.14 1101.53  15
   0  16   0 4402.81 1253.42  13
 -16   0   0 5764.04 1631.60   6
  16   0  -2 2483.33 437.370   8
 -16   0  -2 4984.67 1450.86  16
 -16   0   2 5478.73 1597.29   6
   0  16   2 5649.33 1473.06  13
 -16   0  -2 4061.98 1309.14   6
  16   0  -4 5576.60 624.857   8
 -16   0   4 11438.6 2144.68   6
 -16   0  -4 10031.4 1951.79  16
   0  16   4 11922.4 2108.13  13
 -16   0  -4 9338.11 1657.18   6
  16   0  -6 9734.04 747.608   8
 -16   0   6 16200.5 2209.88   6
 -16   0  -6 10830.5 1575.04   6
 -16   0  -6 12682.2 1979.83  16
   0  16   6 19695.3 2570.35  13
  16   0  -8 5873.35 537.404   8
 -16   0  -8 7626.69 1419.98  16
 -16   0 -10 1866.13 609.593  16
   0  16  10 4095.83 834.214  15
  16  -1  -1 1058.90 293.191   8
  16  -1   1 688.843 270.905   8
 -16  -1  -1 2179.89 947.404  16
   1  16   1 2170.10 828.074  15
   1  16   1 2836.03 1016.32  13
 -16   1   1 3166.30 1304.11   6
 -16   1  -1 2855.78 1209.12   6
  -1  16  -1 2763.22 961.539  13
  -1  16   1 3102.40 1161.20  13
 -16  -1   1 1990.27 1251.50   6
 -16  -1  -1 3366.32 1302.99   6
  16  -1  -3 1998.40 367.193   8
  16   1  -3 2312.58 430.683   8
 -16   1  -3 2238.09 951.298  16
 -16  -1  -3 3634.73 1198.31  16
   1  16   3 4889.96 1143.52  15
 -16   1   3 3612.51 1346.60   6
 -16   1  -3 2567.05 1139.18   6
   1  16   3 6205.50 1513.25  13
 -16  -1   3 3773.50 1347.44   6
  -1  16   3 4622.13 1354.50  13
 -16  -1  -3 1618.13 995.659   6
  16  -1  -5 3275.14 422.947   8
  16   1  -5 3543.61 487.232   8
 -16   1  -5 5282.25 1396.32  16
 -16  -1  -5 4259.02 1361.69  16
   1  16   5 6063.37 1348.63  15
 -16   1   5 6760.39 1600.76   6
 -16  -1   5 8353.53 1798.38   6
 -16   1  -5 2597.26 1061.56   6
  -1  16   5 8333.17 1729.42  13
 -16  -1  -5 4805.70 1298.48   6
  16  -1  -7 2472.78 351.725   8
  16   1  -7 2696.40 402.152   8
 -16   1  -7 2619.68 964.084  16
 -16  -1  -7 2603.86 899.822  16
   1  16   7 4067.49 1031.07  15
 -16   1   7 2526.61 939.982   6
 -16  -1   7 875.056 545.747   6
 -16  -1  -7 1766.40 621.971   6
  -1  16   7 4012.50 1239.76  13
  16   1  -9 1097.38 233.462   8
 -16   1  -9 2647.92 818.502  16
 -16  -1  -9 2447.98 882.274  16
   1  16   9 2652.19 757.954  15
  -1  16   9 2588.46 683.974  15
 -16  -2   0 343.721 602.072  16
   2  16   0 1730.83 738.706  15
 -16   2   0 1127.51 817.220   6
  -2  16   0 1200.06 859.045  13
 -16  -2   0 421.225 820.504   6
  16   2  -2 309.355 271.991   8
 -16  -2  -2 980.375 716.877  16
   2  16   2 210.250 468.848  15
 -16   2   2 567.646 879.612   6
 -16   2  -2-161.926 648.021   6
  -2  16   2 700.891 689.988  13
 -16  -2   2 496.788 841.115   6
 -16  -2  -2-38.2860 731.964   6
  16   2  -4 91.3503 178.739   8
 -16   2  -4-16.1142 592.555  16
 -16  -2  -4-268.409 598.310  16
   2  16   4 297.560 444.595  15
 -16   2   4 252.697 716.675   6
 -16   2  -4 410.840 630.672   6
 -16  -2   4 830.700 798.395   6
  -2  16   4 463.314 797.901  13
 -16  -2  -4 669.039 639.779   6
  16   2  -6-131.122 168.549   8
 -16   2  -6 49.9245 440.711  16
 -16  -2  -6-449.073 575.393  16
   2  16   6-409.656 492.821  15
 -16   2   6 282.879 599.804   6
 -16   2  -6-340.680 509.000   6
 -16  -2   6 735.307 754.209   6
  -2  16   6 276.215 613.005  13
 -16  -2  -6-787.693 772.603   6
  16   2  -8 173.588 115.615   8
 -16   2  -8 422.333 478.900  16
 -16  -2  -8-167.993 447.004  16
   2  16   8 325.285 414.989  15
  -2  16   8 141.716 467.841  13
 -16  -2 -10 307.942 306.502  16
 -16  -3  -1-619.549 592.519  16
   3  16   1 736.173 509.882  15
 -16   3   1 508.135 747.314   6
 -16   3  -1 956.374 782.794   6
  -3  16  -1 377.511 439.805  13
  -3  16   1 520.029 644.508  13
 -16  -3   1-1137.38 1076.22   6
 -16  -3  -1-1574.49 1092.06   6
  16   3  -3-88.9848 144.105   8
 -16  -3  -3-45.2589 481.963  16
   3  16   3 196.122 450.080  15
 -16   3   3-714.095 798.115   6
 -16   3  -3-338.413 628.329   6
  -3  16   3-1149.78 859.783  13
 -16  -3   3-571.121 965.952   6
 -16  -3  -3-1894.64 1006.63   6
  16   3  -5 184.527 169.534   8
 -16  -3  -5 803.666 524.304  16
   3  16   5 270.990 470.340  15
 -16   3   5 784.997 809.190   6
 -16   3  -5-862.305 652.373   6
 -16  -3   5 1453.88 950.977   6
  -3  16   5-553.458 759.475  13
 -16  -3  -5 152.990 725.975   6
  16   3  -7 390.122 178.941   8
 -16  -3  -7 96.2555 466.901  16
   3  16   7 25.9681 365.857  15
 -16   3   7 405.249 526.582   6
  -3  16   7 124.006 442.569  13
 -16  -3  -7 137.305 499.444   6
  16   3  -9-244.719 157.876   8
 -16  -3  -9 470.424 494.571  16
   3  16   9-401.765 317.409  15
  -3  16   9-285.513 457.025  13
 -16   4   0 1996.00 1022.50   6
  -4  16   0 710.407 668.500  13
 -16  -4   0 536.471 803.708   6
  16   4  -2 739.673 278.662   8
 -16  -4  -2 1990.49 942.919  16
   4  16   2 2341.46 773.218  15
 -16   4   2 957.843 604.056   6
 -16   4  -2 519.145 643.537   6
  -4  16  -2 286.683 413.871  13
  -4  16   2 1182.59 818.442  13
 -16  -4   2 1024.56 715.754   6
 -16  -4  -2 742.087 672.507   6
  16   4  -4 0.36382 157.733   8
 -16  -4  -4-125.400 463.721  16
   4  16   4-130.819 498.158  15
 -16   4   4 370.890 669.285   6
 -16   4  -4-837.267 574.136   6
 -16  -4   4-1530.54 938.960   6
  -4  16   4-334.741 591.871  13
 -16  -4  -4-1709.74 1131.09   6
  16   4  -6 912.665 270.754   8
 -16  -4  -6 622.731 627.286  16
   4  16   6 676.981 548.890  15
 -16   4   6-25.4732 528.585   6
  -4  16   6-754.040 539.247  13
 -16  -4  -6-495.715 795.448   6
  16   4  -8 1435.96 256.267   8
 -16  -4  -8 2165.56 861.267  16
   4  16   8 1213.84 564.687  15
  -4  16   8 943.188 502.002  13
 -16   5   1 5121.91 1267.14   6
 -16   5  -1 4878.64 1122.65   6
  -5  16  -1 3291.96 1018.84  13
  -5  16   1 3859.76 1103.94  13
 -16  -5   1 4470.10 1269.78   6
 -16  -5  -1 6399.74 1566.19   6
  16   5  -3 1904.36 362.245   8
   5  16   3 4108.74 915.888  15
 -16   5  -3 3420.21 826.474   6
 -16   5   3 3276.42 1095.07   6
 -16  -5   3 3038.94 929.770   6
  -5  16   3 3498.84 1134.61  13
 -16  -5  -3 5756.16 1493.17   6
  16   5  -5 3574.42 438.230   8
 -16  -5  -5 3084.90 888.305  16
   5  16   5 7122.15 1121.56  15
 -16   5   5 6025.77 1214.67   6
  -5  16   5 6173.25 1326.10  13
 -16  -5  -5 4943.33 1156.58   6
  16   5  -7 6390.22 511.025   8
  -5  16   7 6790.52 1257.36  13
 -16   6   0 2931.01 858.304   6
  -6  16   0 2412.84 885.129  13
 -16  -6   0 2411.23 942.049   6
  16   6  -2 1973.44 338.667   8
 -16   6  -2 2623.18 744.645   6
 -16   6   2 3578.79 992.060   6
  -6  16   2 2546.33 878.096  13
 -16  -6   2 3072.64 1115.75   6
 -16  -6  -2 4877.89 1352.91   6
  16   6  -4 3665.03 415.062   8
 -16   6   4 6303.57 1207.62   6
  -6  16   4 6602.29 1253.46  13
 -16  -6  -4 7669.22 1533.58   6
  -6  16   6 5547.57 1106.47  13
 -16  -7  -1-1586.97 864.160   6
 -16  -7  -3 657.504 596.416   6
 -17   0   1 9523.87 1664.99   6
 -17   0  -1 7124.04 1423.44   6
 -17   0   3 11545.5 1784.16   6
 -17   0  -3 8345.44 1422.48   6
   0  17   3 5880.03 984.666  15
   0  17   5 6643.48 1051.93  15
 -17   0   5 7685.25 1259.05   6
 -17   1   0 5646.05 1317.42   6
 -17  -1   0 5182.59 1230.89   6
  17   1  -2 2111.06 315.599   8
 -17   1   2 5970.85 1353.28   6
 -17   1  -2 4597.49 1110.66   6
  -1  17   2 4178.85 1052.52  13
 -17  -1   2 7582.33 1492.50   6
 -17  -1  -2 5139.62 1251.32   6
  17   1  -4 1853.49 272.432   8
 -17  -1  -4 3202.45 922.782  16
   1  17   4 3623.05 824.622  15
  -1  17   4 3320.56 770.012  15
 -17   1   4 4578.45 1084.06   6
 -17   1  -4 4053.24 914.846   6
 -17  -1   4 4894.91 1146.72   6
 -17  -1  -4 3741.15 887.485   6
 -17  -1  -6 3779.21 910.576  16
  17   2  -1 375.378 171.813   8
  17   2   1 103.489 124.107   8
 -17   2   1 1462.13 737.276   6
 -17   2  -1 483.847 530.041   6
 -17  -2   1 1697.07 808.845   6
  -2  17   1-63.4282 480.921  13
 -17  -2  -1-605.602 580.971   6
  17   2  -3 276.207 172.411   8
 -17   2   3 1939.60 813.352   6
 -17   2  -3 1604.80 661.519   6
  -2  17   3 769.357 588.877  13
 -17  -2  -3 1027.09 600.674   6
 -17  -2  -5-42.3732 332.224  16
 -17   2   5-192.772 472.738   6
  -2  17   5 652.742 529.595  13
  17   3   0-26.2957 125.355   8
 -17   3   0 277.226 584.046   6
 -17  -3   0 331.540 522.236   6
  17   3  -2 141.166 126.968   8
 -17   3   2 285.282 530.512   6
 -17   3  -2-554.585 530.881   6
 -17  -3   2 489.468 745.865   6
  -3  17   2 382.363 510.132  13
 -17  -3  -2-386.792 599.858   6
  17   3  -4 134.067 119.347   8
 -17   3   4 497.538 497.568   6
  -3  17   4-91.4726 421.254  13
 -17  -3  -4-66.3892 487.100   6
  17   4  -1 654.855 192.500   8
  17   4   1 511.409 174.351   8
 -17   4   1 2210.66 755.332   6
 -17  -4   1 1288.15 680.058   6
 -17  -4  -1 2951.97 979.697   6
 -17  -4  -3 866.313 636.772   6
   0   0   0    0.00    0.00   0
TITL FJU-14-BF4-a in I4/mmm
REM I4/mmm (#139 in standard setting)
CELL 1.54184  14.124494  14.124494  19.904948  90.0000  90.0000  90.0000
ZERR    1.00   0.000720   0.000720   0.000978   0.0000   0.0000   0.0000
LATT  2
SYMM -x,-y, z
SYMM -y, x, z
SYMM  y,-x, z
SYMM -x, y,-z
SYMM  x,-y,-z
SYMM  y, x,-z
SYMM -y,-x,-z
SFAC C H B N O F Cl Cu
UNIT 1.00 1.00 1.00 1.00 1.00 1.00 1.00 1.00
TREF
HKLF 4
END
;
_shelx_hkl_checksum              5529
_olex2_submission_special_instructions 'No special instructions were received'
loop_
_space_group_symop_operation_xyz
'x, y, z'
'-y, x, z'
'-x, -y, z'
'y, -x, z'
'x, -y, -z'
'-x, y, -z'
'y, x, -z'
'-y, -x, -z'
'x+1/2, y+1/2, z+1/2'
'-y+1/2, x+1/2, z+1/2'
'-x+1/2, -y+1/2, z+1/2'
'y+1/2, -x+1/2, z+1/2'
'x+1/2, -y+1/2, -z+1/2'
'-x+1/2, y+1/2, -z+1/2'
'y+1/2, x+1/2, -z+1/2'
'-y+1/2, -x+1/2, -z+1/2'
'-x, -y, -z'
'y, -x, -z'
'x, y, -z'
'-y, x, -z'
'-x, y, z'
'x, -y, z'
'-y, -x, z'
'y, x, z'
'-x+1/2, -y+1/2, -z+1/2'
'y+1/2, -x+1/2, -z+1/2'
'x+1/2, y+1/2, -z+1/2'
'-y+1/2, x+1/2, -z+1/2'
'-x+1/2, y+1/2, z+1/2'
'x+1/2, -y+1/2, z+1/2'
'-y+1/2, -x+1/2, z+1/2'
'y+1/2, x+1/2, z+1/2'
loop_
_atom_site_label
_atom_site_type_symbol
_atom_site_fract_x
_atom_site_fract_y
_atom_site_fract_z
_atom_site_U_iso_or_equiv
_atom_site_adp_type
_atom_site_occupancy
_atom_site_site_symmetry_order
_atom_site_calc_flag
_atom_site_refinement_flags_posn
_atom_site_refinement_flags_adp
_atom_site_refinement_flags_occupancy
_atom_site_disorder_assembly
_atom_site_disorder_group
Cu1 Cu 0.17953(8) 0.0000 0.0000 0.0254(7) Uani 1 4 d S T P . .
Cl1 Cl 0.0000 0.0000 0.0000 0.0470(12) Uani 1 16 d S T P A .
O1 O 0.2017(9) -0.0895(10) -0.0744(7) 0.036(3) Uani 0.5 1 d . . . A 1
N1 N 0.1732(12) -0.1053(14) -0.0682(9) 0.036(3) Uani 0.5 1 d . . . A 2
N2 N 0.1955(4) -0.1955(4) -0.1597(3) 0.0459(18) Uani 0.5 2 d S T P A 2
C3 C 0.2784(13) -0.1612(16) -0.1885(9) 0.113(9) Uani 0.5 1 d . . . A 1
H3 H 0.3144 -0.1165 -0.1656 0.136 Uiso 0.5 1 calc R . . A 1
C1 C 0.3074(6) -0.1926(6) -0.2500 0.133(8) Uani 1 2 d S T P . .
H1 H 0.3539 -0.1461 -0.2500 0.160 Uiso 1 2 calc RS T P A 2
C4 C 0.1955(4) -0.1955(4) -0.1597(3) 0.0459(18) Uani 0.5 2 d S T P A 1
C2 C 0.2274(9) -0.2274(9) -0.2217(6) 0.049(4) Uani 0.5 2 d S T P A 2
C5 C 0.2215(7) -0.1141(7) -0.1246(4) 0.039(2) Uani 0.5 1 d . . . A 2
H5 H 0.2672 -0.0713 -0.1391 0.046 Uiso 0.5 1 calc R . . A 2
C6 C 0.1623(6) -0.1623(6) -0.0964(6) 0.035(3) Uani 0.5 2 d S T P A 1
F1 F 0.4202(9) 0.0000 -0.1554(14) 0.189(9) Uani 0.75 2 d S T P . .
F2 F 0.5000 -0.0661(13) -0.243(2) 0.233(13) Uani 0.75 2 d S T P . .
B1 B 0.5000 0.0000 -0.180(2) 0.116(14) Uani 0.75 4 d S T P . .
OW O 0.3571(13) 0.0000 0.0000 0.207(11) Uani 1 4 d S T P B 1
loop_
_atom_site_aniso_label
_atom_site_aniso_U_11
_atom_site_aniso_U_22
_atom_site_aniso_U_33
_atom_site_aniso_U_23
_atom_site_aniso_U_13
_atom_site_aniso_U_12
Cu1 0.0351(9) 0.0343(9) 0.0069(9) 0.000 0.000 0.000
Cl1 0.0342(15) 0.0342(15) 0.073(3) 0.000 0.000 0.000
O1 0.057(8) 0.041(6) 0.011(4) 0.002(4) 0.015(5) -0.001(5)
N1 0.047(8) 0.045(7) 0.015(5) -0.005(5) 0.019(5) -0.018(5)
N2 0.059(3) 0.059(3) 0.020(3) -0.0126(19) 0.0126(19) -0.012(3)
C3 0.101(12) 0.158(17) 0.082(10) -0.098(12) 0.053(9) -0.082(13)
C1 0.149(10) 0.149(10) 0.103(10) -0.097(9) 0.097(9) -0.095(11)
C4 0.059(3) 0.059(3) 0.020(3) -0.0126(19) 0.0126(19) -0.012(3)
C2 0.065(6) 0.065(6) 0.016(5) -0.019(5) 0.019(5) -0.010(8)
C5 0.048(5) 0.046(5) 0.022(4) -0.006(3) 0.017(4) -0.002(4)
C6 0.049(5) 0.049(5) 0.008(5) -0.003(3) 0.003(3) 0.016(6)
F1 0.072(8) 0.186(15) 0.31(3) 0.000 0.019(11) 0.000
F2 0.188(18) 0.22(2) 0.29(3) -0.08(3) 0.000 0.000
B1 0.072(18) 0.19(4) 0.09(2) 0.000 0.000 0.000
OW 0.117(13) 0.46(4) 0.041(5) 0.000 0.000 0.000
loop_
_atom_type_symbol
_atom_type_description
_atom_type_scat_dispersion_real
_atom_type_scat_dispersion_imag
_atom_type_scat_source
C C 0.0181 0.0091 'International Tables Vol C Tables 4.2.6.8 and 6.1.1.4'
H H 0.0000 0.0000 'International Tables Vol C Tables 4.2.6.8 and 6.1.1.4'
B B 0.0090 0.0039 'International Tables Vol C Tables 4.2.6.8 and 6.1.1.4'
Cl Cl 0.3639 0.7018 'International Tables Vol C Tables 4.2.6.8 and 6.1.1.4'
Cu Cu -1.9646 0.5888 'International Tables Vol C Tables 4.2.6.8 and 6.1.1.4'
F F 0.0727 0.0534 'International Tables Vol C Tables 4.2.6.8 and 6.1.1.4'
N N 0.0311 0.0180 'International Tables Vol C Tables 4.2.6.8 and 6.1.1.4'
O O 0.0492 0.0322 'International Tables Vol C Tables 4.2.6.8 and 6.1.1.4'
loop_
_geom_angle_atom_site_label_1
_geom_angle_atom_site_label_2
_geom_angle_atom_site_label_3
_geom_angle
_geom_angle_site_symmetry_1
_geom_angle_site_symmetry_3
O1 Cu1 Cl1 99.2(4) 5 .
O1 Cu1 Cl1 99.2(4) 19 .
O1 Cu1 Cl1 99.2(4) 22 .
O1 Cu1 Cl1 99.2(4) . .
O1 Cu1 O1 79.8(7) 22 .
O1 Cu1 O1 79.8(7) 5 19
O1 Cu1 O1 97.3(8) 19 .
O1 Cu1 O1 161.7(8) 5 .
O1 Cu1 O1 97.3(8) 5 22
O1 Cu1 O1 161.7(8) 22 19
N1 Cu1 Cl1 87.4(5) 19 .
N1 Cu1 Cl1 87.4(5) . .
N1 Cu1 Cl1 87.4(5) 22 .
N1 Cu1 Cl1 87.4(5) 5 .
N1 Cu1 N1 174.9(9) 22 19
N1 Cu1 N1 84.6(11) 5 22
N1 Cu1 N1 95.1(11) . 22
N1 Cu1 N1 174.9(9) . 5
N1 Cu1 N1 84.6(11) . 19
N1 Cu1 N1 95.1(11) 5 19
Cu1 Cl1 Cu1 90.0 18 17
Cu1 Cl1 Cu1 90.0 18 .
Cu1 Cl1 Cu1 180.0 17 .
Cu1 Cl1 Cu1 90.0 2 .
Cu1 Cl1 Cu1 180.0 18 2
Cu1 Cl1 Cu1 90.0 2 17
C6 O1 Cu1 136.1(9) . .
N1 N1 Cu1 123.6(3) 23 .
C5 N1 Cu1 128.2(10) . .
C5 N1 N1 107.4(8) . 23
C2 N2 C5 128.8(4) . 23
C2 N2 C5 128.8(4) . .
C5 N2 C5 100.5(8) 23 .
C3 C1 C3 178.0(17) . 15_544
C2 C1 C2 64.3(10) . 25_544
N2 C2 C2 169(2) . 25_544
C1 C2 N2 121.5(5) 25_544 .
C1 C2 N2 121.5(5) . .
C1 C2 C1 115.7(10) 25_544 .
C1 C2 C2 57.8(5) 25_544 25_544
C1 C2 C2 57.8(5) . 25_544
N1 C5 N2 111.6(10) . .
O1 C6 O1 127.7(15) 23 .
F2 F2 F2 87.8(13) 28_544 26_554
F2 F2 B1 75(3) 28_544 .
F2 F2 B1 58(3) 28_544 26_554
F2 F2 B1 75(3) 26_554 .
F2 F2 B1 58(3) 26_554 26_554
B1 F2 B1 112(2) . 26_554
F1 B1 F1 133(4) . 3_655
F1 B1 F2 145(3) . 28_544
F1 B1 F2 108.6(15) . 3_655
F1 B1 F2 108.6(15) 3_655 3_655
F1 B1 F2 145(3) 3_655 26_554
F1 B1 F2 82.0(16) 3_655 28_544
F1 B1 F2 108.6(15) 3_655 .
F1 B1 F2 82.0(16) . 26_554
F1 B1 F2 108.6(15) . .
F2 B1 F2 46.7(14) . 26_554
F2 B1 F2 63(2) 26_554 28_544
F2 B1 F2 73(3) 3_655 .
F2 B1 F2 46.7(14) 3_655 28_544
F2 B1 F2 46.7(14) . 28_544
F2 B1 F2 46.7(14) 3_655 26_554
loop_
_geom_bond_atom_site_label_1
_geom_bond_atom_site_label_2
_geom_bond_distance
_geom_bond_site_symmetry_2
Cu1 Cl1 2.5357(11) .
Cu1 O1 1.972(14) 22
Cu1 O1 1.972(14) 5
Cu1 O1 1.972(14) 19
Cu1 O1 1.972(14) .
Cu1 N1 2.015(18) 22
Cu1 N1 2.015(18) 19
Cu1 N1 2.015(18) .
Cu1 N1 2.015(18) 5
Cl1 Cu1 2.5357(11) 18
Cl1 Cu1 2.5357(11) 17
Cl1 Cu1 2.5357(11) 2
O1 C6 1.249(14) .
N1 N1 1.36(3) 23
N1 C5 1.320(16) .
N2 C2 1.390(11) .
N2 C5 1.395(10) .
N2 C5 1.395(10) 23
C3 C1 1.365(13) .
C1 C3 1.365(13) 15_544
C1 C2 1.354(12) 25_544
C1 C2 1.354(12) .
C2 C1 1.354(12) 25_544
C2 C2 1.44(2) 25_544
C6 O1 1.249(14) 23
F1 B1 1.23(2) .
F2 F2 1.35(3) 28_544
F2 F2 1.35(3) 26_554
F2 B1 1.57(4) .
F2 B1 1.79(5) 26_554
B1 F1 1.23(2) 3_655
B1 F2 1.79(5) 28_544
B1 F2 1.57(4) 3_655
B1 F2 1.79(5) 26_554
