#------------------------------------------------------------------------------
#$Date: 2017-01-01 03:40:38 +0200 (Sun, 01 Jan 2017) $
#$Revision: 189564 $
#$URL: file:///home/coder/svn-repositories/cod/cif/4/34/49/4344990.cif $
#------------------------------------------------------------------------------
#
# This file is available in the Crystallography Open Database (COD),
# http://www.crystallography.net/
#
# All data on this site have been placed in the public domain by the
# contributors.
#
data_4344990
loop_
_publ_author_name
'Huang, Yong-Liang'
'Zhong, Di-Chang'
'Jiang, Long'
'Gong, Yun-Nan'
'Lu, Tong-Bu'
_publ_section_title
;
 Two Li-Zn Cluster-Based Metal-Organic Frameworks: Strong H2/CO2 Binding
 and High Selectivity to CO2.
;
_journal_name_full               'Inorganic chemistry'
_journal_paper_doi               10.1021/acs.inorgchem.6b02407
_journal_year                    2016
_chemical_formula_sum            'C31 H45 Li N4 O16 Zn'
_chemical_formula_weight         802.02
_space_group_crystal_system      monoclinic
_space_group_IT_number           12
_space_group_name_Hall           '-C 2y'
_space_group_name_H-M_alt        'C 1 2/m 1'
_symmetry_space_group_name_Hall  '-C 2y'
_symmetry_space_group_name_H-M   'C 1 2/m 1'
_atom_sites_solution_hydrogens   mixed
_audit_creation_method           SHELXL-2016/4
_cell_angle_alpha                90
_cell_angle_beta                 97.166(2)
_cell_angle_gamma                90
_cell_formula_units_Z            8
_cell_length_a                   25.0141(5)
_cell_length_b                   21.2383(4)
_cell_length_c                   10.0324(2)
_cell_measurement_reflns_used    5679
_cell_measurement_temperature    150(2)
_cell_measurement_theta_max      66.7840
_cell_measurement_theta_min      4.1240
_cell_volume                     5288.15(18)
_computing_structure_refinement  'SHELXL-2016/4 (Sheldrick, 2016)'
_diffrn_ambient_temperature      150(2)
_diffrn_measured_fraction_theta_full 0.987
_diffrn_measured_fraction_theta_max 0.987
_diffrn_measurement_device_type  'Xcalibur, Atlas, Gemini ultra'
_diffrn_measurement_method       'omega scans'
_diffrn_radiation_type           CuK\a
_diffrn_radiation_wavelength     1.54178
_diffrn_reflns_av_R_equivalents  0.0565
_diffrn_reflns_av_unetI/netI     0.0561
_diffrn_reflns_Laue_measured_fraction_full 0.987
_diffrn_reflns_Laue_measured_fraction_max 0.987
_diffrn_reflns_limit_h_max       25
_diffrn_reflns_limit_h_min       -29
_diffrn_reflns_limit_k_max       24
_diffrn_reflns_limit_k_min       -17
_diffrn_reflns_limit_l_max       11
_diffrn_reflns_limit_l_min       -11
_diffrn_reflns_number            11783
_diffrn_reflns_point_group_measured_fraction_full 0.987
_diffrn_reflns_point_group_measured_fraction_max 0.987
_diffrn_reflns_theta_full        66.940
_diffrn_reflns_theta_max         66.940
_diffrn_reflns_theta_min         2.738
_exptl_absorpt_coefficient_mu    2.219
_exptl_absorpt_correction_T_max  0.6652
_exptl_absorpt_correction_T_min  0.5557
_exptl_absorpt_correction_type   multi-scan
_exptl_crystal_colour            colorless
_exptl_crystal_density_diffrn    2.015
_exptl_crystal_density_method    'not measured'
_exptl_crystal_description       block
_exptl_crystal_F_000             3360
_exptl_crystal_size_max          0.300
_exptl_crystal_size_mid          0.300
_exptl_crystal_size_min          0.200
_refine_diff_density_max         1.292
_refine_diff_density_min         -2.929
_refine_diff_density_rms         0.247
_refine_ls_extinction_method     none
_refine_ls_goodness_of_fit_ref   1.069
_refine_ls_hydrogen_treatment    constr
_refine_ls_matrix_type           full
_refine_ls_number_parameters     324
_refine_ls_number_reflns         4776
_refine_ls_number_restraints     13
_refine_ls_restrained_S_all      1.069
_refine_ls_R_factor_all          0.1085
_refine_ls_R_factor_gt           0.0995
_refine_ls_shift/su_max          0.007
_refine_ls_shift/su_mean         0.000
_refine_ls_structure_factor_coef Fsqd
_refine_ls_weighting_details
'w=1/[\s^2^(Fo^2^)+(0.1940P)^2^+58.2991P] where P=(Fo^2^+2Fc^2^)/3'
_refine_ls_weighting_scheme      calc
_refine_ls_wR_factor_gt          0.2840
_refine_ls_wR_factor_ref         0.2987
_reflns_Friedel_coverage         0.000
_reflns_number_gt                4014
_reflns_number_total             4776
_reflns_threshold_expression     'I > 2\s(I)'
_cod_data_source_file            ic6b02407_si_003.cif
_cod_data_source_block           2
_cod_database_code               4344990
_shelx_shelxl_version_number     2016/4
_shelx_space_group_comment
;
The symmetry employed for this shelxl refinement is uniquely defined
by the following loop, which should always be used as a source of
symmetry information in preference to the above space-group names.
They are only intended as comments.
;
_shelx_estimated_absorpt_t_min   0.556
_shelx_estimated_absorpt_t_max   0.665
_shelx_res_file
;
TITL exp_8657 in C2/m
 exp_8657_sq.res created by SHELXL-2016/4 at 13:22:56 on 29-Nov-2016
CELL 1.54178 25.0141 21.2383 10.0324 90 97.166 90
ZERR 8 0.0005 0.0004 0.0002 0 0.002 0
LATT 7
SYMM -X,+Y,-Z
SFAC C H Li N O Zn
UNIT 248 360 8 32 128 8
DFIX 1.53 N1' C24'
DFIX 1.53 N1 C23
DFIX 1.53 C23' N1'
DFIX 2.58 0.005 C23' C24'
DFIX 1.53 N1 C24
DFIX 2.58 0.005 C23 C24
SADI 0.005 C23 C24 C23' C24'
ISOR N1
EADP N1' C23'

L.S. 12 0 55
PLAN  3
SIZE 0.3 0.3 0.2
TEMP -123
BOND $H
HTAB
CONF
ABIN
fmap 2
acta
MORE -1
REM <olex2.extras>
REM <HklSrc "%.\\exp_8657_sq.hkl">
REM </olex2.extras>

WGHT    0.194000   58.299099
FVAR      14.31273   0.50530
C1    1    0.287995    0.172231    0.098247    11.00000    0.02425    0.00982 =
         0.01984    0.00121   -0.00444    0.00285
C2    1    0.271941    0.133377   -0.024880    11.00000    0.01796    0.01106 =
         0.01771   -0.00225   -0.00284    0.00038
C3    1    0.257871    0.165094   -0.144607    11.00000    0.01734    0.00763 =
         0.01662   -0.00051   -0.00042    0.00115
AFIX  43
H3    2    0.259802    0.209762   -0.145450    11.00000   -1.20000
AFIX   0
C4    1    0.241013    0.133451   -0.263515    11.00000    0.01313    0.00994 =
         0.01661   -0.00140   -0.00190    0.00056
C5    1    0.226307    0.173781   -0.385365    11.00000    0.02545    0.00551 =
         0.01575   -0.00202   -0.00019   -0.00265
C6    1    0.239937    0.067161   -0.265955    11.00000    0.01246    0.00988 =
         0.01666    0.00125   -0.00303    0.00089
C7    1    0.223227    0.031599   -0.386397    11.00000    0.02700    0.00944 =
         0.01336    0.00039   -0.00356    0.00072
AFIX  43
H7    2    0.211947    0.053426   -0.467707    11.00000   -1.20000
AFIX   0
C8    1    0.284323    0.031899    0.098570    11.00000    0.04213    0.01546 =
         0.01726   -0.00525   -0.01175    0.00143
AFIX  43
H8    2    0.294283    0.053665    0.180641    11.00000   -1.20000
AFIX   0
C9    1    0.269873    0.067013   -0.020527    11.00000    0.02107    0.01112 =
         0.01889   -0.00071   -0.00419    0.00088
C10   1    0.254257    0.033837   -0.143747    11.00000    0.01659    0.00983 =
         0.01629    0.00004   -0.00495   -0.00139
C11   1    0.406248    0.171997    0.388065    11.00000    0.02214    0.01205 =
         0.04039    0.00071   -0.01604    0.00135
C12   1    0.454777    0.133227    0.442726    11.00000    0.02103    0.01324 =
         0.04579    0.00309   -0.01395    0.00352
C13   1    0.500000    0.164973    0.500000    10.50000    0.03002    0.00841 =
         0.05430    0.00000   -0.01440    0.00000
AFIX  43
H13   2    0.500000    0.209704    0.499998    10.50000   -1.20000
AFIX   0
C14   1    0.408484    0.031946    0.378119    11.00000    0.02268    0.01541 =
         0.07380    0.00094   -0.02700    0.00255
AFIX  43
H14   2    0.377844    0.053791    0.335691    11.00000   -1.20000
AFIX   0
C15   1    0.453766    0.067335    0.440823    11.00000    0.01837    0.01324 =
         0.05052    0.00331   -0.01818   -0.00083
C16   1    0.500000    0.033657    0.500000    10.50000    0.01975    0.00443 =
         0.05036    0.00000   -0.01707    0.00000
C17   1    0.397149    0.384011    0.232145    11.00000    0.02018    0.01323 =
         0.04145    0.00156    0.00725    0.00110
C18   1    0.419889    0.442928    0.178505    11.00000    0.02010    0.00991 =
         0.04149    0.00039    0.00943   -0.00043
C19   1    0.403201    0.500000    0.223868    10.50000    0.02353    0.01363 =
         0.03997    0.00000    0.01230    0.00000
AFIX  43
H19   2    0.378989    0.500000    0.289680    10.50000   -1.20000
AFIX   0
C20   1    0.480456    0.384266    0.040483    11.00000    0.02587    0.00698 =
         0.05691    0.00112    0.01434   -0.00202
AFIX  43
H20   2    0.466303    0.345331    0.066850    11.00000   -1.20000
AFIX   0
C21   1    0.459907    0.441909    0.087420    11.00000    0.02135    0.01018 =
         0.04599    0.00106    0.01178   -0.00264
C22   1    0.479461    0.500000    0.044501    10.50000    0.02014    0.00688 =
         0.04422    0.00000    0.00875    0.00000
LI1   3    0.288335    0.184924    0.385325    11.00000    0.01746    0.01137 =
         0.02137    0.00375   -0.00335    0.00256
O1    5    0.322325    0.214964    0.087268    11.00000    0.02817    0.01239 =
         0.02602   -0.00462    0.00389   -0.00543
O2    5    0.265800    0.161832    0.201945    11.00000    0.05029    0.01893 =
         0.01968   -0.00826    0.00415   -0.01338
O3    5    0.198362    0.223320   -0.369176    11.00000    0.02211    0.00410 =
         0.01872    0.00171   -0.00168    0.00202
O4    5    0.242471    0.160547   -0.493266    11.00000    0.04751    0.01181 =
         0.02107   -0.00069    0.01167   -0.00269
O5    5    0.416109    0.221175    0.323818    11.00000    0.01998    0.01423 =
         0.05515    0.00531   -0.01283    0.00403
O6    5    0.360916    0.155461    0.409823    11.00000    0.01939    0.01757 =
         0.08467    0.01131   -0.00500    0.00319
O7    5    0.380348    0.341615    0.146017    11.00000    0.03083    0.01131 =
         0.04153    0.00562    0.00707   -0.00431
O8    5    0.394727    0.378947    0.353137    11.00000    0.05562    0.02684 =
         0.04673    0.00190    0.01199   -0.01391
ZN1   6    0.354229    0.268958    0.236992    11.00000    0.01618    0.00620 =
         0.02087    0.00082   -0.00358   -0.00148

PART 1
N1    4    0.403034    0.296388    0.631843    21.00000    0.52191    0.10165 =
         0.03846   -0.01584   -0.05283    0.05252
AFIX  23
H1A   2    0.380068    0.328019    0.647405    21.00000   -1.20000
H1B   2    0.392476    0.281438    0.547666    21.00000   -1.20000
AFIX   0
C23   1    0.459934    0.324045    0.635514    21.00000    0.26569    0.08908 =
         0.19881   -0.02129   -0.10054    0.00025
AFIX   3
H23A  2    0.475544    0.306675    0.558524    21.00000   -1.50000
H23B  2    0.480984    0.309805    0.719034    21.00000   -1.50000
H23C  2    0.460624    0.370155    0.631534    21.00000   -1.50000
AFIX   0
C24   1    0.397400    0.243865    0.731799    21.00000    1.31826    0.17651 =
         0.18811   -0.08443    0.38764   -0.18680
AFIX   3
H24A  2    0.426560    0.212765    0.740359    21.00000   -1.50000
H24B  2    0.363160    0.222915    0.701189    21.00000   -1.50000
H24C  2    0.395301    0.263675    0.819209    21.00000   -1.50000
AFIX   0
PART 0
PART 2
N1'   4    0.407950    0.295915    0.749869   -21.00000    0.13530    0.31454 =
         0.11873    0.09678   -0.05836   -0.08582
AFIX  23
H1'A  2    0.408471    0.257047    0.711880   -21.00000   -1.20000
H1'B  2    0.439718    0.301124    0.803679   -21.00000   -1.20000
AFIX   0
C23'  1    0.404266    0.345929    0.636946   -21.00000    0.13530    0.31454 =
         0.11873    0.09678   -0.05836   -0.08582
AFIX   3
H23D  2    0.386366    0.321859    0.560806   -21.00000   -1.50000
H23E  2    0.439966    0.359259    0.617326   -21.00000   -1.50000
H23F  2    0.382626    0.383119    0.652116   -21.00000   -1.50000
AFIX   0
C24'  1    0.362440    0.298102    0.836479   -21.00000    0.11686    0.36512 =
         0.11113   -0.01003    0.04867   -0.09442
AFIX   3
H24D  2    0.329710    0.278562    0.790468   -21.00000   -1.50000
H24E  2    0.355130    0.342292    0.855718   -21.00000   -1.50000
H24F  2    0.373610    0.275772    0.920828   -21.00000   -1.50000
AFIX   0
HKLF 4




REM  exp_8657 in C2/m
REM R1 =  0.0995 for    4014 Fo > 4sig(Fo)  and  0.1085 for all    4776 data
REM    324 parameters refined using     13 restraints

END

WGHT      0.1943     58.8452

REM Instructions for potential hydrogen bonds
EQIV $1 x, y, z+
HTAB C24' O1_$1
HTAB C24' O7_$1

REM Highest difference peak  1.292,  deepest hole -2.929,  1-sigma level  0.247
Q1    1   0.3604  0.2412  0.7157  11.00000  0.05    1.29
Q2    1   0.4761  0.2339  0.7978  11.00000  0.05    1.28
Q3    1   0.3349  0.2701  0.1880  11.00000  0.05    1.22
;
_shelx_res_checksum              91903
_shelx_hkl_file
;
   0   0   1 1273197   16947
   0   0  -1 1393139   13129
   0   0  -2 6584886  164102
   0   0   2 7617448  194773
   0   0   3  371062   75101
   0   0   4   43262   21891
   0   0   5 2436472  208140
   0   0  -6 2673009  105322
   0   0   6 2801053  285908
   0   0  -7 3148575  125793
   0   0  -8 7045085  249466
   0   0  -9   18905   14559
   0   0 -10  185057   39955
   0   0 -11  117069   28226
   0   2   035737739   83755
   0   2   1 2405881   37298
   0   2  -1 2183386   41754
   0   2  -216800907  182639
   0   2   217867227  283639
   0   2  -3    7384    7033
   0   2   3    8473   21905
   0  -2   3    7445    8433
   0   2   4  730574   73649
   0  -2   4  759342   55752
   0  -2   5  229336   44414
   0   2   5  279234   69940
   0   2   6 1624068   99778
   0   2  -6 1572255   82616
   0  -2   6 1522596  180349
   0   2  -6 1585587   80043
   0  -2   7 1992275  253835
   0   2  -7 2392882  122717
   0   2  -7 2180794  114574
   0   2  -7 2107062  101860
   0   2  -8 1740680  113616
   0   2  -8 1594040  118428
   0  -2  -8 1627180  112839
   0  -2  -9  488190   59551
   0   2  -9  550800   61161
   0   2 -10  186706   39073
   0  -2 -10  231554   45717
   0  -2 -11  352610   46633
   0   2 -11  298658   39711
   0   4   0  725237   44078
   0   4  -1  263839   17145
   0   4   1  226749   10413
   0   4  -213642720  239252
   0   4  -3  105016   36015
   0   4   3   78891   27389
   0   4  -4  160145   41001
   0   4   4  124245   33967
   0  -4   4  174732   50163
   0  -4   5   12797   22221
   0   4  -6 2845127  125951
   0   4  -6 2727196   91248
   0   4   6 2736822  145008
   0  -4   6 2654265  244036
   0   4  -6 2994520  133740
   0   4  -6 2721200  120794
   0   4  -7 1404352  100946
   0  -4   7 1280306  219212
   0   4  -7 1417620   96026
   0   4  -7 1578108  106006
   0  -4  -8  593643   69026
   0   4  -8  598699   64181
   0   4  -8  618670   72100
   0  -4  -9  503158   65752
   0   4  -9  575348   64126
   0  -4 -10  137111   33920
   0  -4 -11  121325   24663
   0   6   0 3410988   74589
   0   6   1 1379881   48751
   0   6  -1 1456426   78650
   0   6   2 9000248   97280
   0   6  -2 8978705  200185
   0   6  -3 3452664  141965
   0   6  -4 9350242  283333
   0  -6   4 9034875  316418
   0   6  -5     215    8022
   0   6   5     294   10457
   0   6  -5   12878   10003
   0  -6   6 1549255  167371
   0   6  -6 1770465   91654
   0   6  -6 1768013   69963
   0   6  -6 1799748   94774
   0   6  -7  105789   21869
   0   6  -7   77772   28864
   0   6  -7   81106   25315
   0  -6   7   92177   63426
   0  -6  -8     509   13323
   0   6  -8     427   14026
   0   6  -9 1297611  129126
   0  -6  -9 1089667   97771
   0  -6 -10  937065   83336
   0  -6 -11     291   10040
   0   8   0    5684   16967
   0   8   1   26800   21713
   0   8  -1   42473   36488
   0   8  -2 3954987  153820
   0   8  -3 1171724   87229
   0  -8   4 5710953  263555
   0   8  -4 5910397  230377
   0   8  -4 5535231  146458
   0   8   5  287666   39668
   0  -8   5  185579   52290
   0   8  -5  271697   34210
   0   8  -5  315449   38307
   0   8  -5  294729   29016
   0   8  -6  558135   62592
   0   8  -6  506622   43697
   0  -8   6  458022  104185
   0   8  -6  530012   58489
   0   8  -7  416329   31781
   0   8  -7  396272   41847
   0  -8  -7  364444   42142
   0   8  -7  428101   47268
   0  -8   7  216284   60554
   0   8  -8  165209   49404
   0  -8  -8  176934   44946
   0  -8  -9  628259   66449
   0   8  -9  713631   91068
   0  -8 -10  825099   76272
   0  -8 -11  324629   38923
   0  10   016935320  248983
   0  10  -1  131935   41667
   0  10  -2   58072   24294
   0  10  -3 4047622  117135
   0  10   3 4349771  121505
   0  10  -3 4068502  188676
   0 -10   4  338903   73261
   0  10  -4  283814   29412
   0  10  -4  296641   35540
   0  10  -4  311272   38737
   0  10  -4  322462   60056
   0  10  -5  113196   28746
   0  10  -5  113912   29658
   0  10  -5  125814   24496
   0  10  -6    7575    7207
   0  10  -6    5679   13489
   0  10  -6    1260   11652
   0 -10   6    1260   34194
   0  10  -7   70733   25587
   0  10  -7   46187   15591
   0  10  -7   46102   13256
   0 -10  -7   34245   13316
   0 -10  -8  266223   44290
   0  10  -8  326903   57646
   0  10  -9      62   24481
   0 -10  -9      67   13889
   0 -10 -10    5214    9323
   0  10 -10    3095    8856
   0  12   0    9122   17997
   0  12   0    8212   14610
   0  12  -1   94982   39205
   0  12  -1  136493   36953
   0  12  -1  113486   29876
   0  12   1  153869   41999
   0  12   1  115484   30489
   0  12   1  102460   28509
   0  12  -2     436   13356
   0  12   2      82    5186
   0  12   2    2716    4308
   0  12  -2    6815    7880
   0  12   2    5550    6943
   0  12   3 2561280   98552
   0  12  -3 2753152  106273
   0  12   3 2530088   90806
   0  12   3 2871840  106583
   0  12  -3 2541751  108962
   0  12  -3 2704722  165707
   0  12  -4  329827   60090
   0 -12   4  286752  102620
   0  12  -4  350644   48390
   0  12   4  321494   50902
   0  12  -4  281932   52544
   0  12  -5  186949   38941
   0 -12   5  171184   65405
   0  12   5  153121   27761
   0  12  -5  148812   25598
   0  12  -5  141017   30513
   0  12   6    2287   12847
   0  12  -6    2431   10677
   0 -12  -6   22395   10109
   0  12  -6    2431   13069
   0 -12   6    2431    7832
   0  12  -6    5728    8105
   0  12  -7   12491   10783
   0  12  -7   17400   21404
   0 -12  -7     583    8137
   0  12  -8   72070   34970
   0 -12  -8   54235   21666
   0  12  -9    1019   22277
   0 -12  -9   28110   16359
   0 -12 -10   42508   14952
   0  12 -10   84209   22449
   0  14   0  409593   47488
   0  14   0  385522   47125
   0  14   0  434537   58194
   0  14   1  242604   38152
   0  14   1  233038   30114
   0  14  -1  229880   30561
   0  14   1  240243   29960
   0  14   2   33068   13514
   0  14   2   54214   23939
   0  14   2   37406   15909
   0  14  -2   39627   15799
   0  14  -3  165234   29573
   0 -14   3   85348   41011
   0  14   3  194508   27823
   0  14  -3  190709   27004
   0  14   3  162297   24454
   0  14   3  132375   29796
   0  14   4 1568744  114861
   0  14  -4 1665252  117830
   0 -14   4 1631476  210709
   0  14   4 1666170   93952
   0  14  -4 1768829   95358
   0 -14   5   39084   35592
   0  14  -5   41784   25688
   0  14  -5   53565   21309
   0  14   5   33469   17283
   0  14   6   31366   20888
   0  14  -6   25024   16683
   0  14  -6   29435   22939
   0  14  -7   86499   22584
   0  14   7   57222   23088
   0  14  -7   91478   41533
   0  14  -8  263134   60486
   0  14  -9  171000   32924
   0  16   0 2516517  115788
   0  16   0 2508916  107103
   0  16   0 2545413  100769
   0  16  -1  302808   41939
   0  16   1  325427   41271
   0  16   1  262177   37073
   0  16   1  350772   49243
   0  16  -2  154380   27997
   0  16   2  132139   29758
   0  16   2  149487   25250
   0  16   3 1279285   74314
   0 -16   3 1015961  143556
   0  16  -3 1112618   82602
   0  16   3 1194475   86147
   0  16  -3 1343659   76413
   0 -16   4  960654  167225
   0  16   4  938601   82632
   0  16   4  895308   65514
   0  16  -4 1127355   76770
   0  16  -4  991373   91251
   0  16  -5  222125   30890
   0  16   5  173997   30864
   0  16   5  174513   22362
   0  16  -5  172219   33604
   0  16  -6   27093   23363
   0  16   6   13600   16842
   0  16  -6   19753   15973
   0  16  -7  332301   75801
   0  16  -7  323956   40950
   0  16   7  309656   43556
   0  16  -8  474848   55254
   0  16  -9   13253   11066
   0  18   010320166  257017
   0  18   1   97533   27871
   0  18   1   71033   25614
   0  18  -1   56922   23340
   0  18  -2  929512   72316
   0  18   2  815328   76203
   0  18   2  905967   71758
   0  18  -2  932605   81328
   0  18   3  163960   36265
   0  18   3  186644   33611
   0  18  -3  199623   36762
   0  18   4  112204   30895
   0  18  -4  116110   28773
   0  18   4  128358   26149
   0  18  -4  103748   39856
   0  18   5   32537   14845
   0  18  -5   31181   15379
   0  18  -5   40680   23473
   0  18  -5   59700   20468
   0  18  -6   70511   20234
   0  18   6   47336   18170
   0  18  -6   53557   20533
   0  18  -6   35077   22660
   0  18  -7 1072032   79530
   0  18  -7  897237   57456
   0  18  -8  144647   27168
   0  20   0 6967441  205637
   0  20  -1  215777   29477
   0  20  -1  221123   33010
   0  20   1  223926   30821
   0  20  -2  778304   62533
   0  20   2  733250   60895
   0  20   3  453469   48206
   0  20   3  480073   44418
   0  20  -3  512170   49200
   0  20  -4   24944   11679
   0  20   4   17714    8222
   0  20  -5  195826   29831
   0  20   5  180852   28747
   0  20  -6  614093   47144
   0  20  -7  212043   24472
   0  22   0   74062   21910
   0  22   1   12826    7402
   0  22  -1   16171   11024
   0  22   1   16180   10630
   0  22   2 1465035   79957
   0  22  -2 1471486   82254
   0  22  -3  359974   40166
   0  22  -4  426807   41525
   0  22  -5  242017   29111
   0  24   0  197151   25236
   0  24  -1    1485    6189
   0  24  -2 1237427   63834
   0  24  -3   50886   12419
   1  -1 -11     128   12652
   1   1 -11     139   15412
   1  -1 -10   86105   23814
   1   1 -10   66286   21762
   1  -1  -9 1793007  119439
   1   1  -9 1813739  118554
   1   1  -8  686610   77546
   1  -1  -8  592167   73909
   1  -1  -7  266158   41086
   1   1  -7  285166   47601
   1   1  -7  318557   46428
  -1   1   6   17798   11100
   1   1  -6    5207    7019
  -1  -1   6   10598    8865
  -1  -1   6    5207   29428
  -1   1   5   24799   17710
  -1  -1   5    4865   15628
   1   1  -4    1466   28741
  -1   1   4    1165   29633
  -1  -1   4     997   33370
  -1  -1   3 1812402   91654
   1   1  -3 1700376   80653
   1  -1  -3 1632821   73465
  -1   1   3 1604182   86007
   1  -1  -2 4688988  103467
   1   1  -2 5023680  118869
  -1   1   2 4868986  111728
   1   1  -1  843829   14655
   1  -1  -1  873963   10045
   1  -1   0 2325868   29339
   1   1   0 2155312   23608
   1  -1   127375958  165274
   1   1   128986661  260749
   1  -1   2 2141595   98665
   1   1   2 2033333  125133
   1   1   3  437714   94330
   1  -1   3  433931   75578
   1   1   4   29153   26618
   1  -1   4   53096   27506
   1  -1   5   60869   48504
   1   1   5   59525   61046
   1  -1   6   21734   57932
  -1   1  -6   85399   22355
  -1  -1  -6   65002   18110
  -1  -1  -7  200069   41703
  -1   1  -7  153872   40883
  -1   1  -7  245798   45391
  -1   1  -8 1105195   99074
  -1  -1  -8 1112936  101293
  -1   1  -9 1381521  107396
  -1  -1  -9 1359822  107933
  -1   1 -10   69435   24942
  -1  -1 -10   36589   18820
  -1  -1 -11   26326   13779
  -1   1 -11   22323   12638
   1  -3 -11   23597   14019
   1  -3 -10  416796   55122
   1   3 -10  456094   54233
   1   3  -9 1008367   86596
   1  -3  -9  979993   89562
   1   3  -8  311251   50204
   1   3  -8  395862   62532
   1   3  -8  427464   63504
   1   3  -7    5132    7667
   1   3  -7    5965   10334
  -1  -3   7    9417   28450
   1   3  -7    4708   10546
  -1  -3   6  237046   49915
   1   3  -6  218167   23865
   1   3  -6  252783   25468
  -1   3   6  263039   30022
  -1  -3   5   60858   30195
   1   3  -4  150344   26645
  -1  -3   4  143733   29958
  -1   3   4   74415   24589
   1   3  -3 1708049   95946
  -1   3   3 1958624  131009
  -1   3   2 2183664   54254
   1   3  -2 2388124   82625
   1   3  -1   92986    4442
  -1   3   0 1156232    7823
   1   3   0 1013806    9759
  -1   3  -1    2248   18734
  -1   3  -2 1364470   91224
   1   3   2 1394798   96059
   1   3   3  576854   85455
  -1   3  -3  612651   66260
   1  -3   3  550187   72076
   1  -3   4  148114   41243
   1   3   4  204822   52506
   1  -3   5  117256   46295
   1   3   5  114130   43721
  -1   3  -6    2372   12036
   1  -3   6    2372   33988
  -1   3  -6    2372    4616
  -1   3  -6    2372    9080
  -1   3  -7  151164   28081
  -1   3  -7  179873   32946
  -1   3  -7  161365   36247
   1  -3   7  290504  105071
  -1  -3  -7  160951   32738
  -1   3  -8  648329   71500
  -1   3  -8  614185   81762
  -1  -3  -8  578839   71142
  -1  -3  -9 1442680  112430
  -1   3  -9 1631092  113526
  -1  -3 -10  126450   34599
  -1   3 -10   61320   22053
  -1  -3 -11  235650   37444
   1  -5 -11    2744   11419
   1  -5 -10  378350   56432
   1  -5  -9  126981   36058
   1   5  -9  180135   45737
   1   5  -8   72545   25077
  -1  -5   8  113189   64952
   1  -5  -8   42240   18620
   1   5  -8   62560   19221
   1   5  -7  398609   49638
   1   5  -7  444178   52693
  -1  -5   7  279526   91606
   1   5  -7  444488   54658
  -1   5   6  842457  103791
   1   5  -6  990880   68741
  -1   5   6  909363   77791
   1   5  -6  880316   64882
  -1  -5   6  775881  116743
   1   5  -6  869561   48645
   1   5  -5  814666  107289
  -1  -5   5  847454  124873
   1   5  -5  826336   69188
   1   5  -4 7247115  247454
   1   5  -3  119357   34929
  -1   5   2   94417   16693
   1   5  -2  123985   48751
   1   5  -1   15317    6540
  -1   5   0   53503   22320
   1   5   0  124639   27272
  -1   5  -1  306950   46912
   1   5   1  372194   35216
  -1   5  -2 1850744   83476
   1  -5   3 3375422  130258
  -1   5  -3 3389540  112526
   1  -5   4  342610   44714
   1   5   4  340231   29624
  -1   5  -5  416120   48199
  -1   5  -5  391436   47987
   1  -5   5  369952   90645
   1  -5   6  199984   77504
  -1   5  -6  208143   36790
  -1   5  -6  219886   29801
  -1   5  -6  200702   39852
  -1   5  -6  251197   41948
  -1  -5  -7   56696   21509
  -1   5  -7   63663   20037
  -1   5  -7   73774   26105
  -1   5  -7   78964   23877
  -1  -5  -8  191288   36371
   1  -5   8  206383  108778
  -1   5  -8  181673   31169
  -1   5  -8  158146   39166
  -1   5  -9  522215   90063
  -1  -5  -9  938698   91070
  -1  -5 -10    1602   12716
  -1   5 -10   61151   15055
  -1  -5 -11  203283   31262
   1  -7 -11      50   11401
   1   7 -11      72    8757
   1  -7 -10  136511   31116
   1   7  -9   60950   30086
   1  -7  -9   50288   22150
   1   7  -8 1121728   98815
   1   7  -8 1076285   87983
  -1  -7   8 1088025  207086
   1  -7  -8  927561   88195
   1   7  -7  193232   25078
  -1   7   7  324018   68713
   1   7  -7  203023   37322
  -1  -7   7  157687   62341
   1   7  -7  231547   37900
   1   7  -6 4403273  153334
   1   7  -6 4473360  157973
   1   7  -6 4447230  117556
  -1   7   6 4311088  242607
  -1   7   6 4469632  177202
  -1  -7   6 3965764  269586
  -1   7   5  208468   47369
   1   7  -5  108075   19991
   1   7  -5  124706   22911
   1   7  -5  114473   16231
  -1   7   5  134097   26571
   1   7  -5  153874   40410
  -1  -7   5  108713   34377
   1   7  -4 4209406  200616
   1   7  -3  464376   50921
   1   7  -2   32397   18378
   1   7  -1 3362571  129068
  -1   7   1 2447028   59532
   1   7   0  341228   28831
  -1   7   0  262573   24770
   1   7   1  142482    9714
  -1   7  -1  153758   10967
   1   7   2 1611202   52833
  -1   7  -2 1610925   92281
   1  -7   3 5963180  238967
  -1   7  -3 5517653  196167
   1  -7   4  140325   20906
  -1   7  -5 3521210  105977
  -1   7  -5 3545829  133366
   1  -7   5 3597631  250165
  -1   7  -5 3619092  139960
  -1   7  -6    5362    6885
   1  -7   6   18281   30170
  -1   7  -6    3161   15418
  -1   7  -6    5899   10574
  -1   7  -7 1633617  127602
  -1  -7  -7 1555227  119325
  -1   7  -7 1374083  106711
  -1   7  -7 1419676   79092
   1  -7   7 1416810  249998
  -1  -7  -8   59589   26401
   1  -7   8   65741   74342
  -1   7  -8   42139   21433
  -1   7  -9   81876   40773
  -1  -7  -9  212295   46756
  -1  -7 -10   39329   16764
  -1   7 -10   54515   20184
  -1  -7 -11   13761   11706
   1  -9 -11   91438   20679
   1  -9 -10  900750   75705
   1   9  -9     755   15079
   1  -9  -9     788   14187
   1   9  -8 4427071  216777
   1  -9  -8 4329230  195616
   1   9  -7  152593   32037
  -1  -9   7   72095   44929
   1   9  -7  168305   24829
   1   9  -7  136269   32927
   1   9  -6 7085780  169781
  -1  -9   6 7278321  417830
   1   9  -6 7731978  229976
   1   9  -6 8075449  242396
  -1  -9   5    8573   24532
   1   9  -5   29108   26914
   1   9  -5    2650   11763
  -1   9   5     218    8916
   1   9  -5       7   10118
   1   9  -5    2245    7064
   1   9  -4 6796507  141041
  -1   9   4 6599384  155097
   1   9  -4 6626658  176317
   1   9  -4 6921426  273727
   1   9  -4 6281795  164865
   1   9  -3 4964631  207418
   1   9  -2  227565   47713
   1   9  -110610282  231253
  -1   9   0 4860596  102721
   1   9   0 5066644  110979
   1   9   1  652921   40280
  -1   9  -1  757507   59165
  -1   9  -2 2754587  147689
  -1   9  -3 1535389  117912
   1  -9   3 1637667  145422
  -1   9  -4  348987   40286
  -1   9  -4  361886   44267
   1  -9   4  366102   76217
  -1   9  -4  393656   35728
  -1   9  -5 6325123  148984
   1  -9   5 6295784  352728
  -1   9  -5 6177685  183746
  -1   9  -5 6397381  198432
   1  -9   6  251926   75391
  -1   9  -6  287752   43504
  -1   9  -6  255730   31234
  -1   9  -6  262777   45106
  -1  -9  -6  271096   43475
   1  -9   7 3419869  361584
  -1   9  -7 3641134  118398
  -1  -9  -7 3695184  165940
  -1   9  -7 4018264  194208
  -1   9  -8   15542   22653
  -1  -9  -8    8174   12157
  -1   9  -9  247346   59592
  -1  -9  -9  366557   50022
  -1  -9 -10   21359   11783
  -1   9 -10   11082   10328
   1 -11 -10  257050   35539
   1  11  -9  849080  100154
   1 -11  -9  702788   67045
   1 -11  -8 1015998   87626
   1  11  -8 1029629   64125
   1  11  -8 1079266  109366
   1  11  -7  168274   35786
   1  11  -7  236928   48073
   1 -11  -7  210306   40143
   1  11  -7  200394   29312
   1  11  -6 3088137  150142
   1  11  -6 2979609  114831
   1  11  -6 3205859  162026
  -1 -11   6 2892890  279450
   1  11  -5  228417   44320
  -1 -11   5  212632   76877
   1  11  -5  215323   40512
   1  11  -5  210086   32949
  -1  11   4 1660348   78398
   1  11  -4 1454544   83751
  -1  11   4 1417573   70193
   1  11  -4 1689036  138261
   1  11  -4 1610414   70123
   1  11  -4 1530384   81021
  -1  11   3 1255461   76518
   1  11  -3 1119390   72529
   1  11  -3 1184179  120160
   1  11  -3 1165244   78449
  -1  11   2 2338632   89540
   1  11  -2 2392814  135180
   1  11  -1 4135105  152804
   1  11   0  446689   44617
  -1  11  -1 8176098  209367
  -1  11  -2 2073460  134767
   1  11   2 2217076   92920
  -1  11  -2 2144368   89877
   1  11   3 3872282  124218
   1 -11   3 4119629  251142
  -1  11  -3 3798639  111222
   1  11   3 3831002  125380
  -1  11  -3 3619556  133927
  -1  11  -4   29984   12842
  -1  11  -4   17568    9444
  -1  11  -4   13791    7124
   1 -11   4   39341   27799
  -1  11  -5 2516724  142722
   1 -11   5 2345267  249803
  -1  11  -5 2246080  122860
  -1 -11  -5 2083186  117958
  -1  11  -5 2430998  102983
  -1  11  -6   62281   26835
   1 -11   6   28599   34939
  -1  11  -6   41681   16260
  -1 -11  -6   72127   23434
  -1  11  -7 2413992  168068
  -1  11  -7 2328762  103856
  -1 -11  -7 2253429  135091
  -1  11  -8  407641   74853
  -1 -11  -8  291547   47548
  -1  11  -9  966972  126311
  -1 -11  -9 1338743   98013
  -1 -11 -10      59   14372
  -1  11 -10      38   15112
   1  13 -10  400665   42825
   1  13  -9  317536   59450
   1 -13  -9  430099   44479
   1  13  -8 1357092   72814
   1  13  -8 1523266  134830
   1  13  -7  446767   42888
   1 -13  -7  369877   49021
  -1 -13   6  881062  168298
   1  13  -6  842618   66332
   1  13  -6  794700   80232
   1  13  -6  901244   94522
   1  13  -5  804603   66356
   1  13  -5  866413   58088
  -1  13   5  751380   53137
   1  13  -5  849630   75466
  -1 -13   5  785612  130310
   1  13  -4  787204   75265
  -1 -13   4  942131  161694
   1  13  -4  849869   85908
  -1  13   4  795824   68604
   1  13  -4  932463   71018
  -1  13   3  226588   26832
   1  13  -3  285929   52954
   1  13  -3  201009   27902
   1  13  -3  170788   25271
  -1  13   3  216954   28493
   1  13  -2 3046015  116746
  -1  13   2 3003264  140624
   1  13  -2 2971205  169763
  -1  13   2 3141249  117764
   1  13  -2 2738860  109172
  -1  13   2 2902867  107353
  -1  13   1  800615   64823
  -1  13   1  940168   88611
  -1  13   1  913188   69937
   1  13  -1  917006   69596
  -1  13   0  290195   34923
   1  13   0  263685   26286
   1  13   0  236713   25380
   1  13   0  335228   37457
  -1  13   0  265769   26563
  -1  13   0  289964   27433
   1  13   1 4490190  159737
  -1  13  -1 4400910  130646
   1  13   1 4492063  136034
   1  13   1 4426088  130777
   1  13   1 4249416  128343
  -1  13  -1 4542150  151337
   1  13   2  483780   46011
  -1  13  -2  404196   35725
   1 -13   2  517426   75925
   1  13   2  512949   38713
  -1  13  -2  392877   33564
   1  13   2  439095   34735
   1  13   2  450463   35980
  -1  13  -3 4585919  126038
   1 -13   3 4273219  265633
   1  13   3 4327608  132612
  -1  13  -3 4046380  145693
   1  13   3 4120528  121590
   1  13   3 4306628  158266
  -1  13  -4  545436   73423
  -1  13  -4  585211   57558
   1 -13   4  518208  128699
   1  13   4  493704   57406
   1 -13   5 1380028  187010
  -1  13  -5 1596605   81324
  -1  13  -5 1486407  109421
   1  13   5 1414023   79176
  -1  13  -6  151864   32880
   1  13   6  138834   31231
  -1  13  -6  162875   48932
   1 -13   6   98258   78783
  -1  13  -7 1616731  146035
   1  13   7 1351967   81164
  -1  13  -7 1540455   84990
  -1 -13  -7 1543701  103193
  -1 -13  -8   59397   23141
  -1  13  -8  111076   48945
  -1  13  -9 1515207  106623
  -1 -13  -9  997320   75798
  -1  13 -10     196    8697
   1  15  -9   87111   25087
   1  15  -8  419758   73596
   1  15  -8  401956   39034
  -1  15   7  846175   74992
   1  15  -7 1015082  110530
   1  15  -7  873681   62157
   1  15  -6  945429   67135
   1  15  -6 1082329  103425
  -1  15   6  899187   82245
   1  15  -5  246995   45922
   1  15  -5  225921   33324
  -1  15   5  242173   43586
  -1 -15   5  201145   75478
  -1  15   4 3859591  168892
  -1  15   4 4058937  132220
   1  15  -4 4268021  174200
   1  15  -4 4613262  144720
  -1 -15   4 4055058  309297
  -1  15   3   42717   27943
   1  15  -3   60583   27222
   1  15  -3   58841   26689
   1  15  -3   58327   23259
  -1  15   3   62800   24182
  -1 -15   3   64547   53509
  -1  15   3   71777   27352
  -1  15   2  439415   45686
  -1  15   2  472255   50460
  -1  15   2  478332   59663
   1  15  -2  517021   53773
  -1  15   1  760321   65095
   1  15  -1  859521   72089
  -1  15   1  723188   76883
  -1  15   1  770914   66876
  -1  15   0  137999   16609
  -1  15   0  128466   14957
   1  15   0  168372   20002
  -1  15   0  106596   16632
   1  15   0  122162   14767
   1  15   0  117898   16516
  -1  15  -1 1134680   76273
   1  15   1 1100014   72384
  -1  15  -1 1157616   68595
   1  15   1 1101014   72732
   1  15   1 1201111   87314
   1 -15   1 1119899  132807
   1 -15   2  929040  119718
  -1  15  -2  991828   65923
   1  15   2  969265   72976
   1  15   2  985818   63184
   1  15   3 1331867   76991
   1 -15   3 1309786  163745
   1  15   3 1089180   66866
  -1  15  -3 1446086   77318
  -1  15  -3 1213956   87565
   1  15   3 1304790   89169
   1  15   4    4656   12477
  -1  15  -4    7562   12626
   1 -15   4   10313   34427
  -1  15  -4    5081   12313
   1  15   4   12764   13683
   1  15   5  147084   38124
  -1  15  -5  152935   44110
   1  15   5  184562   33526
  -1  15  -5  180596   34497
   1  15   6  250852   33998
  -1  15  -6  322011   41838
   1  15   6  208871   39048
  -1  15  -6  227582   54750
  -1  15  -7  377855   44279
  -1  15  -7  483997   91048
  -1  15  -8   13215   11594
  -1  15  -9 2009985  107982
   1  17  -8 1181185   85650
   1  17  -7      62   14319
   1  17  -7   16787   11003
  -1  17   7      40   11247
   1  17  -6 1916672  154151
   1  17  -6 1916589  100320
  -1  17   6 1683739  109055
   1  17  -5  669118   59574
  -1  17   5  625968   68140
   1  17  -5  619056   82438
   1  17  -4  709531   67075
   1  17  -4  632209   81464
  -1  17   4  619644   74313
  -1  17   3 1090493   70940
   1  17  -3 1213978   78608
  -1  17   3 1061491   88054
  -1  17   2  760541   59914
  -1 -17   2  838573  126899
   1  17  -2  785205   68251
  -1  17   2  771888   72881
  -1  17   1 1577792   96977
  -1  17   1 1792903   91900
   1  17  -1 1738669   96880
  -1  17   1 1704696   89255
  -1  17   0 4240249  164395
  -1  17   0 4322560  145220
   1  17   0 4308099  156706
   1  17   1 4750768  166443
  -1  17  -1 4888362  161602
   1  17   1 4810537  155223
  -1  17  -2  643857   67977
   1  17   2  503425   62372
   1  17   2  623696   62026
  -1  17  -2  597390   59277
  -1  17  -3 1288938   80710
   1  17   3 1265968   79735
   1  17   3 1137690   86450
   1  17   4  457162   51573
  -1  17  -4  458736   53870
  -1  17  -4  434310   74137
  -1  17  -4  462599   57712
   1  17   4  369249   54075
  -1  17  -5 2186022  158463
  -1  17  -5 2220567  107593
   1  17   5 1923782  109381
   1  17   5 2036508   95030
  -1  17  -5 2316335  125761
  -1  17  -6    1603   10070
  -1  17  -6    1341    9998
   1  17   6   15210   11665
  -1  17  -7 2543746  130213
  -1  17  -7 2208332   92702
  -1  17  -8   46985   19385
  -1  19   7   60133   13555
   1  19  -7   56459   14555
   1  19  -7   87819   20650
   1  19  -6 1323498   75685
  -1  19   6 1190200   77056
   1  19  -5  757866   97857
  -1  19   5  696683   65431
   1  19  -5  829274   65364
  -1  19   4  367844   49040
   1  19  -4  471787   49997
  -1  19   3 1160395   88401
  -1  19   3 1251056   77197
   1  19  -3 1319146   86005
  -1  19   2  398144   45089
   1  19  -2  434478   47679
  -1  19   2  374492   48778
  -1  19   1 2413830  115190
   1  19  -1 2383692  120084
  -1  19   1 2252171  117406
   1  19   0     224   11548
  -1  19   0    5736   12969
   1  19   1  758239   65103
  -1  19  -1  821338   71342
  -1  19  -1  792924   62619
   1  19   2  781523   72477
   1  19   2  804218   68511
  -1  19  -2  852354   69471
   1  19   3  559320   59438
  -1  19  -3  736518   64989
   1  19   3  643770   58222
   1  19   4  264475   34760
   1  19   4  212611   35477
  -1  19  -4  270825   38959
  -1  19  -5 1232960   80446
   1  19   5 1166592   78981
  -1  19  -6   46726   15690
  -1  19  -6   60085   17166
   1  19   6   61106   15649
  -1  19  -7  760168   65019
  -1  19  -7  655922   47694
   1  21  -6  265065   29426
   1  21  -5  568692   47331
   1  21  -4  154223   28441
   1  21  -3   72534   18060
  -1  21   2  674633   59577
   1  21  -2  744315   64974
   1  21  -1  398962   47559
  -1  21   1  354005   40386
  -1  21   1  394773   48586
  -1  21   0  574998   49160
  -1  21   0  614954   58451
   1  21   0  558306   56842
  -1  21  -1  140378   23609
   1  21   1  189361   29506
   1  21   2   65985   19369
  -1  21  -2   81833   22557
   1  21   3  644622   52460
  -1  21  -3  641535   54297
  -1  21  -4  125967   26949
  -1  21  -5  503789   44561
  -1  21  -6   76462   16551
   1  23  -5  333603   31225
   1  23  -4    7107    7008
   1  23  -3   14613    8564
   1  23  -2  781257   55910
   1  23  -1   26791   14805
  -1  23   0  511268   39547
   1  23   0  554465   42254
  -1  23  -1  321624   36897
   1  23   1  354581   41951
   1  23   1  316035   33753
   1  23   2   99871   20264
  -1  23  -2   97517   20050
  -1  23  -3  202287   29662
  -1  23  -4  102622   19070
   2   0 -11  104480   26028
   2   0 -10  576297   68970
   2   0  -9   80230   26634
   2   0  -8  196530   37587
  -2   0   7 4220812  172603
   2   0  -7 4028070  132361
  -2   0   6 1049119   78520
  -2   0   6  902685  134700
   2   0  -6  970494   59546
  -2   0   5 2315076  157049
  -2   0   4 1325404   89747
   2   0  -4 1414516   84846
   2   0  -3  340394   33353
   2   0  -2 5761619  162972
   2   0  -199999002  213423
   2   0   021156076  104491
   2   0   133084266  282236
   2   0   2  201004   57412
   2   0   3 2025100  178199
   2   0   4  977968  110157
   2   0   5  730620  126856
  -2   0  -6 4030939  165705
   2   0   6 4015874  419163
  -2   0  -7 3063983  140258
  -2   0  -8 9862911  279390
  -2   0  -9 1062619   85024
  -2   0 -10    6070   10101
  -2   0 -11  292608   42344
   2   2 -11  180578   30470
   2  -2 -11  211253   35701
   2  -2 -10  445897   61181
   2   2 -10  456653   59504
   2  -2  -9  687193   82414
   2   2  -9  660887   78483
   2   2  -8  451481   58294
   2   2  -8  382630   50469
   2   2  -8  401768   60199
  -2   2   7 5864974  225128
   2   2  -7 5590388  177680
   2   2  -7 5792860  184095
  -2  -2   7 5343476  406181
  -2  -2   6   21347   10719
   2   2  -6   30187   11021
   2   2  -6   36091   13115
  -2  -2   6   52522   31892
  -2   2   6   25351   15521
  -2   2   5 2945241  234617
   2   2  -5 2996966  164777
  -2  -2   5 2900304  182306
   2   2  -4   17060   18425
  -2   2   4   15673   18881
   2  -2  -3 5326280  135852
   2   2  -3 5518172  161567
  -2   2   3 5149023  157111
  -2   2   2  276557   21612
   2  -2  -2  256536   21527
   2   2  -2  285938   32123
   2  -2  -1 2550655   69858
   2   2  -1 2508938  130190
   2  -2   0 4103089  117145
   2   2   0 3768607   89930
   2   2   1 3133582  247265
   2  -2   1 3464803  261048
   2   2   2   40333   52171
   2  -2   2   68258   45475
   2  -2   3  325893   84661
   2   2   3  375220  118710
   2  -2   4   17510   48073
   2   2   4   45735   73972
   2  -2   5 1244813  175313
   2   2   5 1196787  191253
  -2   2  -6 1939021  109454
  -2   2  -6 1862630  111729
  -2  -2  -6 1387775  100624
  -2   2  -6 1687926   92614
   2   2   6 1855366  235954
   2  -2   6 1681793  247150
  -2  -2  -7   40833   19038
   2  -2   7   93666   72568
  -2   2  -7   32278   22405
  -2   2  -7   45939   20188
  -2   2  -8 1177262  100963
  -2  -2  -8 1235934  106740
  -2   2  -9  391037   55571
  -2  -2  -9  420080   58987
  -2   2 -10  516507   59688
  -2  -2 -10  497227   60216
  -2  -2 -11   93617   23516
  -2   2 -11  141829   27641
   2  -4 -11   58276   19024
   2  -4 -10   21968   21084
   2   4  -9  749334   87760
   2   4  -9  749240   78320
   2  -4  -9  786124   86506
   2   4  -8  515750   60156
   2   4  -8  662844   68418
   2   4  -8  504130   56178
  -2   4   7 1936284  193245
  -2   4   7 1871159  131319
  -2  -4   7 1593666  212946
   2   4  -7 1825954  107096
   2   4  -7 1867113  108485
   2   4  -7 1919997  119940
  -2   4   6    7774   13955
   2   4  -6    2659    8857
  -2   4   6    2873   23405
  -2  -4   6    1469   18719
   2   4  -6    1233    8475
   2   4  -5 3592694  169865
  -2  -4   5 3685960  190405
   2   4  -4 1127820   77602
   2   4  -3 2989312  110609
   2   4  -2  801669   77756
   2   4  -1  705395   38212
   2  -4  -1  726253   26549
   2   4   0   13821    6644
   2  -4   1 3227894   92824
  -2   4  -1 2374331   63673
   2   4   2  143671   45042
   2  -4   2  173201   58047
   2   4   3 5008663  173087
   2  -4   3 5416611  214199
   2  -4   4 2938209  167005
   2   4   4 2969414  139504
   2   4   5 1773289  118600
  -2   4  -5 1791269   73975
   2  -4   5 1728580  152049
  -2   4  -6 3029551  119749
  -2   4  -6 3110616  134142
   2  -4   6 2829430  271489
  -2   4  -6 3226185  125219
  -2  -4  -7  715096   70428
  -2   4  -7  752759   66697
   2  -4   7  542659  149826
  -2   4  -7  759914   77537
   2  -4   8 1306554  273732
  -2   4  -8 1174542   92337
  -2  -4  -8 1184903  100170
  -2   4  -8 1300622  124736
  -2  -4  -9   22909   18374
  -2   4  -9   40525   20153
  -2  -4 -10  703301   72128
  -2   4 -10  725066   68966
  -2  -4 -11   80494   21753
   2  -6 -11  249706   36305
   2   6 -11  303592   34822
   2  -6 -10   14349   13165
   2  -6  -9  607581   76296
   2   6  -9  623771   81992
  -2  -6   8  686852  167214
   2   6  -8  666869   68718
   2   6  -8  672800   72706
   2   6  -7  127368   22530
  -2   6   7  134203   57517
   2   6  -7  114104   30106
   2   6  -7  110951   31539
  -2   6   7   85515   32058
  -2  -6   7  103284   58293
   2   6  -6    8190    9331
  -2  -6   6       4   14671
  -2   6   6     345   11393
   2   6  -6   20234    8989
   2   6  -6    5969    8785
   2   6  -5 2967464  179738
  -2  -6   5 2903838  202432
   2   6  -5 2806665  113257
   2   6  -5 3015193  115246
  -2   6   5 3125108  132375
   2   6  -4 2084416  121519
   2   6  -3  628160   60775
   2   6  -2    8230   15860
   2   6  -1 1122483   62952
   2   6   0 3869290  115078
   2   6   1 1425863   57033
  -2   6  -1 1196898   67346
  -2   6  -2  403940   51556
   2  -6   2  489788   65933
   2  -6   319041136  438278
   2  -6   4  852448   96707
  -2   6  -5 1323538   63944
  -2   6  -5 1261071   79895
   2  -6   5 1150015  149359
  -2   6  -5 1363721   87751
  -2   6  -6  936566   84893
  -2   6  -6  875430   74413
  -2   6  -6  899813   57821
  -2  -6  -6  841072   79071
   2  -6   6  924302  167331
   2  -6   7  171808  102588
  -2  -6  -7  346030   56882
  -2   6  -7  275754   57267
  -2  -6  -8 1423705  103194
   2  -6   8 1082108  242632
  -2   6  -8 1352197  122325
  -2  -6  -9  173404   37553
  -2  -6 -10  978402   82519
  -2   6 -10 1027955   75943
  -2  -6 -11  361999   42440
   2  -8 -11  144376   27586
   2   8 -11  173861   27976
   2  -8 -10  219293   38723
   2   8 -10  191356   45918
   2   8  -9  945596   96045
   2  -8  -9 1022237   88270
   2   8  -8  543691   69507
   2   8  -8  564646   74986
   2   8  -7  437263   51772
  -2  -8   7  415626   96380
   2   8  -7  438662   36812
   2   8  -7  448808   52996
   2   8  -6  382550   41227
   2   8  -6  391792   54233
   2   8  -6  363474   53078
  -2   8   6  406479   63020
  -2   8   6  282592   74877
  -2  -8   6  359231   91800
   2   8  -5  724597   47622
  -2  -8   5  829828  114406
   2   8  -5  732601   94673
  -2   8   5  769890  103091
   2   8  -5  795125   63286
  -2   8   5  766426   68654
   2   8  -5  759272   61153
   2   8  -4   21855   19702
   2   8  -3 4678413  195595
   2   8  -2 1442175  108369
   2   8  -1 1882276   79453
   2   8   0 1010975   54850
   2   8   1 4875098  119757
  -2   8  -1 4539553  146211
   2   8   2     280   12163
  -2   8  -2    2997   15883
   2  -8   2     837   26878
   2  -8   3 3128689  186916
  -2   8  -4  211202   32285
  -2   8  -4  202888   25325
   2  -8   4  205286   58494
  -2   8  -4  207739   33242
  -2   8  -5 1267225   95578
  -2   8  -5 1090079   66281
  -2   8  -5 1093529   82920
   2  -8   5 1081820  165047
  -2  -8  -6 1133323   97533
  -2   8  -6 1034038   68955
  -2   8  -6 1083157   92725
  -2   8  -6 1160303  106304
  -2   8  -7  317892   30529
  -2   8  -7  298853   46077
  -2  -8  -7  336201   42893
   2  -8   7  348489  104606
  -2  -8  -8  517625   74704
  -2   8  -8  521541   94339
  -2  -8  -9  354862   48044
  -2  -8 -10  522494   57777
  -2   8 -10  622947   60266
  -2  -8 -11  124038   22843
   2 -10 -10     764    7439
   2 -10  -9   12240   11202
   2  10  -9     424   21950
   2  10  -8  216966   32450
   2 -10  -8  188085   41771
   2  10  -8  203064   46102
   2  10  -8  215473   51102
   2  10  -7  220853   32851
   2  10  -7  220908   48278
  -2 -10   7  156518   75055
   2  10  -7  211478   43790
  -2 -10   6  104919   42980
   2  10  -6  154563   31931
   2  10  -6  147347   23161
   2  10  -6   99078   24432
   2  10  -5  211514   36640
   2  10  -5  229670   30106
   2  10  -5  271207   66220
   2  10  -5  202979   34323
  -2  10   5  235457   41650
  -2 -10   5  268697   75049
   2  10  -4   54713   16202
  -2  10   4   61721   18029
   2  10  -4   36926   13418
   2  10  -4   59798   13345
  -2  10   4   54758   15967
   2  10  -4   46343   22621
   2  10  -3     442    6774
  -2  10   3    8315   11985
   2  10  -2   98916   16582
   2  10  -1 4384444  162629
   2  10   0 3729470  130368
   2  10   1 1100750   56096
   2 -10   2  242210   61878
  -2  10  -3   21491   10817
  -2  10  -3    5216    8150
   2 -10   4 4721969  287115
  -2  10  -4 4362025  145062
  -2  10  -4 4879267  166246
  -2  10  -4 4520041  122363
  -2  10  -5     401   12623
  -2  10  -5   16409    9827
  -2 -10  -5   20629   10023
  -2  10  -5   20700   10596
  -2 -10  -6    3464    8795
  -2  10  -6   16050   12921
   2 -10   6   11968   31787
  -2  10  -6    2754   11646
  -2 -10  -7   91445   29482
  -2  10  -7   91516   23516
  -2  10  -7  100455   38564
   2 -10   7  190049  130101
  -2  10  -8  198020   49367
  -2 -10  -8  167524   33120
  -2 -10  -9   99424   26504
  -2  10 -10   42473   15131
  -2 -10 -10     720   10209
   2 -12 -10  123410   26196
   2 -12  -9    3861   11744
   2  12  -9   10231   21504
   2  12  -8   62992   27556
   2  12  -8   51053   14210
   2 -12  -8   44170   16953
   2  12  -7  329962   58965
   2  12  -7  246438   46772
   2 -12  -7  308705   49302
   2  12  -7  313047   38105
  -2 -12   6  179863   61500
   2  12  -6  229903   37326
   2  12  -6  165910   33478
   2  12  -6  198120   26736
   2  12  -5  124818   18243
   2  12  -5  137844   24274
   2  12  -5  105479   17900
  -2 -12   5   83710   26608
   2  12  -4  309085   41677
  -2  12   4  328028   40844
   2  12  -4  304579   66596
   2  12  -4  375270   47919
   2  12  -4  300926   35794
   2  12  -3  842670   50025
   2  12  -3  961609   51551
  -2  12   3  932132   50518
  -2  12   3  833977   43124
   2  12  -3  950855   82736
  -2  12   2  172293   30777
   2  12  -2  149755   41751
   2  12  -2  156204   29285
  -2  12   1  615781   40668
   2  12  -1  567440   39277
  -2  12   1  585867   51957
   2  12  -1  563760   53476
   2  12   0  763762   54061
   2  12   0  853700   64931
  -2  12   0  809694   66629
   2  12   0  738700   51265
   2 -12   0  754990   85289
   2  12   1  329385   35854
   2  12   1  317906   33954
   2  12   1  300727   33418
  -2  12  -1  156793   24246
  -2  12  -1  339684   40541
   2 -12   1  324673   60886
   2  12   1  320556   42283
   2  12   2  262849   36748
   2  12   2  314224   48274
   2  12   2  271214   38522
   2 -12   2  212812   67052
  -2  12  -2  240570   35966
   2  12   3  198219   33150
  -2  12  -3  218044   31286
   2  12   3  221989   32728
   2  12   3  198564   39596
   2 -12   3  179077   63319
  -2  12  -3  206820   39104
   2  12   4 1454810   75602
   2  12   4 1474702   84780
  -2  12  -4 1543693  104182
   2 -12   4 1477948  178406
  -2  12  -4 1614050   80293
   2 -12   5   69529   28720
  -2  12  -5   76360   12175
  -2  12  -5   37671   13945
  -2 -12  -6  118031   29703
  -2  12  -6  165147   45679
   2 -12   6  195862  111197
  -2  12  -6  146524   28096
  -2 -12  -7    9488   10189
  -2  12  -7   23095   14748
  -2  12  -7    1440   24029
  -2  12  -8  132055   47569
  -2 -12  -8  185636   34791
   2  12   8  178570   27929
  -2  12  -9   19756   19124
  -2 -12  -9   13973   12430
  -2  12 -10      15    7331
   2  14  -9    2500   23151
  -2  14   8      84   11088
   2  14  -8     119    8116
   2  14  -8     119   16057
   2  14  -7     379   15996
   2  14  -7   14886   13552
   2  14  -6   83758   24683
   2  14  -6   75880   18788
   2  14  -6   75103   28089
   2  14  -5  100244   19784
   2  14  -5  117833   26129
  -2 -14   5  143056   48693
   2  14  -5   93634   25722
   2  14  -4 1733580   93059
   2  14  -4 1937777   90560
  -2 -14   4 1988977  205454
   2  14  -4 1690737  103297
  -2  14   4 1905346   98179
  -2  14   3  283003   42579
   2  14  -3  318444   80831
   2  14  -3  251716   47531
  -2  14   3  320129   50324
   2  14  -3  346997   53043
   2  14  -2   32083   12632
  -2  14   2   19515   12130
  -2  14   2   43183   13191
  -2  14   2   17865   14874
   2  14  -2     636   10327
  -2  14   1  621184   56847
  -2  14   1  637376   47491
   2  14  -1  641926   47740
  -2  14   1  590822   43608
  -2  14   0    8793   11052
  -2  14   0    4374   10047
   2  14   0    6240   12101
   2  14   0    5307   11791
  -2  14   0    4384   16519
  -2  14  -1   37989    9851
  -2  14  -1   70807   17682
  -2  14  -1   55649   14679
   2  14   1   41322   12061
   2  14   1   94090   22526
   2 -14   1   42956   12424
   2  14   1   31712    8868
   2  14   2   41278   21464
  -2  14  -2   44701   16787
   2  14   2   50910   19078
  -2  14  -2   57852   21568
   2 -14   2  108441   51571
   2  14   2   38042   18062
   2  14   3  809438   58657
  -2  14  -3  895738   59647
   2  14   3  839145   61832
   2  14   3  870190   72352
   2 -14   3  759940  124557
  -2  14  -3  783143   72014
   2  14   4 1503500   87802
  -2  14  -4 1491100   83760
   2 -14   4 1428042  198729
   2  14   4 1392277   77892
   2  14   4 1378548   97061
  -2  14  -4 1584130  117645
   2  14   5   32680   14137
  -2  14  -5   42599   10709
  -2  14  -5   44703   16999
   2  14   5   31131    6240
   2  14   6  214918   30490
  -2  14  -6  288279   35582
  -2  14  -6  251325   53698
   2  14   6  249486   35362
  -2  14  -7  140422   30123
  -2  14  -7  128160   53836
   2  14   7  129836   28359
  -2  14  -8  189956   45298
  -2  14  -9      49   14280
   2  16  -9   53111   17300
   2  16  -8   24070    9977
   2  16  -8     354   22849
   2  16  -7 1161828   73697
   2  16  -7 1192499  122619
  -2  16   7 1083317   87533
   2  16  -6    9783   22454
   2  16  -6    8708   15975
  -2  16   6    2594   13841
   2  16  -5     975   10740
   2  16  -5    3554   12599
  -2  16   5    1264   18437
  -2  16   4  506758   61354
  -2 -16   4  346219   87790
   2  16  -4  561533   51377
   2  16  -4  523977   59143
  -2  16   3  612000   51551
   2  16  -3  593756   61559
  -2  16   3  615506   59743
   2  16  -3  690224   65995
  -2  16   3  622189   69396
  -2 -16   3  564376  117081
   2  16  -2   23569   20073
  -2  16   2   16685   17161
  -2  16   2   15791   21811
  -2  16   2   18632   15066
  -2  16   1 1374172   82263
  -2  16   1 1360106   84028
  -2  16   1 1260545   94239
   2  16  -1 1411122   89902
   2  16   0 2863444  115134
  -2  16   0 2880624  109767
  -2  16   0 2796127  123348
   2  16   1  619142   66493
  -2  16  -1  568669   58413
  -2  16  -1  580208   65280
   2  16   1  547395   68565
   2 -16   2   91254   36559
  -2  16  -2  112766   19446
   2  16   2  120974   23242
   2  16   2  123107   20539
   2  16   3 1374172   83411
   2  16   3 1242918   89455
  -2  16  -3 1306735  108504
  -2  16  -3 1332639   80537
   2  16   3 1380966   84482
   2 -16   3 1242645  184199
   2  16   4  864558   60724
  -2  16  -4  963712   68180
  -2  16  -4 1006098  102102
   2  16   4  906413   66470
   2 -16   4  691925  150118
   2  16   4  875178   72526
   2  16   5     511    7672
  -2  16  -5     576   27369
  -2  16  -5    4046   10838
   2  16   5    4635   10489
  -2  16  -6  132725   23974
   2  16   6  138230   25160
   2  16   6   93906   18725
  -2  16  -6  150582   33478
  -2  16  -6   66639   30617
  -2  16  -7    1526   11715
  -2  16  -7    1526   15045
  -2  16  -8     305   10807
  -2  16  -9     805    8489
   2  18  -8   76503   19841
   2  18  -7  679695   63852
   2  18  -7  573905   47048
  -2  18   7  506504   49293
   2  18  -7  553821   79898
   2  18  -6  480938   73595
   2  18  -6  384328   43361
  -2  18   6  343342   46797
   2  18  -5  275745   36720
  -2  18   5  287638   43085
   2  18  -5  347365   58126
   2  18  -4   12480   12096
  -2  18   4     192   16289
   2  18  -4     162   11810
   2  18  -3 1450050   83149
  -2  18   3 1191499   88226
  -2  18   2    1874    6050
   2  18  -2     103   12370
  -2  18   2   15268   13065
  -2  18   1 1744389   90948
  -2  18   1 1662556   87920
  -2  18   1 1582090   95340
   2  18  -1 1834482   99904
  -2  18   0   36405   17169
  -2  18   0    1085    7419
   2  18   0   14235    9820
   2  18   1 6706818  194577
  -2  18  -1 6451990  176449
  -2  18  -1 6850535  202849
   2  18   2  184488   31421
   2  18   2  177104   33028
  -2  18  -2  198913   31502
  -2  18  -3      10   10308
   2  18   3   10692   11624
   2  18   4   25430   13515
  -2  18  -4    4027   13992
   2  18   4   10062    8029
  -2  18  -4   21278   14667
   2  18   5  131803   24248
   2  18   5  155641   22737
  -2  18  -5  155721   29468
  -2  18  -5  166063   27817
   2  18   6  172946   27396
  -2  18  -6  253485   41324
  -2  18  -6  223432   32916
  -2  18  -7   12932    8941
  -2  18  -7    1974   11680
  -2  18  -8  459435   49006
   2  20  -7  749588   45932
   2  20  -6     188    9355
  -2  20   6   20623    8029
   2  20  -5  571760   55311
  -2  20   5  406142   51127
   2  20  -4   23665   13319
  -2  20   4   28507   14465
   2  20  -3  125085   29273
  -2  20   3  108697   29418
  -2  20   2  796856   67068
  -2  20   2  749551   73749
   2  20  -2  811932   71028
  -2  20   1 3965929  128024
   2  20  -1 4450329  170954
  -2  20   1 4418041  154702
  -2  20   0 1205445   73864
   2  20   0 1356742   91625
  -2  20   0 1250255   85372
  -2  20  -1  560902   54569
   2  20   1  666374   65784
   2  20   2   89338   26822
  -2  20  -2   65956   22438
   2  20   3  487335   53061
  -2  20  -3  520798   56177
   2  20   4  122117   23816
  -2  20  -4  117647   24455
  -2  20  -5   97404   25145
  -2  20  -6  986998   60724
   2  22  -5  947672   57574
   2  22  -4     990    7872
   2  22  -3  333726   41250
   2  22  -2   90928   22564
   2  22  -1  754668   57281
  -2  22   0   15228    7519
   2  22   0   30550   11033
   2  22   0   39045   13870
  -2  22  -1  737206   55925
   2  22   1  788364   63587
   2  22   2    2181    8500
  -2  22  -2    4526   10622
   2  22   3 2055474   92626
  -2  22  -3 2183355   98596
  -2  22  -4     481    9808
  -2  22  -5  187298   25584
   2  24  -3  201324   24276
   2  24  -2   11952    7848
   2  24  -1  431909   37384
   2  24   0     922    8207
  -2  24  -1 1183626   61426
   2  24   1 1146596   57571
  -2  24  -2   69133   16767
  -2  24  -3 2298641   81230
   3  -1 -11   58067   20093
   3   1 -11   77267   23137
   3  -1 -10   24911   17721
   3   1 -10   32541   20292
   3   1  -9  905096   85655
   3  -1  -9  743086   79710
   3  -1  -8  609146   50199
   3   1  -8  619348   52711
  -3  -1   7    2560   10032
   3   1  -7   12672    9330
  -3   1   7   28082   10822
   3  -1  -7   46467   10909
   3   1  -6  535801   45416
  -3   1   6  516019   53943
  -3  -1   6  498278   85709
  -3  -1   6  533831   55310
  -3  -1   5   33436   16503
   3   1  -5   33436    8238
   3   1  -4  676890   51401
   3  -1  -4  719124   50024
  -3   1   4  637157   50678
   3   1  -3 5566959  173710
   3  -1  -3 5774570  158501
   3   1  -2 4934533  141414
   3  -1  -2 5001436  121494
   3  -1  -113846651   79865
   3   1  -114131895   99570
   3   1   0   36442   34988
   3  -1   0   39399   55724
   3   1   1 6371935  146399
   3  -1   1 5991394  150765
   3  -1   218840877  519744
   3   1   223054218  683782
   3  -1   3  141916   51861
   3   1   3  125884   48570
   3   1   4  136512   29732
   3  -1   4  166920   31779
   3   1   5  162715   82895
   3  -1   5  183400   84697
  -3  -1  -6     633    8620
  -3   1  -6   13846   13258
  -3   1  -6    7918    5687
  -3   1  -7   19294   17616
  -3  -1  -7   18392   13182
  -3   1  -8 2565267  143722
  -3  -1  -8 2435108  141978
  -3  -1  -9  600835   74912
  -3   1  -9  666161   77690
  -3  -1 -10  108602   30962
  -3   1 -10  180075   39590
  -3   1 -11     614   12586
  -3  -1 -11    5759   10143
   3  -3 -11   79388   24186
   3  -3 -10   78294   28677
   3   3 -10  100280   29456
   3  -3  -9     470   21932
   3   3  -9   13197   11589
   3   3  -8   45204   18940
  -3   3   8   12292   23258
   3   3  -8   55031   20430
   3   3  -8   47502   17086
   3   3  -7  121286   18888
   3   3  -7  107986   15786
  -3   3   7  116347   21215
  -3  -3   7   65342   27519
  -3   3   6  347270   50234
   3   3  -6  293061   39703
  -3  -3   6  286542   71141
  -3  -3   6  331970   49823
   3   3  -6  332251   40894
  -3  -3   5  143458   56584
   3   3  -5   91987   44767
  -3   3   4  141523   15938
   3   3  -4   52359    8734
   3  -3  -3 2615617   84047
   3   3  -3 2882576  118402
  -3   3   3 2790448  111380
   3   3  -2   16853   13666
   3  -3  -2   17594    7533
   3  -3  -1  142650   18563
   3   3  -1  129170   19367
   3  -3  -1  141121    8850
   3   3   0  763462   59090
   3  -3   0  915214   88714
   3   3   1  100204   14719
   3  -3   1  117016   19307
   3  -3   2 9786494  207635
   3   3   2 9273718  178745
   3   3   3   93944   24103
   3  -3   3  110081   30915
   3  -3   4 1136171  123883
   3   3   4 1185122  118390
   3  -3   5   93733   42477
   3   3   5   73710   24297
  -3  -3  -5   31896   12073
  -3   3  -6   27599   18687
  -3  -3  -6   29070   14327
  -3   3  -6   49627   17139
   3  -3   6   42345   44393
  -3   3  -7   24070    8900
  -3   3  -7    8096   14363
  -3  -3  -7   16093   13800
  -3   3  -8  965873   89324
  -3  -3  -8  829844   87535
  -3   3  -9  113125   29259
  -3  -3  -9   48747   18608
  -3   3 -10  566657   65567
  -3  -3 -10  529956   65685
  -3  -3 -11   15291   11767
   3  -5 -11  263199   37488
   3  -5 -10     452   12097
   3   5  -9   17693   18494
   3   5  -9    4560   11661
   3  -5  -9    3175   16364
  -3   5   8  584868  100409
   3   5  -8  525386   57883
   3   5  -8  570526   62105
  -3  -5   7  299506   87714
  -3   5   7  279206   78448
   3   5  -7  372468   50777
  -3   5   7  391941   62202
   3   5  -7  347226   49709
  -3   5   6  277069   40573
   3   5  -6  230045   50979
  -3   5   6  277039   67432
   3   5  -6  293300   37110
  -3  -5   6  181716   50250
   3   5  -6  258977   34410
  -3   5   510596832  229309
   3   5  -510264449  319881
   3   5  -4 1947902  130342
   3   5  -3 1681854   90898
   3   5  -2 1422421   91169
   3  -5  -1 2028236   93739
   3   5  -1 1813078   93892
   3   5   0 1460765   67752
   3  -5   0 1564087   88760
   3   5   1  510331   46567
   3  -5   1  499938   65069
   3  -5   214278887  354249
   3  -5   3 1304816  106308
   3   5   3 1235006   75728
   3   5   4 2806539  146541
   3  -5   4 2669775  210457
  -3   5  -5  994743   79286
  -3   5  -5  968397   71752
  -3  -5  -5 1017096   78319
  -3   5  -5  973397   56074
   3  -5   5  951544  154006
  -3  -5  -6  208326   37507
  -3   5  -6  223887   35075
   3  -5   6  207636   90039
  -3   5  -6  220861   28127
  -3   5  -6  210993   41601
  -3   5  -7   52962   24031
  -3   5  -7  120720   30418
  -3  -5  -7   94072   29461
   3  -5   8 1149574  278503
  -3  -5  -8  931692   89396
  -3   5  -8 1081995   87841
  -3  -5  -9   28351   14841
  -3   5  -9    2996   10526
  -3   5 -10  446420   51401
  -3  -5 -10  542934   64417
  -3  -5 -11  184660   32355
   3  -7 -11  336863   41889
   3  -7 -10  373749   53563
   3   7 -10  268491   55075
   3   7  -9  185336   39951
   3  -7  -9  204804   40500
   3   7  -8  873514   76435
   3   7  -8  848667   78198
  -3  -7   8  632023  135544
  -3   7   8  910873  121656
   3   7  -7 1171360   63312
   3   7  -7 1127475   86884
  -3  -7   7 1059443  162183
  -3   7   7 1104885  142354
  -3   7   7 1210672  104373
   3   7  -7 1201759   90927
   3   7  -6 1212796   79205
   3   7  -6 1236986  125878
   3   7  -6 1269472   80682
  -3   7   6 1143502  133125
  -3  -7   6 1196078  138579
  -3   7   6 1315083   92940
   3   7  -6 1167726   59605
  -3   7   5 6650480  190857
  -3   7   5 6074362  144161
   3   7  -5 6655867  273290
  -3   7   5 6100103  296179
   3   7  -5 6413874  172371
   3   7  -4  395584   59074
   3   7  -3  318341   54738
   3   7  -2  700875   67536
   3  -7  -1 3381163  112843
   3   7  -1 2696068  110669
   3   7   0 3728224  117815
   3  -7   0 4021016  149505
   3   7   1   18246    9513
   3  -7   1    3089   22260
   3  -7   2 6027599  242393
   3   7   2 5467433  141114
   3  -7   3    2988   17113
   3  -7   4 4775960  257872
  -3   7  -5  386449   41624
  -3   7  -5  430788   60658
  -3   7  -5  377943   52321
  -3  -7  -5  391039   54878
   3  -7   5  380491  112391
  -3   7  -6  811754   52093
  -3  -7  -6  789588   70339
   3  -7   6  716152  150201
  -3   7  -6  818643   79164
  -3  -7  -7      79    9339
  -3   7  -7     151   23453
  -3  -7  -8  344730   47373
  -3   7  -8  254350   54425
  -3  -7  -9   61164   23013
  -3  -7 -10  214223   35793
  -3   7 -10  189945   32343
  -3  -7 -11   59243   15439
   3  -9 -11  134447   25654
   3   9 -10     254   22399
   3  -9 -10   21583   13193
   3   9  -9 3106758  173082
   3  -9  -9 3089483  154449
   3   9  -8 1430922  116522
   3   9  -8 1388493  108651
   3   9  -7 3069180  145951
   3   9  -7 2867921   98986
   3   9  -7 2969760  139297
  -3   9   6  709308   76688
   3   9  -6  713558   68952
  -3  -9   6  529228  105993
   3   9  -6  675247   67095
  -3   9   6  824539  122827
   3   9  -6  729163  109792
   3   9  -6  633582   49462
  -3   9   5 7032326  160480
  -3   9   5 6945870  315223
   3   9  -5 6910691  144558
   3   9  -5 7036502  183156
   3   9  -5 7128261  292779
   3   9  -5 7283278  189416
  -3   9   5 7403276  205881
  -3   9   4  111533   30174
   3   9  -4  114319   12894
   3   9  -4   82787   14366
   3   9  -4   11689   10030
  -3   9   4  108599   13386
   3   9  -3    7145   20165
   3   9  -217616508  348829
   3  -9  -1    4907   30117
   3   9  -1    1300   26204
   3  -9   0 7329245  252640
   3   9   0 5989318  193005
   3  -9   1 2279986  135250
   3   9   1 2098805   86144
   3   9   2 2544017   83577
   3  -9   2 2643744  157914
   3  -9   3   70324   15697
  -3   9  -4 1701485   92591
   3  -9   4 1620012  158738
  -3   9  -4 1465336   76967
  -3   9  -4 1602626   65806
  -3   9  -5    1706   15154
  -3  -9  -5    8346    6838
  -3   9  -5    8433    8080
   3  -9   5    8433   25501
  -3   9  -6 2917636  107899
  -3  -9  -6 2872680  140080
  -3   9  -6 3114976  171794
   3  -9   6 2735138  312523
  -3  -9  -7     810   15408
  -3   9  -7      48    9571
  -3   9  -7    7832   23561
  -3   9  -8  330369   91590
  -3  -9  -8  565247   74447
  -3  -9  -9    7440   12790
  -3   9  -9    5483   15331
  -3   9 -10  436279   52857
  -3  -9 -10  361610   47893
   3  11 -10  318648   60531
   3 -11 -10  338618   42302
   3 -11  -9  169798   34546
   3  11  -9  220696   48889
   3  11  -8  431650   66238
   3 -11  -8  332533   53675
   3  11  -8  382295   57259
   3  11  -8  373602   39114
   3  11  -7 1593239  116572
   3  11  -7 1502854  107457
   3  11  -7 1451498   77165
   3  11  -6  443398   49026
   3  11  -6  456055   38197
   3  11  -6  391655   46177
  -3 -11   6  291045   63518
   3  11  -5 1622320  156102
   3  11  -5 1542952   76885
   3  11  -5 1608736  100610
  -3  11   5 1564513   84458
   3  11  -5 1569365   95478
  -3  11   5 1606398  106370
  -3 -11   5 1663879  182920
   3  11  -4  703629   41231
  -3  11   4  725404   46726
   3  11  -4  695671   50539
   3  11  -4  750110   82246
   3  11  -4  657638   46817
   3  11  -3  644744   65157
   3  11  -3  685349   63215
  -3  11   3  701668   63967
   3  11  -3  726074  102898
   3  11  -2 1468553  104969
  -3  11   2 1529600   70295
   3  11  -2 1425779   67806
   3  11  -1  882425   73811
   3  11   0 5857612  200464
   3 -11   0 6991181  274598
   3 -11   1  625686   65668
   3  11   2 8456989  207766
   3 -11   2 8009797  329573
  -3  11  -2 7831553  150959
   3  11   2 8196331  178388
   3  11   2 8103737  170310
  -3  11  -2 7720644  166053
   3  11   3  147058   22608
  -3  11  -3  144247   23166
   3 -11   3  137095   40229
  -3  11  -3  130761   16184
  -3  11  -4 3428945  145642
  -3  11  -4 3359827  104930
   3 -11   4 3330784  253659
  -3 -11  -5  406090   42480
  -3  11  -5  424869   36941
  -3  11  -5  467518   56441
   3 -11   5  439397  101318
  -3  11  -6 1555947   79350
  -3 -11  -6 1535849   96920
  -3  11  -6 1735846  131604
   3 -11   6 1468259  225264
  -3 -11  -7    8999    8799
  -3  11  -7   26276   12278
  -3  11  -8 1444234  160125
  -3 -11  -8 1821397  111823
  -3  11  -9  334717   48442
  -3 -11  -9  253057   39867
  -3 -11 -10  375933   43611
  -3  11 -10  507724   53264
   3  13 -10  185123   35277
   3  13  -9  359265   63902
   3 -13  -9  267812   38707
   3  13  -8  852099   93255
   3  13  -8  858248   57875
   3 -13  -8  674501   69544
   3 -13  -7  899317   80515
   3  13  -7 1094151  101019
   3  13  -7 1004660   88997
   3  13  -7  988671   66207
   3  13  -6  330725   39287
   3  13  -6  315566   47423
   3  13  -6  306852   52102
   3  13  -5  409000   44588
   3  13  -5  372260   50808
   3  13  -5  438205   87340
   3  13  -5  410618   56913
  -3 -13   5  351003   93328
   3  13  -4  171676   39458
   3  13  -4  164658   31734
  -3  13   4  156252   34680
   3  13  -4  157419   34946
   3  13  -4  139477   59405
   3  13  -3 2310925  150449
   3  13  -3 2107802   91163
   3  13  -3 1919996   90747
  -3  13   3 2167937   91554
   3  13  -2  511176   71955
   3  13  -2  436629   45072
   3  13  -2  594222   52566
  -3  13   2  550502   44778
  -3  13   2  604186   52375
   3  13  -1  759215   80313
  -3  13   1  812921   60808
  -3  13   1  665800   70725
   3  13  -1  780145   58920
  -3  13   1  721037   52667
   3  13   0 5063837  154329
  -3  13   0 4574145  123551
  -3  13   0 4659385  158063
  -3  13   0 4689878  125496
   3  13   0 5047917  143387
   3  13   0 4805673  132210
  -3  13  -1    8338    6419
   3  13   1   19649   12314
   3  13   1   12412    8849
   3 -13   1   26479   22052
  -3  13  -1   10974   11691
   3  13   1   18507   13209
  -3  13  -1   12552    9302
   3  13   2 8336374  192087
   3  13   2 8385064  194776
   3 -13   2 8245181  380403
  -3  13  -2 8226821  174833
  -3  13  -2 8390151  193723
   3  13   2 8423530  222596
   3 -13   3  121895   52508
   3  13   3  136261   26939
   3  13   3  138814   31866
  -3  13  -3  134498   33339
  -3  13  -3  166142   28552
   3  13   3  144985   28732
   3  13   4 4214221  148529
   3  13   4 4170242  136723
  -3  13  -4 4361686  138269
   3  13   4 4268654  162445
   3 -13   4 4207695  340447
  -3  13  -4 4416036  195969
  -3  13  -5    6989   18003
  -3  13  -5   26596   18043
   3  13   5   17269   14795
   3  13   5   18315   13806
   3  13   5   39519   23642
   3  13   6 1503292   92731
  -3  13  -6 1692337   91256
  -3  13  -7   18602   28343
  -3  13  -7    9136   11713
  -3 -13  -7     761   13087
   3  13   7    4105    8481
   3  13   8  777414   56100
  -3 -13  -8  877200   71601
  -3  13  -9  231633   39158
  -3 -13  -9  165117   28223
   3  15  -9   17033   17731
   3  15  -8  660181   47597
   3  15  -8  687970   87443
  -3  15   8  566417   55214
  -3  15   7  911913   84980
   3  15  -7  998789   66892
   3  15  -7 1049390  105063
   3  15  -6  517497   58250
   3  15  -6  555400   50255
   3  15  -6  645275   75133
   3  15  -5 6023356  179328
   3  15  -5 6256776  232320
   3  15  -5 5844569  199223
  -3  15   4 2301349  113260
  -3 -15   4 2417757  239144
   3  15  -4 2250466  189161
   3  15  -4 2083550  119008
   3  15  -4 2383345  105162
  -3  15   3 2453608  119913
   3  15  -3 2502040  191580
   3  15  -3 2263261  118574
   3  15  -3 2461490  122263
  -3  15   2   38146    7407
   3  15  -2   37237   10121
  -3  15   2   52117   11423
  -3  15   2   31657   11136
  -3  15   1  730197   59529
  -3  15   1  720184   55984
   3  15  -1  720018   60270
  -3  15   1  591976   63975
  -3  15   0 3619059  145927
  -3  15   0 3622427  126749
  -3  15   0 3478779  122105
   3  15   0 3699129  130522
   3  15   1   11741   12617
   3  15   1   19325   16704
   3  15   1   17329   17057
  -3  15  -1    3751   12274
  -3  15  -1   16612   14271
  -3  15  -1   24443   16418
  -3  15  -2 5581264  153387
   3 -15   2 5151546  334801
   3  15   2 5356202  164802
   3  15   2 5406221  177516
   3  15   2 5417902  164492
   3  15   3 1414704   87412
  -3  15  -3 1296029  110735
  -3  15  -3 1491098   85075
   3  15   3 1363444   84547
   3  15   3 1335358   92085
  -3  15  -3 1224219   86088
   3 -15   3 1188339  184547
  -3  15  -4 1651759   91721
   3  15   4 1444511   84380
   3 -15   4 1439628  221255
  -3  15  -4 1878634  143611
   3  15   4 1590794  100330
   3  15   4 1587381   92955
   3  15   5 1470808   93286
   3  15   5 1516043   99034
  -3  15  -5 1743025   99068
  -3  15  -5 1809413  162012
  -3  15  -6  105341   29569
  -3  15  -6   78384   43041
   3  15   6   52994   15843
  -3  15  -6   64279   18268
  -3  15  -7  584176   50390
  -3  15  -7  664987   72619
   3  15   7  456081   43768
  -3  15  -8 2089720  122083
  -3  15  -9     693   10924
   3  17  -8   81110   32608
  -3  17   8   79468   16433
   3  17  -8  100725   24098
   3  17  -7  676380   49274
   3  17  -7  701024   84239
  -3  17   7  620106   57703
  -3  17   6  243556   42212
   3  17  -6  266025   36828
   3  17  -6  312156   54167
  -3  17   5  471155   56418
   3  17  -5  491590   60411
   3  17  -5  600469   51228
  -3  17   4  426542   56479
   3  17  -4  491269   49221
   3  17  -4  484345   57366
  -3 -17   3  797762  137212
  -3  17   3  696120   73644
  -3  17   3  755180   66234
   3  17  -3  831443   73578
  -3  17   2 1591204  112750
  -3  17   2 1882901  107218
   3  17  -2 1873610  111318
  -3  17   2 1796766   94171
  -3  17   1  681496   70477
   3  17  -1  827926   72299
  -3  17   1  833298   67938
  -3  17   1  706504   60779
  -3  17   0 1673980  109847
  -3  17   0 1734994   99923
   3  17   0 1843963  109226
  -3  17   0 1749575  103080
  -3  17  -1 2551789  102959
  -3  17  -1 2673983  117242
  -3  17  -1 2568180  103887
   3  17   1 2567717  113788
   3  17   2 4164414  152275
  -3  17  -2 4134140  143259
   3  17   2 3922158  154168
  -3  17  -3   15583    9734
   3  17   3   21635    9098
   3  17   3   43999   14211
   3  17   4 1216505   81153
   3  17   4 1351290   82260
  -3  17  -4 1390863   91048
  -3  17  -4 1405433   84678
  -3  17  -5   53726   19577
  -3  17  -5      93   21918
  -3  17  -5   53298   18844
   3  17   5   64796   18033
   3  17   5   54684   17447
  -3  17  -6 2239564  104313
  -3  17  -6 2512884  136950
  -3  17  -7   77960   24561
  -3  17  -7   69608   15485
  -3  17  -8 1140889   86457
   3  19  -7  588516   52987
  -3  19   7  484903   44400
   3  19  -7  597133   44964
  -3  19   6 1474352   91868
   3  19  -6 1653267   84716
   3  19  -6 1673501  131371
   3  19  -5  137650   36100
   3  19  -5  232615   33776
  -3  19   5  206032   36696
   3  19  -4 1060306   73353
  -3  19   4  872273   75764
  -3  19   3  188915   41114
   3  19  -3  226278   37662
   3  19  -2 1292700   93691
  -3  19   2 1132073   88806
  -3  19   1   60716   20898
  -3  19   1   70548   19608
   3  19  -1   71512   20280
  -3  19   1   71661   20201
  -3  19   1   86408   18346
  -3  19   0 2476450  123669
  -3  19   0 2356790  112476
  -3  19   0 2279714  105139
   3  19   0 2608850  132882
   3  19   1  155719   36736
  -3  19  -1  133368   29078
   3  19   2  159055   29834
  -3  19  -2  210048   32401
   3  19   3   38259   11897
  -3  19  -3   39062   13730
   3  19   4  323353   37372
  -3  19  -4  372209   42291
  -3  19  -5  116326   24033
   3  19   5   61005   15392
  -3  19  -6  627044   59273
  -3  19  -6  643681   50106
  -3  19  -7   71229   20546
   3  21  -6  322784   32862
  -3  21   5   13002   10555
   3  21  -5    5953    9018
   3  21  -4  114187   27695
  -3  21   4   97792   26797
   3  21  -3   59394   19109
  -3  21   3   32157   14095
   3  21  -2 1205038   77595
   3  21  -1 1735393  105251
  -3  21   0  492703   45821
   3  21   0  571637   59218
  -3  21  -1    9568    9220
   3  21   1    7714   12242
  -3  21  -2   13175   12764
   3  21   2   14001   11945
   3  21   3   32912   10695
  -3  21  -3   38701   14891
   3  21   4  596085   49809
  -3  21  -4  577105   52179
  -3  21  -5    7175    7776
  -3  21  -6  601857   43312
   3  23  -5  158234   19866
   3  23  -4   32032   10556
   3  23  -3  144455   23720
   3  23  -2  336661   37250
   3  23  -1 1183058   70187
   3  23   0  159502   27958
   3  23   0  144086   22951
   3  23   1    7313    8904
  -3  23  -1   12227    7101
   3  23   2   56571    8546
   3  23   2   60666   13274
  -3  23  -2   65305   13172
   3  23   3   63649   14563
  -3  23  -3   45902   12635
  -3  23  -4  263841   27340
   4   0 -11  549912   54972
   4   0 -10  339404   46111
   4   0  -9 1347757  115913
   4   0  -8 1309271   91712
  -4   0   7 2973277  142947
   4   0  -7 2634537  106697
  -4   0   6 6326844  203259
   4   0  -5  633533   60306
  -4   0   5  594463   61122
   4   0  -4   46419   15628
   4   0  -3 2792505   96764
   4   0  -240660556  379139
   4   0  -110510573  171986
   4   0   0  749007   47351
   4   0   1   31872   95916
   4   0   228100116  887218
   4   0   3   38258   88836
   4   0   4   20802   41389
   4   0   5 3513406  418107
  -4   0  -6  663863   71893
   4   0   6  528119  169893
  -4   0  -7 9319737  261430
   4   0   7 8633473  599326
  -4   0  -8  345835   55749
  -4   0  -9 2151289  143246
  -4   0 -10 1718542  112634
  -4   0 -11  276120   41333
   4   2 -11  108551   23605
   4  -2 -11   90220   23860
   4   2 -10  574873   64031
   4  -2 -10  540685   65760
   4   2  -9   17452   11120
   4   2  -9   30808   20719
   4   2  -8 2809091  130343
  -4   2   8 2822174  159001
   4   2  -8 2636334  122774
  -4   2   7 1048338   87885
   4   2  -7  918278   67490
  -4  -2   7  967525   85100
   4   2  -7  974835   68690
  -4  -2   6 9694001  230389
   4   2  -6 9522565  306351
   4   2  -6 9332762  186622
   4   2  -5 1107784   95007
  -4  -2   5 1106528  103451
   4  -2  -4 4024192  133482
   4   2  -4 3889289  149959
   4   2  -3     318   10984
   4  -2  -3     412    4606
   4  -2  -2 7252122   94187
   4   2  -2 7570463  129950
   4  -2  -1 4599561   81147
   4   2  -1 4656025  107913
   4  -2  -1 4840078   98156
   4  -2   028202835  360318
   4  -2   120836623  366249
   4   2   120587074  257692
   4  -2   2 1850412   52950
   4   2   2 1668601   36344
   4   2   3   23126   29702
   4  -2   3   16449   49539
   4  -2   4  596721  123262
   4   2   4  752152  129730
   4  -2   5 1612987  221740
  -4  -2  -5 1609377   87457
   4   2   5 1452973  178427
  -4   2  -6  228970   32336
   4  -2   6  194449   80199
  -4   2  -6  159903   37374
  -4  -2  -6  256299   36061
   4   2   6  210733   74070
  -4   2  -7 1278830   97126
   4  -2   7 1181998  280904
  -4  -2  -7 1352444  102980
  -4   2  -8   99131   28204
  -4  -2  -8  102282   29968
  -4   2  -9 1313450  100111
  -4  -2  -9 1347716  103997
  -4  -2 -10  543120   59256
  -4   2 -10  530228   56703
  -4   2 -11  540850   51520
  -4  -2 -11  434442   48049
   4  -4 -11   58583   20789
   4  -4 -10  236504   45136
   4   4  -9   38867   20054
   4   4  -9   43056   20151
   4   4  -9    6529   14442
  -4   4   8 1347799  111627
   4   4  -8 1390108   93396
  -4   4   8 1390147  165181
   4   4  -8 1395767  105447
   4   4  -8 1347435   93352
  -4   4   7    6455   14926
   4   4  -7    6272    9783
  -4   4   7    6455   24794
  -4  -4   7    6272   19041
   4   4  -7    6272    9357
   4   4  -6 3634782  126269
   4   4  -6 3666458  205033
  -4   4   6 3758481  148721
  -4  -4   6 3830782  151149
  -4  -4   6 3328376  214914
   4   4  -5  649073   65671
   4   4  -416509353  342064
   4   4  -3  493673   59210
   4   4  -2 4547300  155382
   4  -4  -2 4038298   64794
   4   4  -1 1693308   97691
   4  -4  -1 2410149  150651
   4   4   011643401  184365
   4  -4   012890681  302369
   4  -4   1 6474828  218239
   4   4   2 2022936  119125
   4  -4   2 2105837  159339
   4   4   3   41947   53394
   4  -4   3   35139   63808
   4  -4   410578875  484677
   4   4   410730460  368135
  -4  -4  -5 1671562   97164
  -4   4  -5 1540980   67729
   4   4   5 1488724  141756
   4  -4   5 1473900  205763
  -4   4  -5 1567717  102484
   4  -4   6  194624  117831
  -4   4  -6  213892   56052
  -4  -4  -6  260467   52018
  -4   4  -6  260544   48268
  -4  -4  -7 2348384  143909
   4  -4   7 2184087  390079
  -4   4  -7 2237251  131579
  -4   4  -8   31752   18100
  -4  -4  -8   19825   17074
  -4   4  -9 1328023   95797
  -4  -4  -9 1384234  112162
  -4   4  -9 1497539  110100
  -4   4 -10   58536   18995
  -4  -4 -10   41038   17515
  -4  -4 -11  326998   41298
   4  -6 -11   36326   14162
   4   6 -10   89335   26529
   4  -6 -10   44852   16881
   4   6  -9   64336   23614
   4   6  -9  107099   25363
   4   6  -8  919705   78068
   4   6  -8  979490   80782
  -4   6   8  809716  120354
   4   6  -7  908311   73192
  -4  -6   7  786331  125747
  -4   6   7  952200  133384
   4   6  -7  998505   77505
  -4   6   7 1089705   94210
   4   6  -6  402448   44996
  -4  -6   6  327890   72675
   4   6  -6  398834   45555
  -4   6   6  402502   85060
  -4   6   6  393089   50199
   4   6  -6  447047   75227
  -4   6   5  547157   54987
  -4   6   5  533289   97474
   4   6  -5  527447   50523
   4   6  -5  499192   76791
   4   6  -4 3909929  170355
   4   6  -3   13681   10239
   4   6  -2 2779384  123328
   4   6  -1  307477   34411
   4  -6  -1  342919   45221
   4  -6   0 9374727  235554
   4   6   0 8865355  167571
   4  -6   1    4107   18351
   4   6   1    6851    7662
   4  -6   2 1779891  146249
   4  -6   3 7630558  315112
   4  -6   4 2152284  199764
  -4  -6  -5  116689   34151
   4  -6   5  158597   91451
  -4   6  -5  129701   26670
  -4   6  -5  145334   42285
   4  -6   6     109   50212
  -4   6  -6     107    6680
  -4   6  -6     109   12805
  -4  -6  -6   12738   12474
  -4  -6  -7 3277822  162429
   4  -6   7 3135054  437776
  -4   6  -7 3424448  210949
  -4  -6  -8  507906   61859
  -4  -6  -9  874293   86275
  -4   6  -9  953857   84448
  -4   6 -10   24086   11824
  -4  -6 -10    8905   10933
  -4  -6 -11  835380   65111
   4  -8 -11    3229    9731
   4   8 -10   45941   23429
   4  -8 -10   37298   19735
   4  -8  -9  185764   42064
   4   8  -9  188325   40390
   4   8  -9  182856   42131
   4   8  -8  852350   87459
   4   8  -8  899007   90767
  -4   8   7  346050   57613
   4   8  -7  357959   36820
   4   8  -7  320238   49495
   4   8  -7  397719   53961
  -4  -8   7  222979   74596
  -4   8   7  432221   94425
   4   8  -6  374998   52037
   4   8  -6  389835   40582
  -4  -8   6  391429   93825
  -4   8   6  381174   57943
   4   8  -6  395724   53820
  -4   8   6  434952   98319
   4   8  -6  388480   85333
  -4   8   5   26048   10755
   4   8  -5   19128   19978
  -4   8   5   72161   47552
   4   8  -5   54048   18549
   4   8  -5   32517   11371
  -4   8   5   39839   18459
  -4   8   4 1483963  139866
   4   8  -4 1456301  116658
   4   8  -3   80705   20845
   4   8  -2 6198451  199376
   4   8  -1  862653   56100
   4  -8  -1  886166   66037
   4  -8   0 8116300  264266
   4   8   0 7311186  192284
   4   8   1  163108   30706
   4  -8   1  167332   48373
   4   8   2 1251188   71104
   4  -8   2 1281788  121775
   4  -8   3 1154801  158750
   4   8   3 1151703   86942
  -4   8  -4   15887   17387
  -4   8  -4   30606   12251
   4  -8   4    8604   28022
  -4   8  -5  222856   25648
   4  -8   5  162489   63005
  -4   8  -5  253404   42352
  -4  -8  -5  213473   31235
  -4   8  -6  552791   44269
   4  -8   6  569468  143788
  -4  -8  -6  566068   59377
  -4   8  -6  554350   73075
   4  -8   7 1063628  231065
  -4  -8  -7  727682   69107
  -4   8  -7  837274  100025
  -4  -8  -8  673045   77244
  -4  -8  -9  297747   43405
  -4   8  -9  295013   44506
  -4  -8 -10     126   12544
  -4   8 -10     262    8760
   4 -10 -10  369695   47057
   4  10 -10  486376   71576
   4  10  -9   20846   15022
   4 -10  -9     632   10252
   4  10  -8     583   14853
   4  10  -8    8991   12384
   4  10  -7  225214   39413
   4  10  -7  282686   33967
  -4 -10   7  181046   66577
   4  10  -7  220718   39764
   4  10  -6  664129   50194
   4  10  -6  740063   68757
  -4 -10   6  602353  111960
  -4  10   6  699593   73654
   4  10  -6  770805   71547
   4  10  -6  688344  106073
   4  10  -5  165058   19978
   4  10  -5  142068   23485
   4  10  -5  128140   33753
   4  10  -5  123116   21733
  -4  10   5  120790   22512
  -4  10   5  136393   20064
   4  10  -4  124114   30324
  -4  10   4  137566   29845
   4  10  -4  144420   46085
  -4  10   4  181022   30354
   4  10  -3 3074582  171734
  -4  10   3 3239989  107703
   4  10  -3 3045920  105418
   4  10  -2   63557   17421
   4  10  -1    3022   17445
   4  10   0  662520   62134
   4 -10   0  769450   85393
   4 -10   1  117502   43821
   4  10   1  133944   29154
   4 -10   2  484468   89344
  -4  10  -3  486662   38561
  -4  10  -3  479989   53302
   4 -10   3  475240   89615
   4 -10   4  262474   85123
  -4  10  -4  274139   32799
  -4  10  -4  298777   49716
  -4 -10  -5 1038291   82525
   4 -10   5 1051537  199244
  -4  10  -5 1163147   71735
  -4  10  -5 1194641  110433
  -4  10  -6   89842   19267
  -4 -10  -6   91991   23663
   4 -10   6   89888   69515
  -4  10  -6   97092   35525
  -4  10  -7    1986   22716
  -4  10  -7    3137   12738
  -4 -10  -7    1847   11538
  -4 -10  -8   26313   17182
  -4 -10  -9   52502   21440
  -4  10  -9   65618   24026
  -4  10 -10    1120   10728
  -4 -10 -10    1200   10871
   4 -12 -10  264416   31625
   4  12 -10  200208   39009
   4  12  -9      78   17844
   4 -12  -9      59    8595
   4 -12  -8    9376    8576
   4  12  -8   28290   11613
   4  12  -8   44994   21503
   4  12  -8   46827   13405
   4  12  -7  184244   39597
   4  12  -7  198643   29294
   4  12  -7  217663   44483
   4  12  -6  526398   50496
   4  12  -6  518941   63455
   4  12  -6  574707   69342
  -4 -12   6  514226  116045
   4  12  -5   38931   16059
   4  12  -5   30753   18702
  -4  12   5   47078   18514
   4  12  -5   72882   38485
  -4  12   5   27866   19741
   4  12  -5   38686   20305
   4  12  -4   22281   22279
  -4  12   4   23494   19000
   4  12  -4   14481   18040
   4  12  -4   37871   35364
   4  12  -3  240568   34264
   4  12  -3  217944   30593
  -4  12   3  253022   33543
   4  12  -3  294941   57584
   4  12  -2  131252   12723
   4  12  -2  108963    9601
   4  12  -2   44866   10180
  -4  12   2  138636   10808
   4  12  -1   19370    6936
   4  12  -1   34553   12167
  -4  12   1    1356    5452
  -4  12   0   57100   16372
   4  12   0   43578   15697
   4  12   0   41775   16236
   4 -12   0   55929   35899
   4  12   0   46407   19962
   4  12   0   20167   18046
  -4  12   0   24145   13818
   4  12   1  960038   67210
  -4  12  -1 1018718   59620
  -4  12  -1 1018622   75367
  -4  12  -1  958249   61972
   4 -12   1  944237  126715
   4  12   1 1103512   79167
   4  12   1  943296   66047
   4  12   2  107244   22235
   4  12   2   97401   18166
  -4  12  -2  133488   29340
   4  12   2  121156   20376
   4 -12   2   83426   33920
  -4  12  -2  116918   18318
   4  12   3   58418   13862
   4  12   3   71678   14587
  -4  12  -3   79150   14482
   4 -12   3  100163   41985
  -4  12  -3   58635   18746
   4  12   3   74366   17388
  -4  12  -4   38902   15210
  -4  12  -4   30703   15327
   4  12   4   44501   15919
  -4  12  -5   86480   22588
   4 -12   5  138033   79507
  -4  12  -5   83151   31434
  -4 -12  -6  273561   48660
  -4  12  -6  363671   81971
  -4  12  -6  273165   41330
  -4  12  -7  912005   66525
  -4 -12  -7  889273   78533
  -4  12  -8   23152   16896
   4  12   8    8065    8714
  -4  12  -9    1974   11407
  -4 -12  -9    3183    7620
  -4  12 -10    9607    9319
   4  14  -9  123250   38431
   4 -14  -8     593    8163
   4  14  -8   30725   11053
   4  14  -7   10355   11345
   4  14  -7     503   11750
   4  14  -6    2551   11959
   4  14  -6   24548   16071
   4  14  -6   28900   23068
   4  14  -5    3227    9710
   4  14  -5     167   12395
  -4 -14   5   58983   47275
   4  14  -5   60350   41241
   4  14  -5     766    9753
   4  14  -4 1243756   83290
  -4  14   4 1400804   81547
   4  14  -4 1210899   75236
   4  14  -4 1485577   75885
   4  14  -4 1226380  129046
  -4  14   3  126647   22735
   4  14  -3  114331   21760
   4  14  -3   96304   19152
   4  14  -3  182302   41754
   4  14  -2     359   13802
   4  14  -2      69   11852
   4  14  -2    1190   13088
  -4  14   2     614   13712
  -4  14   1   24696   12760
  -4  14   1   16707   12696
   4  14  -1   18666    7451
  -4  14   1   18829   11145
   4  14   0  290236   33568
  -4  14   0  273983   30070
  -4  14   0  253895   29232
  -4  14   0  271657   37017
   4  14   0  284829   34036
  -4  14  -1    1407    5953
  -4  14  -1    1407    7780
   4  14   1     687    9649
  -4  14  -1    5144    9142
   4  14   1    1349   12443
   4 -14   1    1407   17229
  -4  14  -1    1407    8222
   4  14   1    5854   10982
  -4  14  -2    1121    6917
   4  14   2    7095   10715
   4  14   2    3987   14360
  -4  14  -2     182    7949
   4 -14   2    7044   26523
   4  14   2    2707   12088
  -4  14  -3 1317873  107511
  -4  14  -3 1152266   79392
   4 -14   3 1164835  169230
   4  14   3 1193542   75746
   4  14   3 1212444   80875
   4  14   3 1246702   75455
  -4  14  -3 1210984   71046
  -4  14  -4  677753   53677
  -4  14  -4  697650   86961
   4  14   4  690729   55272
   4  14   4  728576   62002
   4 -14   4  716845  152519
   4  14   4  672991   57523
  -4  14  -5   93466   22937
   4  14   5   87695   22587
   4  14   5  106134   22444
  -4  14  -5   80595   36991
   4  14   5   83047   21423
   4  14   6  160592   22170
  -4  14  -6   96113   31708
  -4  14  -6  191040   35074
  -4  14  -6  193734   24736
  -4  14  -7  306637   37501
  -4  14  -7  376225   56886
   4  14   7  205000   31693
  -4  14  -8    8971   13481
   4  14   8     919    5115
  -4  14  -9    6298   10749
   4  16  -9    4146    6787
   4  16  -9     289   17919
   4  16  -8  100876   20390
  -4  16   8  102355   24985
   4  16  -8  136272   41138
   4  16  -7  754047   53961
   4  16  -7  826632   85817
  -4  16   7  637491   65387
   4  16  -6 2012174   99598
   4  16  -6 1978268  135457
  -4  16   6 1673014  119711
   4  16  -5   71222   17617
   4  16  -5   42331   19602
  -4 -16   4  298058   89087
  -4  16   4  407725   50606
   4  16  -4  369611   44221
   4  16  -4  315869   48937
  -4  16   4  327199   55621
   4  16  -3   77712   23544
   4  16  -3   68407   20639
  -4  16   3   94550   23642
  -4  16   3   62537   22861
  -4  16   2  320449   42162
  -4  16   2  240299   41939
   4  16  -2  363361   45717
   4  16  -1  147940   40146
  -4  16   1  154058   39750
  -4  16   1  139557   44972
  -4  16   1  186781   40303
  -4  16   0  434079   37305
   4  16   0  504053   43101
  -4  16   0  515803   40513
  -4  16   0  437979   42766
  -4  16  -1 2380595  100437
  -4  16  -1 2252284   96698
   4  16   1 2238587  107174
  -4  16  -1 2197756  105489
   4  16   2   93635   27462
   4  16   2   91601   25277
   4  16   2  132993   30496
  -4  16  -2   98496   24922
   4 -16   3 2328649  298527
   4  16   3 2531574  123206
  -4  16  -3 2491055  127217
  -4  16  -3 2508389  116881
   4  16   3 2486470  124234
   4  16   3 2583838  122705
   4  16   4   69829   23317
  -4  16  -4   84949   28476
   4  16   4   73602   24492
   4  16   4   71599   25673
  -4  16  -4   73320   23932
  -4  16  -4   20052   24975
   4  16   5  865189   68558
  -4  16  -5  960821   71246
  -4  16  -5  969747   84932
   4  16   5  882398   67059
   4  16   6  129319   23184
  -4  16  -6  145970   26855
   4  16   7  115001   19863
  -4  16  -7   95486   25902
  -4  16  -7   94574   19696
  -4  16  -8  184480   37328
   4  18  -8  603168   51421
   4  18  -8  277727   52661
   4  18  -7  153694   23979
   4  18  -7  199378   44454
  -4  18   7  124760   25853
   4  18  -6  771101   62197
   4  18  -6  817644   92968
  -4  18   6  651370   69617
   4  18  -5    2766    8321
   4  18  -5   12316   21985
  -4  18   5     424   14152
  -4  18   4  294262   54286
   4  18  -4  336520   47413
   4  18  -4  259363   50938
  -4  18   3   12438    8021
  -4  18   3   18225   18687
   4  18  -3   24300   14419
  -4  18   2  972510   92417
  -4  18   2 1006008   83888
   4  18  -2 1059229   88884
   4  18  -1   18545   17542
  -4  18   1   43850   18668
  -4  18   1   34711   18331
  -4  18   1   45292   15437
  -4  18   1   40216   17454
   4  18   0  853015   72525
  -4  18   0  811540   67165
  -4  18   0  760746   58088
  -4  18   0  790058   71280
  -4  18   0  799335   64697
   4  18   1    1632    9059
  -4  18  -1    1873    6905
  -4  18  -1    1873   10105
  -4  18  -2 1837593   98123
   4  18   2 2079931  109820
  -4  18  -3    3242    9536
   4  18   3    2078    8792
   4  18   4   40240   17217
  -4  18  -4   26831   14832
  -4  18  -5  394901   54070
   4  18   5  318581   40824
  -4  18  -5  363416   44672
  -4  18  -6  263902   44289
  -4  18  -6  247435   34148
   4  18   6  230297   31214
  -4  18  -7   49719   19453
   4  20  -7    3118    4568
   4  20  -6  552805   44716
  -4  20   6  459314   45971
   4  20  -5   30760   14057
  -4  20   5   20670   11788
  -4  20   4  690094   63577
   4  20  -4  783710   60835
  -4  20   3   66236   22580
   4  20  -3   56056   18740
  -4  20   2 1873859  106010
   4  20  -2 2263338  119397
   4  20  -1  690150   63291
   4  20   0    4888    9601
  -4  20   0    1916    5967
   4  20   1  309115   43137
  -4  20  -1  289776   37203
  -4  20  -2  106948   23893
   4  20   2  132142   27855
  -4  20  -3   28929   12575
   4  20   3   24292   11606
  -4  20  -4  674687   56343
   4  20   4  688480   55725
   4  20   5   52762   14556
  -4  20  -5   90721   21125
  -4  20  -6    8153    5555
   4  22  -5   56067   13923
   4  22  -4 2028010   91864
   4  22  -3   35832   16732
   4  22  -2  455895   43887
   4  22  -1  252800   36221
   4  22  -1  252051   40719
   4  22   0  868011   68036
   4  22   1  556820   53854
  -4  22  -1  536551   45084
  -4  22  -2  418109   43288
   4  22   2  510134   51605
   4  22   3  494792   44622
  -4  22  -3  516456   43851
  -4  22  -4 1239257   66360
   4  22   4 1107750   61677
  -4  22  -5   71080   15037
   4  24  -3    1666    5542
   4  24  -2   95703   20650
   4  24  -1  153860   24701
   4  24   0 1052922   57025
   4  24   1  381041   31211
   4  24   2  954423   57262
   5  -1 -11   38131   13977
   5   1 -11   25656    8627
   5  -1 -10   39003   14306
   5   1 -10   82698   25622
   5   1  -9 1077676   83172
  -5   1   9 1076542  150381
   5  -1  -8  951226   65474
   5   1  -8  882291   65938
  -5   1   8  952125   86732
  -5  -1   8 1013341   89990
   5   1  -7   38518   21111
   5  -1  -7   42643   19483
  -5   1   7   33271   23477
  -5  -1   7   66626   29266
  -5   1   6  393504   52750
  -5  -1   6  392204   51834
  -5  -1   6  375157   76351
   5   1  -6  339399   66076
   5  -1  -5   25606   18851
  -5   1   5     918    4078
   5   1  -5   13609   15825
   5   1  -4 1614760   66710
   5  -1  -4 1472482   58876
   5  -1  -3 1264509   59472
   5   1  -3 1235976   65661
   5   1  -2   63215   70606
   5  -1  -2   60991   61576
   5  -1  -110248063  157580
   5   1  -110145660  171062
   5   1   0 3616421   83950
   5  -1   0 3622342  106270
   5  -1   1  372481   47800
   5   1   1  371752   32516
   5   1   2 3287866  310668
   5  -1   2 3571939  377337
   5   1   3 5441223  305381
   5  -1   3 5057369  313948
   5  -1   4  137947  104843
   5   1   4  165471  105045
   5   1   5  103051   47596
  -5   1  -5  104125   12539
  -5  -1  -5   78397    6742
   5  -1   6  147072   83505
  -5  -1  -6  109031   24290
   5   1   6  157570   56214
  -5   1  -6  115067   24962
  -5  -1  -7    7960   17106
  -5   1  -7    3935   16255
  -5   1  -8  939576   91329
  -5  -1  -8  924999   91834
  -5  -1  -9    5212   12364
  -5   1  -9   14042   15435
  -5   1 -10  114576   23285
  -5  -1 -10  102992   23584
  -5   1 -11     803   10074
  -5  -1 -11     846    9013
   5  -3 -11   41386   19361
   5  -3 -10  186038   36764
   5   3 -10  252533   40250
   5   3  -9   15907   10431
   5   3  -9   31052   15680
  -5   3   8  413499   65838
   5   3  -8  431892   54323
   5   3  -8  387907   50840
  -5   3   8  460035  105896
  -5   3   7    4819    8779
  -5  -3   7   10836   22324
   5   3  -7    6280   10928
   5   3  -7    3313    6385
  -5  -3   7     420   10304
  -5   3   6  489558   62844
  -5  -3   6  504100   95695
   5   3  -6  423380   50626
   5   3  -6  456006   83372
  -5  -3   6  449407   59907
   5   3  -5    1028   16456
   5  -3  -4   75793   22740
   5   3  -4   79821   29732
   5  -3  -3  968942   54950
   5   3  -3  961266   79257
  -5   3   3  958340   41356
   5  -3  -2  942072   43550
   5   3  -2 1074550   69667
   5  -3  -1  117228    9592
   5   3  -1   99021    7337
   5   3   0 3017137  103700
   5  -3   0 3682368  229012
   5   3   1 8479978  235460
   5  -3   1 9187050  391078
   5   3   2   56757   43354
   5  -3   2   45101   61677
   5  -3   3 4354053  337538
   5   3   3 3893671  239702
   5  -3   4  921503  165748
   5   3   4  767299  109432
   5   3   5   31636   29521
   5  -3   5   14408   46746
  -5  -3  -5   35885   15850
  -5   3  -5    5948   11889
  -5   3  -5   21947   13009
   5   3   6  160628   65585
   5  -3   6  139602  120909
  -5   3  -6  216257   42463
  -5   3  -6   21822   41628
  -5  -3  -6  204949   43349
  -5  -3  -7   96508   26267
  -5   3  -7   85684   24190
   5  -3   7  176420  110249
  -5   3  -8  130667   32278
  -5  -3  -8   94712   30080
  -5   3  -8  151612   36921
  -5   3  -9   56225   14668
  -5  -3  -9   92036   21589
  -5  -3 -10   25783   13476
  -5   3 -10   79874   23286
  -5  -3 -11   17179   11186
   5  -5 -11   30426   16625
   5  -5 -10   62289   27275
   5   5  -9  106517   29418
   5   5  -9   89988   27672
  -5   5   9   20827   30808
  -5   5   8     168   20858
   5   5  -8   29685   16144
   5   5  -8   58854   19661
  -5   5   8     168   39698
  -5   5   7  582118   67615
   5   5  -7  601844   59222
  -5  -5   7  472226   97998
   5   5  -7  556538   56108
  -5   5   7  532115  108902
  -5   5   6 3074828  119912
  -5  -5   6 2776022  176534
  -5   5   6 2853010  205589
   5   5  -6 3063913  106488
   5   5  -6 3033208  168459
  -5   5   5 6641018  163575
   5   5  -5 6092808  223717
   5   5  -4   83284   26581
   5   5  -3  159404   18898
   5   5  -2      36    9678
   5  -5  -1  245156   51705
   5   5  -1  185101   30312
   5   5   0  140808    8860
   5  -5   0  125430   19240
   5  -5   115803964  428434
   5  -5   2  219156   63472
   5  -5   320080296  589803
   5   5   318694552  376531
   5   5   4 1303072  100920
   5  -5   4 1306635  166272
   5   5   5   23287   14775
  -5   5  -5   45056    9437
   5  -5   5   24555   40182
  -5   5  -5   44752   19934
  -5   5  -5   28120    5474
  -5  -5  -5   30713    7979
   5  -5   6    6854   54537
  -5   5  -6     722   14124
  -5  -5  -6     338   15328
  -5   5  -6     402   17896
  -5   5  -7  347460   47377
  -5  -5  -7  323215   49162
  -5  -5  -8  190209   39369
  -5   5  -8  157288   34559
  -5   5  -9  485105   55730
  -5  -5  -9  481244   60859
  -5   5  -9  552230   61069
  -5  -5 -10  324771   48001
  -5  -5 -11   11843   10017
   5  -7 -11   94866   21849
   5  -7 -10  200370   41601
   5   7 -10  221980   50235
   5   7  -9 1352242  111680
   5   7  -9 1442774  107850
  -5   7   8     444   17154
   5   7  -8     276   15497
   5   7  -8    1305   12299
  -5   7   8   22691   37789
  -5   7   7  965970   97662
   5   7  -7  911758   83862
  -5  -7   7  622053  129173
  -5   7   7  739830  131086
   5   7  -7  872528   81197
   5   7  -6 1835612  152305
  -5   7   6 1843781  105199
  -5  -7   6 1770498  166648
   5   7  -6 1925906   98461
  -5   7   6 1814986  177185
  -5   7   5 1569010   85349
  -5   7   5 1382760   65244
   5   7  -5 1493524  122073
  -5   7   5 1459965  148963
   5   7  -5 1651579   84943
   5   7  -4 1391185  110104
   5   7  -3 1112186   88208
   5   7  -2 7078635  195522
   5  -7  -1  569079   73398
   5   7  -1  497864   43050
   5   7   0  663664   35295
   5  -7   0  680908   55201
   5   7   1 4870023  164761
   5  -7   1 4911244  267537
   5   7   2  154680   36679
   5  -7   2  168497   67540
   5  -7   3 3760680  271134
  -5   7  -4    1346   12653
   5  -7   4     682   42713
  -5   7  -4    7551    6310
  -5   7  -5 2666980  162636
  -5  -7  -5 2493804  127643
   5  -7   5 2412559  303085
  -5   7  -5 2455801   97137
  -5   7  -6   31878   15766
  -5  -7  -6   17354   16810
   5  -7   6   11002   57366
  -5   7  -6   51628   36407
  -5  -7  -7  540479   62559
   5  -7   7  525563  185834
  -5   7  -7  345369   81598
  -5  -7  -8   69607   24143
  -5   7  -9  448316   60957
  -5  -7  -9  451740   64102
  -5   7 -10  476925   50435
  -5  -7 -10  529950   56536
   5  -9 -11   90230   21185
   5  -9 -10  121999   28576
   5   9 -10  182934   41124
   5   9  -9  699228   77985
   5   9  -9  649988   69702
   5  -9  -9  615207   70773
   5   9  -8  472804   63356
   5   9  -8  518304   66128
   5   9  -7  496622   55856
  -5  -9   7  505656  101309
  -5   9   7  613663   69735
   5   9  -7  623986   62505
  -5   9   7  625407  110791
  -5   9   6 2192078  128107
  -5  -9   6 2141953  204276
   5   9  -6 2036232   86187
   5   9  -6 2197634  117094
   5   9  -6 2472935  196818
   5   9  -6 2237799  119549
  -5   9   6 1996531  196279
   5   9  -5  755778  102109
  -5   9   5  777052   69621
  -5   9   5  725535   56165
   5   9  -5  779270   51662
   5   9  -5  800781   67873
  -5   9   5  753890  119870
  -5   9   4 1100748   66269
  -5   9   4 1056385   58428
  -5   9   4  987734  112904
   5   9  -4 1099648  101903
   5   9  -3 3606029  177190
   5   9  -2   57616   40721
   5  -9  -116682398  435555
   5   9  -114848186  294715
   5  -9   0  180024   52121
   5   9   0  173582   35425
   5   9   1 2547368  105530
   5  -9   1 2675912  175280
   5   9   2  994908   72251
   5  -9   2  986371  133094
  -5   9  -3 1640741   79578
  -5   9  -3 1735541  124632
   5  -9   3 1517699  196650
  -5   9  -4    1447    7691
   5  -9   4   17820   36267
  -5  -9  -4    7171    9634
  -5   9  -4    1619   10697
  -5   9  -5 1864928  132649
  -5   9  -5 1767036   79876
  -5  -9  -5 1643931   96487
   5  -9   5 1664912  235398
   5  -9   6  562922  151699
  -5   9  -6  537106   42144
  -5  -9  -6  554627   54772
  -5   9  -6  648666   80487
  -5  -9  -7 2024681  116747
   5  -9   7 1523628  302197
  -5   9  -7 1318072  154589
  -5   9  -8    1959   13803
  -5  -9  -8    8648    8817
  -5   9  -9 1117070   84623
  -5  -9  -9 1026334   79769
  -5   9 -10  203087   32641
  -5  -9 -10  163560   29873
   5 -11 -10  467839   50773
   5  11 -10  667666   81328
   5 -11  -9  345203   49903
   5  11  -9  292157   53976
   5  11  -8  468148   59749
   5  11  -8  438361   61209
   5  11  -7  738352   58524
   5  11  -7  765412   81342
   5  11  -7  830133   86637
  -5  11   6  378898   56238
   5  11  -6  417021   54302
   5  11  -6  451047   88556
   5  11  -6  361413   38961
  -5 -11   6  292692   81212
   5  11  -6  423145   55372
  -5  11   5 1581683  108177
   5  11  -5 1521733   79165
   5  11  -5 1449070   97242
   5  11  -5 1572653  162993
   5  11  -5 1500816  102132
  -5  11   5 1483621   88063
   5  11  -4 2137227   92655
   5  11  -4 2184628  101000
  -5  11   4 2106909   89165
  -5  11   4 2266420  101090
   5  11  -4 2301253  160272
   5  11  -3 1784518  142838
  -5  11   3 1934083   90771
   5  11  -3 1873162   90811
   5  11  -2  711368   92183
   5  11  -2  793884   59638
  -5  11   2  837995   61747
   5  11  -1  406623   34848
   5  11  -1  327608   44334
   5  11  -1  434074   34004
  -5  11   1  436061   32980
   5  11   0    7269   16196
   5  11   0    7726   22628
   5 -11   0      41   21919
   5  11   0   11409   17932
   5  11   1 5583455  143361
   5  11   1 5657675  145311
   5 -11   1 5545927  292124
   5  11   2    3631    7297
  -5  11  -2    6011    8613
  -5  11  -2    7797   11492
   5 -11   2     677   16813
   5  11   2   21758   15381
   5  11   3 5641271  174685
  -5  11  -3 5386062  146368
   5 -11   3 5454709  379909
  -5  11  -3 5550313  233296
  -5  11  -4   17296   25455
  -5  11  -4   50540   21894
   5 -11   4   45287   65414
  -5  11  -5 2221395   98054
   5 -11   5 2017241  282014
  -5 -11  -5 1858904  105223
  -5  11  -6   95853   27764
  -5 -11  -6   70895   27581
   5 -11   6   76365   80464
  -5  11  -6   73807   44562
  -5 -11  -7  488901   58893
  -5  11  -7  284750   86468
  -5 -11  -8  803830   75412
  -5  11  -8 1066696   95251
   5  11   9  347190   38084
  -5 -11  -9  474693   52050
  -5  11  -9  491483   57787
  -5  11 -10  458035   46775
   5  13 -10  307264   55311
   5  13  -9  447229   64299
   5 -13  -9  309745   40770
   5  13  -8  219292   42895
   5  13  -8  203088   44528
   5 -13  -8  184680   36691
   5  13  -7 1252091   75271
   5  13  -7 1252840  100508
   5  13  -7 1301182  109723
   5  13  -6  673055   66162
   5  13  -6  658626   62015
   5  13  -6  688229   50804
  -5 -13   6  498252   94706
   5  13  -6  835646  115136
  -5  13   5  465376   42263
   5  13  -5  461006   37336
   5  13  -5  466448   45657
   5  13  -5  522239   52682
   5  13  -5  514843   78850
   5  13  -4 1584555   96208
   5  13  -4 1759200  105967
   5  13  -4 1874165  171470
  -5  13   4 1785968   99440
  -5  13   3 1897487   87235
   5  13  -3 1897458  138987
   5  13  -3 1769892   87082
   5  13  -3 2000081   90795
  -5  13   2  608821   58908
   5  13  -2  460431   81668
   5  13  -2  512673   54281
   5  13  -2  635029   60387
  -5  13   1 1370346   70909
   5  13  -1 1212950  100841
   5  13  -1 1323265   70298
  -5  13   0   69276   14075
   5  13   0   74441   17448
   5  13   0   63191   16041
  -5  13   0   67510   15643
  -5  13   0   58747   18966
   5  13   1 9329598  220132
   5  13   1 9835237  234849
   5  13   1 9118226  212541
   5 -13   1 8740714  448104
  -5  13  -1 8687306  197797
  -5  13  -1 9380219  192732
  -5  13  -1 8740983  182392
  -5  13  -1 9438167  231150
  -5  13  -2  346395   46520
  -5  13  -2  417973   42821
   5 -13   2  447993  109865
   5  13   2  415782   48007
   5  13   2  392096   49362
  -5  13  -2  265238   62409
   5  13   2  426003   48792
   5  13   3 7120844  190781
   5  13   3 6645590  179719
  -5  13  -3 6724199  165338
  -5  13  -3 6633744  197254
  -5  13  -3 7550535  282762
   5 -13   3 6749161  441611
   5  13   3 7448044  195189
   5  13   4  156283   35871
   5  13   4  124045   30312
  -5  13  -4  147892   32320
   5 -13   4  105377   83049
   5  13   4  123491   32360
  -5  13  -4   95384   53026
  -5  13  -5 1711521   88665
   5  13   5 1724934   87994
   5  13   5 1734367   98678
   5 -13   5 1782883  278944
  -5  13  -5 2213806  174478
   5  13   6  183848   26079
  -5  13  -6  109170   57155
   5  13   6  181676   30934
  -5  13  -6  204233   29952
  -5  13  -6  287069   46150
  -5  13  -7  219097   42521
   5  13   7  202274   32117
   5  13   8  475683   44908
  -5  13  -8  643194   68164
  -5 -13  -8  538680   53311
  -5  13  -9  373096   50485
   5  15  -9   54365   34575
   5  15  -8  308553   33626
  -5  15   8  290976   45707
   5  15  -8  287307   59795
   5  15  -7 1174249   74792
   5  15  -7 1136845   95190
   5  15  -7 1211017  112094
   5  15  -6 1819613   87561
   5  15  -6 1756433  103627
   5  15  -6 1822279  115340
   5  15  -5 8361637  200115
   5  15  -5 7733352  222173
   5  15  -5 8477164  254092
   5  15  -5 8545098  397100
   5  15  -4    9008   22334
   5  15  -4   27488   10543
  -5  15   4   38241   14358
   5  15  -4    9008   13236
   5  15  -3 1317402   86593
  -5  15   3 1308263   85673
   5  15  -3 1372540  137284
   5  15  -3 1123177   80870
  -5  15   2 2086520  101151
   5  15  -2 2121795  104482
  -5  15   1 1587435   91335
  -5  15   1 1419853  104542
   5  15  -1 1470130   90322
  -5  15   0  138241   21032
   5  15   0  160440   25275
  -5  15   0  156840   21391
  -5  15   0  183504   25853
  -5  15   0  155986   29409
   5  15   110713184  244572
   5  15   110624384  234138
  -5  15  -110581120  212761
  -5  15  -1 9859252  200182
  -5  15  -110015807  236932
   5  15   2  491398   55757
  -5  15  -2  551654   52893
   5  15   2  638533   62317
   5 -15   2  410107  118547
   5  15   2  606303   61121
   5  15   312642240  263339
  -5  15  -312825825  245584
   5  15   312305488  257064
  -5  15  -311676670  268577
   5 -15   311976539  662778
   5  15   312289730  259263
   5  15   4 1195452   79524
  -5  15  -4 1239579   76121
   5 -15   4 1038553  207937
   5  15   4 1130773   73542
  -5  15  -4 1216246   87632
   5  15   4 1180172   74771
   5  15   5  322831   35733
  -5  15  -5  369824   50227
  -5  15  -5  310458   37024
   5  15   5  355991   41327
   5  15   6  449327   49263
  -5  15  -6  495948   49693
  -5  15  -6  554048   67254
   5  15   7  680444   56511
  -5  15  -7  859064   83410
  -5  15  -8  689924   69268
   5  15   8  445459   38468
  -5  15  -9  735862   63782
  -5  17   8  449674   46108
   5  17  -8  494901   70210
   5  17  -8  534596   39444
  -5  17   7  491972   60061
   5  17  -7  571583   77761
   5  17  -7  588907   49562
  -5  17   6  101470   34996
   5  17  -6   85005   35494
   5  17  -6  126333   28066
   5  17  -5  178536   32528
   5  17  -5  131664   35165
  -5  17   5  106941   33252
  -5  17   4  855572   77115
   5  17  -4  850124   71349
   5  17  -4  790228   80056
  -5  17   4  747373   87131
  -5  17   3 1045751   94914
  -5  17   3 1255252   89930
   5  17  -3 1169619   89487
  -5  17   2  375318   49002
  -5  17   2  299874   50971
   5  17  -2  358983   49223
  -5  17   1 3005066  124199
  -5  17   1 2811007  134685
   5  17  -1 3278959  134368
  -5  17   0   91397   22573
  -5  17   0   83558   22525
  -5  17   0   85806   24279
  -5  17   0   80343   26062
   5  17   0  102456   26957
  -5  17  -1 1189787   70611
  -5  17  -1 1229605   73504
   5  17   1 1239717   81089
   5  17   2  955183   78636
  -5  17  -2  952694   70761
   5  17   2  935125   76368
  -5  17  -3 1381873   87128
   5  17   3 1417613   92086
   5  17   3 1393173   92311
   5  17   4  256837   34521
  -5  17  -4  306482   39534
  -5  17  -4  278582   40977
   5  17   4  297427   39398
  -5  17  -5 1659507   93005
  -5  17  -5 1772974  115264
   5  17   5 1371269   79665
   5  17   5 1613008   93162
   5  17   6  109563   24465
  -5  17  -6  123934   25124
  -5  17  -6  130184   34325
  -5  17  -7 1221804   89048
   5  17   7  909832   54329
  -5  17  -8  172869   31605
   5  19  -7  319413   31062
  -5  19   7  289792   35285
   5  19  -7  241689   51563
   5  19  -6   23855   12849
   5  19  -6   37896   18420
  -5  19   6   26955   16646
   5  19  -5 1416483   84875
   5  19  -5 1330370  106801
  -5  19   5 1264186   97044
   5  19  -4  483760   49788
  -5  19   4  418008   55136
   5  19  -3  501588   54189
  -5  19   3  381705   55395
   5  19  -2   78136   27025
  -5  19   2   76183   24154
  -5  19   2   68529   23869
   5  19  -1 1370845   91332
  -5  19   1 1262029   82309
  -5  19   1 1229530   86797
  -5  19   0   16771   12226
  -5  19   0   16216   12747
   5  19   0    8769   11755
  -5  19  -1 1059694   70870
   5  19   1 1140611   82029
  -5  19  -2  408802   40409
   5  19   2  399062   42679
   5  19   3   67166   17180
  -5  19  -3   65352   17020
   5  19   4    5763   10738
  -5  19  -4    8762    8297
  -5  19  -5  598149   52354
  -5  19  -5  539949   57363
   5  19   5  493265   46564
   5  19   6    1883    8770
  -5  19  -6    5629    7191
  -5  21   6   46297   12379
   5  21  -6   59169   13164
   5  21  -5     717    7839
  -5  21   5   10420    8035
   5  21  -4   31517   15478
  -5  21   4   44211   18647
   5  21  -3  854412   61249
  -5  21   3  766419   63383
  -5  21   2  111336   25818
   5  21  -2  144658   27216
   5  21  -1 1899561  109728
   5  21   0    3035   10697
  -5  21  -1   68595   16853
   5  21   1   83214   23660
   5  21   2    1007    9505
  -5  21  -2    1878    8399
   5  21   3    1994    7059
  -5  21  -3    2143   10254
   5  21   4   21328   10706
  -5  21  -4      15    6855
  -5  21  -5 1298379   66062
   5  21   5 1035911   56778
   5  23  -4    4542    7075
   5  23  -3  403940   40338
   5  23  -2  389800   40465
   5  23  -1  702127   52426
   5  23   0  112007   24404
   5  23   0   82492   17068
   5  23   1    8002   12677
   5  23   2   23359    6770
  -5  23  -2   10460    5794
   5  23   3   18164   11026
  -5  23  -3   26221   12230
  -5  23  -4  114959   18399
   6   0 -11 1004002   77571
   6   0 -10 1022242   84947
   6   0  -9 3970580  146138
   6   0  -8    1470   15529
  -6   0   8    1470   14711
  -6   0   7 1000676   64047
   6   0  -7  925534   49875
  -6   0   6 2648900  106842
   6   0  -6 2676407  142027
   6   0  -5   11955   26609
   6   0  -4  115777    8102
   6   0  -314915982  253428
   6   0  -2 1822419   75545
   6   0  -1 1707782   23807
   6   0   023412360  388784
   6   0   1  788813  199038
   6   0   2  469733  122993
   6   0   3 8927552  302969
   6   0   4 6717876  416881
  -6   0  -5  710081   75173
   6   0   5  923743  218121
  -6   0  -6 5997659  184247
   6   0   6 6114996  459842
  -6   0  -7  642950   69232
   6   0   7  530999  144447
  -6   0  -8  111291   31065
  -6   0  -9   85482   29305
  -6   0 -10 2411022  127327
  -6   0 -11   36289   14624
   6  -2 -11  295517   43992
   6  -2 -10     725   14379
   6   2 -10   11810   12579
   6   2  -9  762473   68367
  -6   2   9  711169  120286
  -6  -2   8  203044   45255
  -6   2   8  224945   46815
   6   2  -8  196942   35339
  -6  -2   7 1679292  108445
   6   2  -7 1606431   86107
  -6   2   7 1633952  106355
   6   2  -6 3496815  112723
  -6   2   6 3826322  136805
   6   2  -6 3434571  176444
  -6  -2   6 3562677  131265
  -6  -2   6 3471382  191725
   6  -2  -5 7501275  220626
   6   2  -5 6860654  236144
   6  -2  -4    1389    7122
   6   2  -4     284    8361
   6  -2  -3 3022856  109378
   6   2  -3 2957448  133050
   6   2  -2  522547   41964
   6  -2  -2  487923   31442
   6  -2  -1 7723905  223115
   6   2  -1 7638298  212453
   6  -2   0 9318419  374709
   6  -2   1  202737  120906
   6   2   1   79033   55937
   6   2   2 7576048  286989
   6  -2   2 9111747  474364
   6  -2   3  240721  159728
   6   2   3  221922  112301
   6  -2   4 2668771  273390
   6   2   4 2607421  194098
  -6  -2  -5  535524   57406
  -6   2  -5  550302   54882
   6  -2   5  589833  182287
   6   2   5  503483  114557
   6   2   6 2529893  259845
  -6   2  -6 2566291  132816
   6  -2   6 2606207  388569
  -6  -2  -6 2568368  137017
  -6   2  -7   93730   31940
   6  -2   7  129498  107050
  -6  -2  -7   83530   35444
  -6   2  -7   73886   30805
  -6  -2  -8 1586704  119038
  -6   2  -8 1600721  102656
  -6   2  -8 1582158  117121
  -6  -2  -9   41871   16291
  -6   2  -9    2232   12343
  -6  -2 -10 1129425   94855
  -6   2 -10 1119029   92894
  -6  -2 -11  105934   24039
   6  -4 -11  219459   37151
   6  -4 -10     107   20288
   6   4  -9  161639   32551
  -6   4   9   99689   45314
   6   4  -9  190618   38071
   6   4  -9  204112   35718
  -6   4   8  192112   40603
   6   4  -8  201607   34076
  -6   4   8  157106   59086
   6   4  -8  197455   33297
  -6  -4   7 2201721  129661
  -6   4   7 2322702  133693
   6   4  -7 2161088  112222
  -6  -4   7 1934812  186875
   6   4  -7 2153873  176624
   6   4  -7 2175281  109068
  -6  -4   6 1001952   77301
  -6   4   6 1055119   80259
   6   4  -6 1068573  113201
   6   4  -6 1048423   71286
  -6   4   5 7052920  179939
   6   4  -5 6290104  241316
   6   4  -4 1277240  115567
   6  -4  -4 1382412   82375
   6  -4  -311854924  151911
   6   4  -311664922  248578
   6   4  -2  638073   49503
   6  -4  -2  570813   27692
   6   4  -1  178008   29875
   6  -4  -1  200025   39586
   6   4   011524589  215314
   6  -4   013698142  480356
   6  -4   1     443   37621
   6   4   2 5125768  197868
   6  -4   2 4957936  317938
   6   4   3 2930226  146844
   6  -4   3 2993836  239626
   6   4   4 8493771  324826
   6  -4   4 9204283  544775
  -6   4  -5 2278124   98705
  -6  -4  -5 2553224  114068
   6   4   5 2273514  166307
   6  -4   5 2075969  277057
   6  -4   6 1098982  242611
  -6   4  -6  920014   67107
  -6  -4  -6  922604   71966
  -6  -4  -7  288569   48180
   6  -4   7  414455  170204
  -6   4  -7  321375   47499
  -6   4  -8 2410606  125878
  -6   4  -8 2503661  136511
  -6  -4  -8 2278039  134388
  -6   4  -9   32389   14437
  -6  -4  -9   29928   17594
  -6  -4 -10  598744   67188
  -6   4 -10  662615   66060
  -6  -4 -11   74468   19259
   6  -6 -11  103012   24964
   6   6 -10   61167   23392
   6  -6 -10   50943   20650
   6   6  -9  117594   30139
   6   6  -9   84754   25604
  -6   6   9   62138   37324
  -6   6   8   57500   26009
   6   6  -8   48756   17254
   6   6  -8   45051   15759
   6   6  -7 3256200  137911
  -6   6   7 3287478  159652
   6   6  -7 3248029  219958
  -6   6   7 3267850  262609
  -6  -6   7 2740480  226676
   6   6  -7 3063364  136855
  -6   6   6  150394   38736
   6   6  -6  163805   56159
   6   6  -6  172709   37249
  -6   6   6  114072   64228
  -6   6   5 3450042  128076
  -6   6   5 4092411  260932
   6   6  -5 4187909  203550
   6   6  -4  159172   29713
   6   6  -3 9371645  273535
   6   6  -2  629507   53678
   6   6  -1  616946   59448
   6  -6  -1  705235  100290
   6   6   0 8889102  214955
   6  -6   010298536  434210
   6   6   1  776331   58251
   6  -6   1  909023  114188
   6  -6   2 3843634  254000
   6  -6   3  135695   35213
  -6   6  -4   39249   10273
  -6   6  -4   31530   18526
  -6   6  -5  137048   29191
  -6  -6  -5  138150   37042
  -6   6  -5  130375   56758
  -6   6  -5  155159   34609
  -6  -6  -6 2477629  126123
  -6   6  -6 2583978  117016
  -6   6  -7    7127    9223
  -6  -6  -7   16846   12651
   6  -6   7   63702   80837
  -6  -6  -8 2693905  153355
  -6   6  -8 2819790  150380
  -6  -6  -9      60   15440
  -6   6  -9   12064   16119
  -6   6 -10  152341   26781
  -6  -6 -10  213212   36128
   6  -8 -11   67164   19606
   6  -8 -10     423   13351
   6   8 -10   22080   17812
   6   8  -9     526   13745
   6   8  -9    9961   16602
   6   8  -8  217543   39374
  -6   8   8  213767   67983
   6   8  -8  196309   36186
  -6   8   8  168861   39754
  -6   8   7 1236103   88559
   6   8  -7 1250346   80477
  -6  -8   7 1046830  125482
   6   8  -7 1082638  116826
  -6   8   7 1244907  139582
   6   8  -7 1307460   81330
  -6   8   6   47565   14172
  -6   8   6   35333   17879
  -6   8   6   26438   31588
   6   8  -6   46409   26745
   6   8  -6   45618   17567
  -6   8   5 1961019   81285
   6   8  -5 2046596   72959
  -6   8   5 1942193  173910
  -6   8   5 2078253  101258
   6   8  -5 1990085  147013
  -6   8   4    9846   22559
  -6   8   4   11935    5384
   6   8  -4   45398   20307
  -6   8   4   26937    7355
   6   8  -3 1142901  106986
   6   8  -2   47243   30521
   6  -8  -110195400  427549
   6   8  -1 7841050  225226
   6  -8   0 4207864  285061
   6   8   0 3704519  155389
   6   8   1 2703538  105339
   6  -8   1 2667168  186245
   6   8   2  629619   57331
   6  -8   2  527097   98599
  -6   8  -3    6124    5231
   6  -8   3    6778   26686
   6  -8   4  527540  105016
  -6   8  -4  669738   38330
  -6   8  -4  618090   62619
  -6  -8  -4  531486   41386
  -6  -8  -5   73025   19085
  -6   8  -5   96121   18104
   6  -8   5   36169   52518
  -6   8  -5   72982   32148
  -6  -8  -6  691780   80293
   6  -8   6  819802  246975
  -6   8  -6  678487   61442
  -6  -8  -7  681463   75512
   6  -8   7  380741  174765
  -6  -8  -8  948604   91918
  -6   8  -8 1124051  100624
  -6  -8  -9   37064   15097
  -6   8  -9   73631   23353
  -6   8 -10   53067   19884
  -6  -8 -10   44043   20678
   6  10 -10      85   14373
   6 -10 -10    3776   10258
   6  10  -9 1154002  100570
   6 -10  -9  932003   85751
   6  10  -9 1152731   92420
   6  10  -8  340311   55835
   6  10  -8  340145   56446
  -6  10   7  209838   47625
   6  10  -7  171910   39121
   6  10  -7  173559   37264
   6  10  -7  170456   62505
  -6 -10   7  100760   55735
  -6  10   6   98823   22426
  -6  10   6   65474   13239
   6  10  -6  159581   28419
  -6  10   6   77128   35532
   6  10  -6  116185   23497
   6  10  -6   83814   14763
   6  10  -6   84245   29471
  -6  10   5   46801   17606
   6  10  -5   56320   30710
  -6  10   5   72787   25309
   6  10  -5   55523   17574
  -6  10   5   48506   40329
   6  10  -5   63858   23942
  -6  10   4  123302   24744
  -6  10   4  113909   21371
   6  10  -4  121672   23480
  -6  10   4  121123   45910
   6  10  -4  117452   37492
  -6  10   3  155325   21428
   6  10  -3  172917   23457
   6  10  -3  115187   28375
   6  10  -2  487308   59824
  -6  10   2  550733   37633
   6  10  -1  265025   45130
   6 -10   0 1836538  199955
   6  10   0 1654851  116767
   6  10   1 1613996   94964
   6 -10   1 1645010  170542
  -6  10  -2  832150   62920
  -6  10  -2  944784   51508
   6 -10   2 1009982  143603
   6  10   2  924721   69952
  -6  10  -3  100426   20526
   6 -10   3  171162   69477
  -6  10  -3  106077   36351
  -6  10  -4  288967   31133
   6 -10   4  275260   76299
  -6  10  -4  384903   60650
  -6 -10  -4  319948   37401
  -6  10  -5   82445   17261
  -6 -10  -5   66055   14920
  -6  10  -5   32835   17215
  -6  10  -6  865405   61311
   6 -10   6  748259  213773
  -6  10  -6  496513   95121
  -6 -10  -6  804807   72959
  -6  10  -7    7430   14495
  -6 -10  -7    4769   10326
  -6  10  -8   96337   32890
  -6 -10  -8   52519   21839
  -6 -10  -9     602    7146
  -6  10  -9     649   15541
  -6  10 -10  127791   25144
  -6 -10 -10  168600   26457
   6 -12 -10  151530   27706
   6  12 -10  250992   48379
   6  12  -9   91168   32424
   6 -12  -9   92832   28660
   6  12  -8   13848   11484
   6  12  -8   33112   21509
   6  12  -7     160   10396
   6  12  -7    1462    8115
   6  12  -7     160   15200
  -6  12   6  107074   31651
   6  12  -6   80239   26021
   6  12  -6  159205   56184
   6  12  -6  110226   30400
   6  12  -6   84414   20811
  -6 -12   6   65695   43291
  -6  12   5  127649   31707
  -6  12   5  108532   25580
   6  12  -5  119191   29439
   6  12  -5   77829   36359
   6  12  -5  106718   28977
   6  12  -5  110571   23166
   6  12  -4  121387   19819
   6  12  -4  133190   33123
  -6  12   4  126460   19044
   6  12  -4  122781   21204
   6  12  -3 1828359  171298
  -6  12   3 1994566  108035
   6  12  -3 1871372  107615
   6  12  -2  339913   53993
  -6  12   2  400244   36002
   6  12  -2  359223   34406
   6  12  -1   93908   18894
  -6  12   1   53348    4860
   6  12  -1   61715    7249
   6  12  -1   66748   10746
   6  12   0    5527   15524
  -6  12   0     142    4866
  -6  12   0     873    5375
   6  12   0    1211   10223
   6  12   0     129    8069
  -6  12   0    5016   14713
   6  12   1  524978   56541
  -6  12  -1  549852   51596
  -6  12  -1  499397   61013
  -6  12  -1  490795   47237
   6  12   1  596630   62063
   6  12   1  533914   58493
   6 -12   1  477962  129613
  -6  12  -1  555394   62006
   6  12   2  782875   56147
  -6  12  -2  697707   57689
  -6  12  -2  840616   48916
  -6  12  -2  763032   48909
   6 -12   2  743209  132553
   6  12   2  860463   59604
   6  12   2  788623   57709
   6  12   3  103161   24284
   6  12   3   88211   22059
  -6  12  -3   88590   25699
  -6  12  -3   95765   20753
   6 -12   3   92307   60918
  -6  12  -3   40416   28361
  -6  12  -4  109160   35896
   6 -12   4  104663   82682
  -6  12  -4   50138   47695
  -6  12  -4  100936   29098
  -6  12  -5    9107   12895
   6 -12   5    1452   45970
  -6  12  -5   21736   15395
  -6  12  -5    4640   23350
  -6  12  -6   46741   22500
  -6 -12  -6   18514   11490
  -6  12  -6   47316   18649
  -6  12  -7  357652   50654
  -6 -12  -7  322928   40748
   6  12   8    1174    7091
  -6 -12  -8    9227    9707
  -6  12  -8   17352   16939
   6  12   9   20189   11978
  -6  12  -9   17440   17087
  -6 -12  -9   24778   13186
  -6  14   9   75112   16228
   6 -14  -9    3797    8941
   6  14  -9   54195   22319
   6  14  -8  241558   43396
   6 -14  -8  173715   33562
   6  14  -8  275121   51938
   6  14  -7  358894   39318
   6  14  -7  303977   47558
   6  14  -7  388311   58125
   6  14  -6   42769   14104
   6  14  -6   33795   14261
   6  14  -6   39301   20104
   6  14  -5   78057   23905
   6  14  -5   93004   21426
  -6  14   5   56075   16872
   6  14  -5   76748   36623
   6  14  -5   61437   24127
  -6  14   4 1602139   99094
   6  14  -4 1391340   91006
   6  14  -4 1505725  102522
   6  14  -4 1441377  158628
   6  14  -3    6705   11574
   6  14  -3    6000   16930
  -6  14   3    2637    7693
   6  14  -3    6000    8313
   6  14  -2  277668   61384
  -6  14   2  254513   38643
   6  14  -2  167882   33865
   6  14  -2  225554   37237
  -6  14   1    2341   15134
  -6  14   1   10715   13194
   6  14  -1    3539   10575
   6  14   0  288413   43872
  -6  14   0  253240   32743
  -6  14   0  300999   40314
  -6  14   0  261516   46175
   6  14   0  279947   41213
   6  14   1    2247    8906
   6  14   1     349    7877
  -6  14  -1    2062   10160
  -6  14  -1     236    7424
  -6  14  -1    1656    5840
   6  14   2  186625   26781
  -6  14  -2  105020   20656
   6  14   2  155377   24965
  -6  14  -2  157064   22904
   6 -14   2  135873   60486
   6  14   2  116652   21330
   6  14   3   98132   29080
   6  14   3  133881   32150
  -6  14  -3  134838   29344
  -6  14  -3   86394   29944
   6 -14   3   83474   74172
   6  14   3  136968   31133
  -6  14  -4 2549234  112134
   6 -14   4 2407214  342589
  -6  14  -4 2502090  135265
   6  14   4 2603795  125009
   6  14   4 2543898  116398
   6  14   5  234730   38875
   6  14   5  245977   36987
  -6  14  -5  241011   45325
  -6  14  -5  259247   37998
   6  14   6  629467   58603
  -6  14  -6  657380   54074
   6  14   6  615185   49916
  -6  14  -6  754505   75630
   6  14   7    1873   10333
  -6  14  -7    7582   14548
  -6  14  -8   39343   18981
   6  14   8   11629   10709
  -6  14  -9   11025   10898
   6  16  -9   53127   21270
   6  16  -8  357917   52573
  -6  16   8  344483   40641
   6  16  -7   92608   20313
   6  16  -7   64842   28612
   6  16  -6 2198818  104544
   6  16  -6 2108844  119930
   6  16  -6 2210484  137557
   6  16  -5  654066   59714
   6  16  -5  693835   76476
  -6  16   4   53980   26451
   6  16  -4   42895   20674
   6  16  -4   32149   22770
   6  16  -3   82349   24439
  -6  16   3   24777   16116
   6  16  -3   53618   20368
  -6  16   3   63174   21570
   6  16  -2   54890   19621
  -6  16   2   88202   22506
  -6  16   2   76146   26890
  -6  16   1  276626   44558
  -6  16   1  252892   50416
   6  16  -1  282458   46273
  -6  16   0  318627   32131
  -6  16   0  344298   38514
  -6  16   0  334826   43236
   6  16   0  393098   43108
   6  16   1   77292   25068
  -6  16  -1   79977   21598
  -6  16  -1   69240   23239
  -6  16  -1   80968   21205
   6  16   1   34478   17297
   6  16   2  377737   49297
  -6  16  -2  353384   42475
   6  16   2  354964   47706
   6  16   3   53869   19730
   6  16   3   41084   15453
  -6  16  -3   37940   20262
  -6  16  -3   53551   17824
   6  16   4 1920556  102211
  -6  16  -4 2042953  103443
  -6  16  -4 2026040  120482
   6  16   4 1982874  107347
   6  16   5   33606   13306
  -6  16  -5   48517   17443
   6  16   5   47643   15021
  -6  16  -5   37911   16933
   6  16   6   90877   20927
  -6  16  -6   87096   29451
  -6  16  -6   81351   21643
   6  16   7     586    6782
  -6  16  -7    3070   12769
   6  16   8     196    3753
  -6  16  -8     176   10060
   6  18  -8   35414   20083
   6  18  -7  257878   29663
  -6  18   7  223590   35679
   6  18  -7  180190   43943
   6  18  -6 1330091   73600
  -6  18   6 1092483   85638
   6  18  -6 1084402   93169
   6  18  -5  192617   30422
   6  18  -5  183720   36524
  -6  18   5  125838   33641
  -6  18   4   63425   23026
   6  18  -4   65676   21408
  -6  18   4   58764   28042
   6  18  -4  106534   30620
  -6  18   3  148580   28070
   6  18  -3  232393   37833
  -6  18   3  124752   27701
   6  18  -2   32687   16733
  -6  18   2   18933    7969
  -6  18   2    5931   13429
  -6  18   1 1077190   78593
  -6  18   1  956501   80120
   6  18  -1 1170438   85354
   6  18   0   37755   22206
  -6  18   0   42353   17480
  -6  18   0   31624   16938
  -6  18   0   39917   20025
   6  18   1   38821   15770
  -6  18  -1   13081    8114
  -6  18  -1    4111    9345
  -6  18  -2   37110   14783
   6  18   2   27955   16251
  -6  18  -3 1421873   86564
   6  18   3 1390725   89817
  -6  18  -4 1072891   83463
  -6  18  -4  977815   69087
   6  18   4  966249   69508
   6  18   4 1003644   72672
   6  18   5   74530   20699
  -6  18  -5  102667   28962
  -6  18  -5   91966   23177
  -6  18  -6  476409   43726
  -6  18  -6  486287   56609
   6  18   6  376254   37415
  -6  18  -7  121029   29715
   6  18   7   84679   15380
   6  20  -6      77   11733
  -6  20   6    3826    8282
   6  20  -5  476383   46469
  -6  20   5  411630   51323
   6  20  -4 1029063   69920
  -6  20   4  881694   76847
   6  20  -3 4096637  149320
  -6  20   3 3632488  161108
   6  20  -2   21028   19393
  -6  20   2   19250   14756
  -6  20   2    6582   13051
  -6  20   1  267713   43201
  -6  20   1  229704   42404
   6  20  -1  289731   48668
   6  20   0   36674   15132
  -6  20   0    6928    6302
   6  20   1    4799    9975
  -6  20  -1    5675    8419
  -6  20  -2  961460   65144
   6  20   2  919242   69765
   6  20   3  143151   26662
  -6  20  -3  150550   26485
  -6  20  -4  889552   59715
   6  20   4  896586   61361
  -6  20  -5  399481   40559
   6  20   5  330339   36667
   6  20   6  340242   29833
   6  22  -5 1391429   66782
  -6  22   5 1316648   71024
   6  22  -4  401903   39556
  -6  22   4  367581   41173
   6  22  -3 2505473  104447
   6  22  -2  141893   28296
   6  22  -1  172734   35010
   6  22   0 1041791   75911
   6  22   1   80712   20374
  -6  22  -2 1336649   68695
   6  22   2 1610137   88287
  -6  22  -3  234626   28587
   6  22   3  198603   28545
  -6  22  -4  559354   43015
   6  22   4  543941   44208
   6  24  -3 1065404   56132
   6  24  -2  312643   30288
   6  24  -1  104891   17901
   6  24   0  855331   53267
   6  24   1  310042   29742
   6  24   1  369136   38362
   6  24   2 1389368   67338
   7  -1 -11   74206   23355
   7   1 -11   58059   22348
   7  -1 -10    1064   13533
  -7  -1  10   22898   32586
   7   1 -10    2661   17933
   7   1  -9 1790971  110387
  -7  -1   8   47067   28789
  -7   1   8   66036   31426
   7  -1  -8   45648   20767
   7   1  -8   38999   21963
  -7  -1   7   37097   15857
  -7   1   7   47819   19061
  -7  -1   6  676454   66695
  -7   1   6  677460   67020
   7   1  -6  587618   53693
   7  -1  -6  667943   85382
   7   1  -6  616664   86368
   7  -1  -5   12896    6714
   7   1  -5   18718   16792
   7  -1  -4  698283   53088
   7   1  -4  643567   55685
   7  -1  -3    5965   26132
   7   1  -3    2717   30468
   7  -1  -2  422042   48184
   7   1  -2  421580   53923
   7  -1  -123524561  356088
   7   1  -123946110  370337
   7   1   0 1049899  130488
   7  -1   0  953772  147144
   7  -1   1  198969   80531
   7   1   1  211540   64610
   7   1   2  144148   33970
   7  -1   2  272204   74137
   7  -1   3  373133   72168
   7   1   3  389488   62650
   7   1   4  446845  130266
   7  -1   4  523242  169717
  -7   1  -5   18259   18208
   7  -1   5   27363   79834
   7   1   5   28222   52768
  -7  -1  -5    9522   17748
  -7   1  -5   10771   17577
  -7   1  -6  334265   53110
  -7  -1  -6  315377   59748
   7   1   6  305104  125118
   7  -1   6  433834  170937
  -7   1  -6  328975   58987
   7  -1   7   10244   37622
  -7  -1  -7   42551   20681
  -7   1  -7   27410   14968
  -7   1  -7   35107   16899
  -7   1  -8  327742   49973
  -7  -1  -8  288058   48145
  -7  -1  -9     971   11210
  -7   1  -9     765   16700
  -7   1 -10   29397   13098
  -7  -1 -10   47470   20785
  -7  -1 -11   25266    9772
   7  -3 -11  198313   35587
   7   3 -10   58503   21279
   7  -3 -10   73184   25263
  -7   3  10   64990   36526
  -7   3   9  504208   72740
   7   3  -9  530525   60759
  -7   3   9  431482  100219
   7   3  -8     904   13075
  -7  -3   8     904   17205
  -7   3   8   30064   21438
   7   3  -8    4076    9440
  -7   3   8   19369   26677
  -7  -3   7   12799   10330
  -7   3   7   35155   15474
   7   3  -7   36738   20365
   7   3  -7   46772   13867
  -7  -3   6  798738   65017
   7   3  -6  904633   97393
  -7   3   6  917744   71174
  -7   3   5  125114   13784
  -7   3   5  101826   16343
   7   3  -5  150966   24962
   7  -3  -5  152616   17827
   7   3  -4 1682382   98445
   7  -3  -4 1683498   74793
   7  -3  -3  187106   38571
   7   3  -3  226809   55083
   7  -3  -2 1155083   46590
   7   3  -2 1227420   67178
   7   3  -1 5448071  140912
   7  -3  -1 5373669  154370
   7  -3   0 3724015  215339
   7   3   1 1355131   81965
   7  -3   1 1757526  179469
   7  -3   2 5158055  354484
   7   3   2 4261335  179868
   7  -3   3 3461874  300800
   7   3   3 3365620  182337
   7  -3   4   52283   70151
   7   3   4    4961   24842
  -7  -3  -5  167535   36711
  -7   3  -5  145858   32403
   7   3   5  100025   51993
   7  -3   5  109372  106816
  -7   3  -6  318760   42344
   7  -3   6  342984  139827
  -7   3  -6  330309   43485
   7   3   6  304565   68648
  -7  -3  -6  297364   43307
  -7   3  -7   22116    9565
  -7  -3  -7    1326   14001
   7  -3   7    1494   46539
  -7   3  -7    1494   10093
  -7   3  -8    9833   14393
  -7   3  -8    1621    9824
  -7  -3  -8    1461   19079
  -7   3  -9   30467   18870
  -7  -3  -9     549   12183
  -7  -3 -10    1014   11662
  -7   3 -10    2738    9623
  -7  -3 -11   14474    9751
   7  -5 -11   30597   12368
   7   5 -10  151978   28432
  -7   5  10   81428   36233
   7  -5 -10  102203   27873
   7   5  -9   36978   14136
  -7   5   9    1226   31305
   7   5  -9   48717   20193
  -7   5   8  152420   35571
   7   5  -8  181516   33713
  -7   5   8   59158   33510
   7   5  -8  137271   28623
  -7   5   7  150586   72183
   7   5  -7  150666   52631
   7   5  -7  144586   31280
  -7   5   7  140961   37060
  -7  -5   7   62826   43358
  -7   5   6 2958903  132064
   7   5  -6 3260238  128001
   7   5  -6 3010302  191162
  -7   5   5  427929   37140
  -7   5   5  276271   32365
   7   5  -5  391786   51234
   7   5  -4  621598   86213
   7   5  -3   72705   27687
   7  -5  -2   96208   20089
   7   5  -2  150135   42511
   7  -5  -1  234765   66284
   7   5  -1  186014   49308
   7   5   0 2761019   96645
   7  -5   0 3585933  235303
   7  -5   1 5783740  372378
   7  -5   223768909  775009
   7  -5   3 2055695  215575
   7   5   3 1830757  112282
  -7   5  -4   69726   24162
   7   5   4   63721   44587
   7  -5   4   37084   97266
  -7  -5  -4   43532   29223
  -7   5  -4    4097   34077
   7   5   5     301   12482
  -7   5  -5   16881   10372
  -7  -5  -5    2517    9369
  -7   5  -5     342   20895
  -7   5  -6   83484   35294
   7  -5   6   70518  109492
  -7  -5  -6   67518   35006
  -7   5  -7   64422   29212
  -7   5  -7   75223   28969
  -7  -5  -7   54790   27072
  -7   5  -8   63084   23587
  -7   5  -8   20991   12283
  -7  -5  -8   50026   17403
  -7   5  -9 1047772   90825
  -7   5  -9  894332   80882
  -7  -5  -9  956602   91464
  -7  -5 -10   21611   12518
   7  -7 -11  169664   29160
   7  -7 -10  116757   31226
   7   7 -10  159675   34866
   7   7  -9    3921   13204
   7   7  -9   12784   15264
  -7   7   9    8023   20012
  -7   7   8  794633   84619
   7   7  -8  817986   72873
   7   7  -8  732827   68044
  -7   7   8  829348  127655
  -7   7   7   33120   19668
   7   7  -7   86560   27171
   7   7  -7   93185   41683
  -7   7   7   27004   29849
   7   7  -7   86969   24709
  -7  -7   7   39516   31649
  -7   7   6 1042129   78331
  -7   7   6  961352  135940
   7   7  -6 1044484   72942
   7   7  -6 1000110  110355
  -7   7   5 1091982   71677
  -7   7   5  962098   54369
   7   7  -5 1123557  107185
  -7   7   5  983272  127420
   7   7  -4 3682173  192410
  -7   7   4 3727194  242327
   7   7  -3  270108   55568
   7   7  -2  427599   55335
   7   7  -1 6640962  226074
   7  -7  -1 9156200  387519
   7  -7   0 2080751  176441
   7   7   0 1852707   77988
   7  -7   1    9240   26649
   7   7   1    3331    9078
   7  -7   2 4578102  300980
   7  -7   3   52387   40662
  -7   7  -4 1971665   85508
   7  -7   4 1775260  275822
  -7   7  -4 1569783  146507
  -7  -7  -4 1960158  109820
  -7  -7  -5  124353   30572
  -7   7  -5  122436   22910
   7  -7   6 1289407  296661
  -7  -7  -6 1021479   87471
  -7   7  -7  328877   61948
  -7  -7  -7  272023   56894
   7  -7   7  211690  163137
  -7   7  -8  260027   40814
  -7  -7  -8  234457   38174
  -7   7  -9 1311489   96694
  -7  -7  -9 1361970  102191
  -7   7 -10   19827    8948
  -7  -7 -10   29913   12193
   7  -9 -11  310351   37762
   7  -9 -10  204721   37105
   7   9 -10  254628   47827
   7   9  -9  375424   48115
   7   9  -9  412584   52794
  -7   9   8  112544   29997
   7   9  -8  125208   27556
   7   9  -8  102294   23222
  -7   9   7 1032746   95186
   7   9  -7 1045293   86366
   7   9  -7 1089672   87629
  -7  -9   7  955439  144154
  -7   9   7  955135  145083
   7   9  -7 1030462  137156
  -7   9   6  239537   52527
   7   9  -6  219881   72578
  -7   9   6  189691   36402
  -7   9   6  249781   88140
   7   9  -6  289453   53032
  -7   9   5  520715   52176
  -7   9   5  490510   43351
   7   9  -5  492017   38027
  -7   9   5  514287   93747
   7   9  -5  494279   76874
   7   9  -4 6571560  273777
  -7   9   4 6817929  177406
  -7   9   4 6494837  154521
  -7   9   4 6708333  326320
  -7   9   4 7117320  188303
   7   9  -4 6608055  162890
   7   9  -3   25377   15211
  -7   9   3   49795   24527
  -7   9   3   34248   10227
   7   9  -2 1612349  123781
   7   9  -1 1103221   82891
   7  -9   0 6019557  390726
   7   9   0 4973854  183360
   7  -9   1  251491   99126
   7   9   1  200897   43531
   7   9   2 1979447  114800
   7  -9   2 1936525  232495
  -7   9  -3   20933    8818
  -7   9  -3    1322   10445
   7  -9   3   15441   34309
  -7   9  -3    1322   16083
   7   9   3    8077    5060
  -7   9  -4 3124975  110674
   7  -9   4 3107790  368151
  -7  -9  -4 2653508  127202
   7  -9   5    8062   49314
  -7  -9  -5    6627    6268
  -7   9  -5   11373   28294
  -7   9  -5    2714   10676
  -7   9  -6 1754511  124155
   7  -9   6 1150848  285709
  -7  -9  -6 1358875  102765
  -7   9  -7   29161   20148
  -7  -9  -7   38072   20818
  -7   9  -8 1565135  118045
  -7  -9  -8 1385265  106988
  -7   9  -9 1047849   85436
  -7  -9  -9 1001194   81340
  -7   9 -10  115420   23083
  -7  -9 -10  138265   26205
   7  11 -10  340737   47655
   7 -11 -10  251109   32157
   7  11  -9  952705   83537
   7 -11  -9  656793   70162
   7  11  -9  854443   87292
   7  11  -8 1071458   91812
   7  11  -8  982828   90247
  -7  11   7    6750   19013
   7  11  -7    7908   16336
   7  11  -7    8025   17078
  -7  11   6 1823205  119233
  -7  11   6 1553486   86017
   7  11  -6 1649362  105981
   7  11  -6 1705731   82878
   7  11  -6 1701723  173897
   7  11  -6 1697054  109890
  -7  11   5  617233   57707
  -7  11   5  539127   46691
   7  11  -5  606376   44235
   7  11  -5  635508   59302
   7  11  -5  615109   90750
  -7  11   4 4984816  154411
  -7  11   4 4614783  136528
   7  11  -4 4716555  241091
   7  11  -4 4664214  144876
   7  11  -3    1251    9821
   7  11  -3    1134    5671
  -7  11   3       7    7861
   7  11  -2 1781599  129502
   7  11  -2 1849587   78670
  -7  11   2 1866369   78561
   7  11  -1  234325   32252
   7  11  -1  205955   45479
   7  11  -1  243446   31781
  -7  11   1  223649   30058
   7  11   0 2936557  104443
   7  11   0 2789086  144078
   7  11   0 2905071  100163
   7  11   1  189011   29239
   7 -11   1  171634   64107
   7  11   1  203024   29232
  -7  11  -1  179483   23196
  -7  11  -1  189609   33043
   7  11   1  160130   34080
   7  11   2 4621559  145339
  -7  11  -2 4111922  119468
  -7  11  -2 3913720  151694
   7 -11   2 4192561  357738
   7  11   2 4759523  140839
   7 -11   3  377519   99872
  -7  11  -3  347011   30036
  -7  11  -3  298775   35304
  -7  11  -3  158490   42660
  -7  11  -4 3814659  127935
  -7  11  -4 4213677  174695
   7 -11   4 4153752  445389
  -7  11  -5     279   14805
  -7  11  -5     279    9232
   7 -11   5    9514  100813
  -7 -11  -5     298   11732
  -7  11  -6  413483   47625
  -7  11  -6  420277   65095
  -7 -11  -6  355099   53057
  -7  11  -7  485849   66790
  -7 -11  -7  409345   55463
  -7  11  -8   66691   22227
  -7 -11  -8   68221   20565
  -7 -11  -9  873447   73118
  -7  11  -9 1007177   85409
   7  13 -10  440427   67187
   7 -13  -9  326207   42065
   7  13  -9  482343   64871
   7  13  -8 1140793   89299
   7  13  -8 1191490   97306
   7  13  -7   58744   24411
   7  13  -7   77627   31360
   7  13  -7   68313   20306
  -7  13   6 2318075  145117
   7  13  -6 2207248  105018
   7  13  -6 2253287  133064
   7  13  -6 2461034  144172
  -7  13   5  976764   72326
   7  13  -5  992478   65618
   7  13  -5  949575   77697
   7  13  -5  900976   78981
   7  13  -5  976815  128163
  -7  13   4 3581694  141622
   7  13  -4 3743322  158073
   7  13  -4 3946055  154081
   7  13  -4 3849920  250403
   7  13  -3   61176   21298
  -7  13   3   69190   14200
   7  13  -3   64832   13452
  -7  13   2 2840772  120536
   7  13  -2 2852059  120339
   7  13  -1    4993   17127
   7  13  -1     862   14821
   7  13  -1    1618   15222
  -7  13   1    1122    9201
  -7  13   0 3206430  131871
   7  13   0 3400003  121093
   7  13   0 3194204  163604
  -7  13   0 2972699   90188
  -7  13   0 3407060  111796
   7  13   0 3407608  116939
   7  13   1 1458494   76087
  -7  13  -1 1409682   66310
  -7  13  -1 1161378   73276
  -7  13  -1 1250596   59046
  -7  13  -1 1344151   72852
   7  13   1 1329279   70810
   7  13   2 7270480  184590
  -7  13  -2 7069999  159896
   7 -13   2 7089137  492791
   7  13   2 7364034  186772
  -7  13  -2 7555380  160906
   7  13   3  983348   68159
   7  13   3  988923   66241
  -7  13  -3  881424   57147
  -7  13  -3  967825   74353
   7 -13   3  912250  181495
   7  13   3 1010643   62945
   7  13   4 2614568  134445
  -7  13  -4 2580978  118567
   7  13   4 2749514  131513
  -7  13  -4 2649680  150150
   7 -13   4 2459191  391802
   7  13   5   66092   22570
   7  13   5   78953   23065
  -7  13  -5   68846   21240
  -7  13  -5   71126   28973
   7 -13   5    8862   60390
   7  13   6   16550   12365
   7  13   6   42270   15583
  -7  13  -6   45695   20667
  -7  13  -6   39010   16707
   7  13   7  391045   53801
  -7  13  -7  527742   76284
  -7  13  -8   77632   26121
   7  13   8   72156   17905
   7  13   9  351084   32917
  -7  13  -9  610441   61571
   7  15  -9  723127   77584
  -7  15   9  551644   49371
   7  15  -8  460881   60545
   7  15  -7  269964   36413
   7  15  -7  304685   49603
   7  15  -7  245602   50230
   7  15  -6 3843738  165087
   7  15  -6 3942342  181095
   7  15  -6 3876191  135982
  -7  15   5  997397   73123
   7  15  -5 1105890   70051
   7  15  -5  997727   76089
   7  15  -5 1069156   85893
  -7  15   4  968592   78078
   7  15  -4  906212  126967
   7  15  -4  848990   77104
  -7  15   3  161725   35217
   7  15  -3  144474   35528
   7  15  -3  156382   53712
   7  15  -3  156878   35088
  -7  15   2 3510119  140527
   7  15  -2 3682364  145602
   7  15  -1   47497   15060
  -7  15   1   54057   15883
  -7  15   1   44845   16766
   7  15   0 3045874  122197
  -7  15   0 3182067  114088
  -7  15   0 2964826  126740
   7  15   0 3128963  117695
   7  15   1 3618238  143730
  -7  15  -1 3231922  115561
  -7  15  -1 3646439  127350
  -7  15  -1 3311447  132260
   7  15   1 3459924  136301
   7  15   214437933  284352
  -7  15  -213580643  245583
  -7  15  -213205020  292149
  -7  15  -215001689  247798
   7  15   214140538  277117
   7  15   3 1675774   91967
   7  15   3 1667213   92032
  -7  15  -3 1625227  100407
  -7  15  -3 1590635   82938
   7 -15   3 1449053  251439
   7  15   4  372326   52977
  -7  15  -4  404666   61691
  -7  15  -4  391511   49320
   7  15   4  351236   50148
  -7  15  -5  701153   62553
   7  15   5  588515   58802
  -7  15  -5  731556   82589
   7  15   5  696750   68937
  -7  15  -6  723078   60760
   7  15   6  636110   55389
   7  15   6  641268   62512
  -7  15  -6  776104   83739
   7  15   7  296715   38140
  -7  15  -7  463324   62036
   7  15   8  115462   18583
  -7  15  -8  203790   36539
  -7  17   8  303844   39811
   7  17  -8  362519   58934
   7  17  -7  207708   43065
   7  17  -7  177672   28011
  -7  17   7  140353   34927
   7  17  -6  831897   63945
   7  17  -6  791225   82254
  -7  17   6  696187   79951
  -7  17   5  260902   44383
   7  17  -5  257450   31072
   7  17  -5  263124   37931
  -7  17   4 1095829   81547
   7  17  -4 1109332   73957
  -7  17   4  898763   89937
   7  17  -4  904635   77361
  -7  17   3  209481   39835
   7  17  -3  241067   36735
  -7  17   3  188592   32324
  -7  17   2 2385898  118151
  -7  17   2 2071979  126149
   7  17  -2 2447362  121578
   7  17  -1    4210   12902
  -7  17   1    3915   12307
  -7  17   1    4036   16384
  -7  17   0 2356576  113319
   7  17   0 2416917  120010
  -7  17   0 2157411  117398
   7  17   1    9712   13098
  -7  17  -1   19580   13429
  -7  17  -1   17718   11727
   7  17   2    4291    9979
  -7  17  -2    1887    9934
   7  17   2    1972   12312
   7  17   3  221851   35037
   7  17   3  201785   33976
  -7  17  -3  211918   32993
  -7  17  -3  212809   37554
  -7  17  -4 1897448   95034
   7  17   4 1944299  101202
  -7  17  -4 2182367  125295
   7  17   4 1969512  104289
  -7  17  -5  271573   37169
   7  17   5  234379   33350
  -7  17  -5  305185   48835
   7  17   5  266235   38545
   7  17   6  988328   67194
  -7  17  -6 1202966   94835
  -7  17  -7  250545   41331
   7  17   7  164995   24245
   7  19  -7   81873   14769
   7  19  -7   89751   26285
  -7  19   7   57141   16582
   7  19  -6  369246   38081
  -7  19   6  316138   44323
   7  19  -6  292686   49872
   7  19  -5  582100   51491
  -7  19   5  526331   61022
   7  19  -5  425924   55905
   7  19  -4 1169952   73832
  -7  19   4 1126809   90127
  -7  19   3   27365   14713
  -7  19   3   33994   20010
  -7  19   2 1001273   77918
  -7  19   2  917980   80174
   7  19  -2  948254   77599
   7  19  -1    1538   10982
  -7  19   1    1653   10577
  -7  19   1    2905   15771
   7  19   0 2047846  115892
  -7  19   0 2095537  109661
   7  19   1     590   12163
  -7  19  -1    7598    6197
  -7  19  -1   21150   10678
   7  19   2   12302   11459
  -7  19  -2   12652    8898
   7  19   3  123927   29196
  -7  19  -3  166117   30879
  -7  19  -4  381367   42491
   7  19   4  373206   43442
   7  19   5      23    6499
  -7  19  -5     213   11911
  -7  19  -5    7138    8793
  -7  19  -6  798527   67800
   7  19   6  640433   47106
   7  21  -6   54626   13605
  -7  21   6   56688   16105
   7  21  -5  100717   20022
  -7  21   5   88278   23688
   7  21  -4  435944   44735
  -7  21   4  355797   46304
   7  21  -3   97787   21394
  -7  21   3   83087   22530
   7  21  -2 1019517   79497
  -7  21   2  913128   73050
  -7  21   1  876790   66185
   7  21  -1  916108   74046
  -7  21   0  210298   30310
   7  21   0  228676   36079
   7  21   1   13739   11571
  -7  21  -2   23902   11818
   7  21   2   27605   15834
   7  21   3   27298   14067
  -7  21  -3   18215   11125
  -7  21  -4  698909   49871
   7  21   4  654775   51532
   7  21   5  174865   22906
   7  23  -4   48918   13889
   7  23  -3   66386   18094
   7  23  -2  626662   47714
   7  23  -1      91    6633
   7  23   0   66287   17650
   7  23   1    3145    8300
   7  23   2    1818    6970
   7  23   3    3181    7821
   8   0 -11   37786   16034
   8   0 -10 3374371  164370
  -8   0  10 2678699  223784
  -8   0   9 1137225  107112
   8   0  -9 1380738   90008
  -8   0   8 2461323  146273
   8   0  -8 2361732  113024
  -8   0   7   99264   34414
  -8   0   6  280534   32195
   8   0  -6  277820   41262
  -8   0   5 7969965  223851
   8   0  -5 9593993  275063
   8   0  -4 6708686  195684
   8   0  -3  639463   55888
   8   0  -220176356  296952
   8   0  -1 2988561  101961
   8   0   027389744  477838
   8   0   1 1271897  122408
   8   0   2  581710   36234
   8   0   3 7859335  505783
   8   0   4 4267515  372481
  -8   0  -515590143  306146
   8   0   515253415  699860
  -8   0  -514327321  258817
   8   0   6   42172   28981
  -8   0  -6    1219   19018
  -8   0  -7   33030   11296
   8   0   7    3881   38160
  -8   0  -8 1716749  122920
  -8   0  -9  300610   49132
  -8   0 -10  590837   64053
   8  -2 -11      13   12061
   8   2 -10  365625   44933
   8   2 -10  407557   54541
  -8   2  10  337879   74601
  -8   2   9   70931   27105
   8   2  -9   82451   22432
  -8   2   9   46730   43655
  -8  -2   8  824659   86207
  -8   2   8  928113   90739
   8   2  -8  963645   76438
  -8  -2   7 2045297  116644
  -8   2   7 2200928  122567
   8   2  -7 1972593  158293
   8   2  -7 2028199   97606
  -8  -2   6  993615   63979
  -8   2   6 1018632   65887
   8   2  -6  902382   82220
   8   2  -5 1249939   94755
  -8   2   5 1443826   79337
   8  -2  -5 1268584   82579
   8  -2  -4 6885811  177718
   8   2  -4 6912814  212646
   8  -2  -3  176248   22707
   8   2  -3  168191   26681
   8  -2  -2 4984468  112207
   8   2  -2 5127590  135222
   8   2  -1 5848466  141627
   8  -2  -1 6118306  158621
   8  -2   0  830458   88229
   8   2   1 3202216  157906
   8  -2   1 3789024  264155
   8   2   2   97443   17375
   8  -2   2   27287   78828
   8  -2   316668986  762820
   8   2   313182113  439469
   8   2   4  141172   30453
   8  -2   4  140842   66524
  -8  -2  -4  124886    7765
  -8   2  -5 5357865  167575
  -8   2  -5 5679417  180545
   8  -2   5 5493526  507237
   8   2   5 5114410  327961
  -8  -2  -5 5956458  191825
  -8   2  -6     291   10959
   8  -2   6     291   58378
  -8   2  -6     291   12597
  -8  -2  -6     348    8056
  -8   2  -7 3140613  144591
  -8  -2  -7 2996429  144768
  -8   2  -7 2993280  126949
   8  -2   7 2875882  335229
  -8   2  -8  273897   51029
  -8  -2  -8  243331   49372
  -8  -2  -9 1153709   92085
  -8   2  -9 1151021   91787
  -8   2 -10   43984   14001
  -8  -2 -10   46347   18327
   8  -4 -11   53346   17149
   8   4 -10  355417   50268
  -8   4  10  301007   78142
  -8   4   9    1680   15431
   8   4  -9    1391    8827
   8   4  -9    6521   10835
  -8   4   9    1680   27792
  -8  -4   8  775925   79514
   8   4  -8  977688   77276
  -8   4   8  948093   90437
   8   4  -8 1027408   76353
  -8   4   8 1045932  152327
  -8  -4   7 1922511  116562
  -8   4   7 2143891  125899
   8   4  -7 2054244  170657
   8   4  -7 2179948  108051
  -8  -4   6 1923727   93187
   8   4  -6 1943661  137224
   8   4  -5  751982   66312
  -8   4   5  870214   50039
  -8   4   5  847225   52838
   8   4  -4 3159223  161572
   8  -4  -3 4624719  110567
   8   4  -3 5170182  173068
   8   4  -2 4482196  167844
   8  -4  -2 3772894  106532
   8   4  -1 3469618  128066
   8  -4  -1 3859587  153713
   8   4   0 4317962  138190
   8  -4   0 4940600  260535
   8  -4   1 4150351  387955
   8   4   2  120465   28900
   8  -4   2  189711   78351
   8   4   310382557  328332
   8  -4   312452603  672788
   8   4   4  174930   47815
  -8   4  -4  238946   36029
  -8  -4  -4  264739   38409
   8  -4   4  347714  150172
  -8   4  -5 2488356  117245
  -8  -4  -5 2398020  117820
  -8   4  -5 2449955  111167
   8   4   5 2142858  171176
   8  -4   5 2373793  344949
  -8   4  -6   60010   22817
  -8   4  -6   63227   23911
  -8  -4  -6   48737   21269
   8   4   6     951   10821
  -8   4  -7 1387304  103453
  -8   4  -7 1474226  102456
   8  -4   7 1405942  297060
  -8  -4  -7 1409538  109030
  -8   4  -8  689193   67152
  -8  -4  -8  697514   74200
  -8   4  -8  734909   73639
  -8   4  -9 1181391   89962
  -8   4  -9 1433287  107417
  -8  -4  -9 1189040   99508
  -8   4 -10    5350    9946
  -8  -4 -10     729   13694
   8  -6 -11     535   14150
   8   6 -10  319388   45232
   8   6 -10  337216   52542
  -8   6   9  119906   34609
   8   6  -9  137355   29469
  -8   6   9  149388   51203
   8   6  -9  125383   27662
  -8   6   8  797245   83960
   8   6  -8  875439   75210
  -8   6   8  742537  127247
   8   6  -8  827450   71905
  -8  -6   7 1232815  156821
   8   6  -7 1585466  161146
  -8   6   7 1617866  114670
   8   6  -7 1603431  100496
  -8   6   7 1672115  204545
   8   6  -6 5457311  254721
  -8   6   6 6040341  344059
  -8   6   6 5516441  175835
   8   6  -5  636719   90693
  -8   6   5  810146   68684
  -8   6   5  713835  124735
  -8   6   5  509914   63394
   8   6  -4 4037704  200734
  -8   6   4 4059998  255244
   8   6  -3 3699823  181399
   8   6  -2 4278006  158274
   8   6  -1 2541198  118326
   8  -6  -1 3010026  168919
   8   6   0 5490980  165162
   8  -6   0 6751961  391060
   8   6   1 9458196  239352
   8  -6   111149833  575280
   8  -6   2  725649  150284
   8  -6   3 1065085  179656
  -8   6  -4  444973   34575
  -8   6  -4  470529   48590
  -8   6  -4  438155   40751
  -8  -6  -4  449681   45849
   8  -6   4  480771  135722
  -8   6  -5 1845606   98709
  -8   6  -5 1878489  110435
  -8  -6  -5 1759350  106622
   8  -6   5 1870764  326382
  -8   6  -6   38370   15236
   8  -6   6   60451   49731
  -8   6  -6   27196    8891
  -8  -6  -6   24287   11683
  -8   6  -7 2461431  136454
  -8  -6  -7 2198716  132832
   8  -6   7 2148871  385335
  -8   6  -7 2484836  133319
  -8   6  -8  218604   38195
  -8   6  -8  240207   40274
  -8  -6  -8  217398   40660
  -8   6  -9  744905   69505
  -8  -6  -9  758234   74659
  -8  -6 -10     769    9822
   8  -8 -11   10378    8095
   8   8 -10   69239   19410
   8  -8 -10   44420   18331
   8   8 -10   41101   19364
   8   8  -9    3137    9668
   8   8  -9     362   18473
  -8   8   8   35216   16782
   8   8  -8   22285   16022
  -8   8   8   57081   37863
   8   8  -8   22094   13767
  -8   8   7    4385   15096
   8   8  -7      57   10126
   8   8  -7      57    9653
  -8  -8   7      57   26132
  -8   8   7      37   34777
   8   8  -6 2089315  118162
  -8   8   6 1964406  119643
  -8   8   6 1693012   87714
  -8   8   6 1885821  210483
   8   8  -6 1916867  176572
  -8   8   5  297857   36502
  -8   8   5  264203   28115
   8   8  -5  255096   52073
  -8   8   5  341293   78460
   8   8  -4 1131803  107804
  -8   8   4 1233012   61913
  -8   8   4 1246506   73711
  -8   8   4 1157671  132561
   8   8  -4 1237076   64052
   8   8  -3  229087   53616
  -8   8   3  179739   54095
   8   8  -2  981073   84363
   8   8  -1  204838   20154
   8  -8  -1  305187   39761
   8  -8   0 1897380  247795
   8   8   0 1294280   94290
   8  -8   1 3024858  295737
   8   8   1 2705110  126259
   8  -8   2  354003  136081
   8   8   2  324689   55484
  -8   8  -3   14477   12461
  -8   8  -3    9953   15187
   8  -8   3    7367   56008
  -8   8  -4    2816   12987
   8  -8   4    2739   60946
  -8  -8  -4    2144    7500
  -8   8  -4    5275   10078
  -8   8  -5 1071665   64278
  -8   8  -5 1161884   90384
  -8  -8  -5  974847   78633
   8  -8   5 1152980  264741
  -8   8  -6   13788   14744
  -8  -8  -6     210   12769
  -8  -8  -7  847922   75951
  -8   8  -7  954719   82515
  -8   8  -8   48340   19775
  -8  -8  -8   56820   22513
  -8   8  -9  307448   42182
  -8  -8  -9  242919   37566
  -8   8 -10     553    6561
  -8  -8 -10   23876   14028
   8 -10 -10  167436   30465
   8  10 -10  220066   40379
   8  10  -9  239958   45407
   8  10  -9  292988   48368
  -8  10   8  776214   89153
   8  10  -8  848310   82517
   8  10  -8  925512   86793
  -8  10   7  179179   42803
   8  10  -7  170149   38293
   8  10  -7  198815   39948
  -8  10   7  185231   69114
  -8  10   6    2504    8271
   8  10  -6    6260   20535
   8  10  -6    8975   18258
  -8  10   6    2984   27680
  -8  10   6    4342    7265
  -8  10   5  745011   71502
  -8  10   5  660104   58631
   8  10  -5  652816   51274
  -8  10   5  715352  127727
   8  10  -5  782457  113559
  -8  10   4  210133   34949
  -8  10   4  231224   33334
   8  10  -4  238768   59290
  -8  10   4  237350   37499
  -8  10   4  248646   74761
   8  10  -4  234605   34576
   8  10  -3  134869   37972
  -8  10   3  163018   24059
  -8  10   3  179177   26723
   8  10  -3  149586   23204
   8  10  -2   15397   13854
   8  10  -2   37695   17969
   8  10  -2   24473   29620
  -8  10   2   39761   17705
   8  10  -1  467210   48514
   8  10  -1  534171   79726
   8  10  -1  472472   46944
   8  10   0 4359745  122964
   8  10   0 4402771  125299
   8  10   0 4156379  174739
   8  10   1   47757   19280
  -8  10  -1   42371   24569
   8  10   1   46809   25616
   8 -10   1   61290   99297
  -8  10  -2  538822   42115
  -8  10  -2  509300   56795
   8 -10   2  667596  156412
   8  10   2  631347   67078
  -8  10  -3  952148   59029
  -8  10  -3 1003443   79477
   8 -10   3  982676  208809
  -8  10  -4   11931    7294
  -8  10  -4   11931   14048
  -8 -10  -4    1167   11325
  -8  10  -5  303170   37632
  -8  10  -5  340251   51241
  -8 -10  -5  287026   43280
   8 -10   5  248858  142806
  -8  10  -6      64   21156
  -8 -10  -6   35291   17606
  -8  10  -7  131997   38171
  -8 -10  -7  115919   31632
  -8  10  -8  262945   45869
  -8 -10  -8  206263   37262
  -8  10  -9     429   11017
  -8 -10  -9    6956   10758
   8 -12 -10   26351   10135
   8  12 -10     454   17489
   8  12  -9  129076   27758
   8  12  -9  138729   36270
   8 -12  -9  145802   29264
   8  12  -8    2600   13310
   8  12  -8    3168   16774
  -8  12   7   55575   14890
   8  12  -7   66254   22018
   8  12  -7   45896   16469
  -8  12   6    2869   10904
   8  12  -6    9356   16950
   8  12  -6   28238   31248
  -8  12   6    4376   11215
   8  12  -6     398    7758
   8  12  -6    1530   13386
  -8  12   5   43855   24757
  -8  12   5   30526   19546
   8  12  -5   53795   42317
   8  12  -5   21908   16769
   8  12  -5   30796   26091
   8  12  -4  143014   25606
  -8  12   4  128313   22806
   8  12  -4  122806   43355
   8  12  -3  127388   25701
  -8  12   3  159751   27197
   8  12  -3  128273   41571
   8  12  -2 1112147   95107
  -8  12   2 1150884   56992
   8  12  -2 1157054   57966
   8  12  -1  345965   45360
   8  12  -1  298677   65552
  -8  12   1  351586   43093
   8  12  -1  383707   45623
   8  12   0 2686246  113588
   8  12   0 2550848  158621
  -8  12   0 2732231  105778
  -8  12   0 2441974  123542
   8  12   0 2669700  108937
   8  12   1   14073   11035
   8  12   1   19994   13032
  -8  12  -1     569    9090
  -8  12  -1   17625   11721
   8 -12   1     569   36423
   8  12   1   16906   14958
  -8  12  -1   39029   16472
   8  12   2  350816   33179
   8  12   2  344112   32284
  -8  12  -2  310557   26154
  -8  12  -2  267728   30777
   8  12   3 1378991   85098
  -8  12  -3 1402075   74682
  -8  12  -3 1336865   94432
   8 -12   3 1221806  238297
  -8  12  -4    2987   11121
  -8  12  -4    3015    8392
  -8  12  -5   41489   21705
  -8  12  -5   42676   30041
   8 -12   5   45027  101092
  -8  12  -6    5583   16078
  -8 -12  -6    9519    6219
  -8  12  -7   83904   32679
  -8 -12  -7   71881   26017
   8  12   8    6819   10210
  -8  12  -8   16881   17780
  -8 -12  -8    3913    9976
   8  12   9   27819   12341
  -8  12  -9   14024   13630
  -8 -12  -9    3816    8306
   8 -14  -9    4388    8948
   8  14  -9    1980   11508
   8  14  -8   74601   23670
   8 -14  -8   34814   15879
   8  14  -8   83178   27664
   8  14  -7 1100708   91858
   8  14  -7 1214937  101149
   8  14  -6  687728   56788
   8  14  -6  693406   70287
   8  14  -6  677328   73607
   8  14  -5   32390   18916
   8  14  -5   94255   46510
   8  14  -5   34963   16076
  -8  14   5   31202   17576
   8  14  -5   46088   24778
  -8  14   4  886807   70388
   8  14  -4  870388   73688
   8  14  -4  908248   74019
   8  14  -4  926226  120819
   8  14  -3 1547036  143351
   8  14  -3 1631196   92838
  -8  14   3 1748587   93753
   8  14  -3 1732559   95214
   8  14  -2    6674   13469
  -8  14   2    3270    9978
   8  14  -1  185995   54195
   8  14  -1  199871   37517
  -8  14   1  247466   38051
   8  14  -1  230394   37439
  -8  14   1  174787   40417
   8  14   0  549550   46467
   8  14   0  609489   51585
  -8  14   0  611423   47376
  -8  14   0  574638   53975
   8  14   1 1104753   79258
  -8  14  -1 1220439   74189
  -8  14  -1  971237   62437
  -8  14  -1 1057763   74402
   8  14   1 1155183   78069
   8  14   2  465432   47538
   8  14   2  513505   50848
  -8  14  -2  452457   41225
  -8  14  -2  429977   51934
  -8  14  -2  507341   42936
   8  14   3 3491998  137654
  -8  14  -3 3220726  118694
   8  14   3 3415663  135431
  -8  14  -3 3369618  153069
   8 -14   3 3545687  435282
   8  14   4  257182   40563
  -8  14  -4  257527   35976
   8  14   4  280900   40409
  -8  14  -4  288538   48961
  -8  14  -5  183601   30655
   8  14   5  164832   32329
   8  14   5  173999   30702
  -8  14  -5  175703   38206
   8  14   6   66104   21729
   8  14   6   71249   20152
  -8  14  -6   90252   31606
   8  14   7  174632   30568
  -8  14  -7  234935   44616
   8  14   8    2258    6925
  -8  14  -8   12821   19646
   8  16  -9   81283   29355
   8  16  -8    9236   17817
  -8  16   8   51617   18167
   8  16  -7  680345   69214
   8  16  -7  653012   76458
   8  16  -7  717781   55961
   8  16  -6  212949   35181
   8  16  -6  205963   39791
   8  16  -6  177663   42452
   8  16  -5   17945   10411
  -8  16   5    8013    8583
   8  16  -5    8033   13940
  -8  16   4  175593   33456
   8  16  -4  136488   31145
  -8  16   3  468886   60108
   8  16  -3  334420   52508
   8  16  -3  451781   59717
   8  16  -2   13309   13798
  -8  16   2    9767   10366
  -8  16   2   19891   15202
  -8  16   1  531332   52095
  -8  16   1  440744   54058
   8  16  -1  576464   55521
  -8  16   0  453945   48010
  -8  16   0  414739   50513
   8  16   0  443384   49342
   8  16   1   48955   16245
   8  16   1   74767   20917
  -8  16  -1   47059   12008
  -8  16  -1   57429   13518
   8  16   2   89876   25347
  -8  16  -2   89805   22886
   8  16   2   83470   27587
   8  16   3 7566931  214465
  -8  16  -3 7365227  190400
  -8  16  -3 7284728  235037
   8  16   3 7551522  212741
  -8  16  -4  284598   37491
   8  16   4  256309   38359
  -8  16  -4  309815   50292
   8  16   4  285780   41071
   8  16   5  107041   23880
   8  16   5   84453   20036
  -8  16  -5  105078   22768
  -8  16  -5  150679   36311
   8  16   6   57189   17451
   8  16   6   43878   13631
  -8  16  -6   49918   22592
   8  16   7   91226   19672
  -8  16  -7  100650   28443
  -8  16  -8    4723    9809
   8  18  -8   37725   18411
   8  18  -7  319820   31875
  -8  18   7  249096   38434
   8  18  -7  231846   43966
   8  18  -6    3619    7292
  -8  18   6    2336   16170
   8  18  -5  297902   39255
   8  18  -5  272737   45801
  -8  18   5  251747   48507
   8  18  -4  162465   36685
   8  18  -4  195764   33917
  -8  18   4  159454   43841
  -8  18   4  134331   31323
   8  18  -3  191429   32985
  -8  18   3  179533   31344
  -8  18   3  146778   31062
  -8  18   2  296625   44046
  -8  18   2  277330   48279
   8  18  -2  353651   48498
   8  18  -1   73618   24544
  -8  18   1   57015   19139
  -8  18   1   52207   21226
  -8  18   0  187918   40779
  -8  18   0  200923   43258
   8  18   0  177261   42567
   8  18   1     713   11549
  -8  18  -1    5951   11237
  -8  18  -1     595    8028
   8  18   2   27768   15001
  -8  18  -2   41197   15435
   8  18   3  504336   54214
   8  18   3  489896   53139
  -8  18  -3  476735   47605
  -8  18  -4  712917   54523
   8  18   4  525648   49725
  -8  18  -4  683186   66251
   8  18   4  718271   59210
   8  18   5  818027   60109
  -8  18  -5  950220   63731
  -8  18  -5  924735   80896
   8  18   5  880648   65331
  -8  18  -6    1631    9996
   8  18   6    2649    6041
   8  18   7  382017   32057
   8  20  -6   50777   12207
   8  20  -6   75644   23677
  -8  20   6   34930   12750
   8  20  -5  793971   56020
  -8  20   5  658666   62268
   8  20  -4 1865631   89639
  -8  20   4 1783518  105359
  -8  20   3 1565863   92590
   8  20  -3 1587190   85805
  -8  20   3 1379747   93656
  -8  20   2 2386008  112886
  -8  20   2 2219288  112034
   8  20  -2 2578940  121749
   8  20  -1   96449   31640
  -8  20   1   28141   18859
  -8  20   1   77809   26182
   8  20   0  140344   30591
  -8  20   0  117193   24295
   8  20   1  112986   24137
   8  20   2   51060   17674
  -8  20  -2   42055   14048
  -8  20  -3 2405988  100588
   8  20   3 2364349  111568
  -8  20  -4   30496   11110
   8  20   4   26052   10297
   8  20   5 1326721   69133
   8  22  -5  397226   33673
  -8  22   5  392151   37232
   8  22  -4 1022482   58920
  -8  22   4  886160   60168
   8  22  -3 1758185   80823
   8  22  -2 1031472   66655
   8  22  -1  274114   37499
   8  22   0  257200   36729
   8  22   1 1004413   71466
   8  22   2    4498    9852
  -8  22  -3  915240   49532
   8  22   3 1025362   61920
   8  22   4   25346    9751
   8  24  -2  380856   33158
   8  24  -1  567821   41691
   8  24   0   64171   13349
   8  24   1 1412653   60826
   8  24   1 1544433   72370
   9   1 -11    2540   10274
   9  -1 -11    2733   11079
  -9  -1  10  115378   45702
   9   1 -10  129638   21465
  -9   1  10   55847   31725
   9   1 -10  132984   28313
  -9  -1   9  643782   71763
  -9   1   9  911695   87096
   9   1  -9  838830   66236
  -9  -1   8   82536   37901
  -9   1   8   91897   39815
   9   1  -8   93317   32664
   9  -1  -8   65782   25780
  -9  -1   7  339101   39180
  -9   1   7  288825   34292
   9   1  -7  308914   47861
  -9  -1   6    2042   10165
  -9   1   6    2125   10481
   9  -1  -6     124   10634
   9   1  -6       1   10594
   9  -1  -5    8805   12786
  -9  -1   5    2315    9166
   9   1  -5    2439   15388
  -9   1   5    1972   11183
   9  -1  -4 2469334  128351
   9   1  -4 2528282  141041
   9  -1  -3   83930   15268
   9   1  -3   96736   18198
   9   1  -2 4136981   78473
   9  -1  -2 4059544   70580
   9   1  -111266086  226047
   9  -1  -110882515  218445
   9   1   0  228364   10015
   9  -1   0  268926   15294
   9  -1   1  327708   99387
   9   1   1  328597   84064
   9   1   2  129784   47319
   9  -1   2  154619   54203
   9   1   3  376175  105160
   9  -1   3  426271  138179
   9  -1   4 1009082  206468
   9   1   4  972569  166122
  -9   1  -4 1023502   84033
  -9  -1  -4 1095047   88616
  -9   1  -5  180288   30621
  -9  -1  -5  190006   34531
   9   1   5  283878   86059
   9  -1   5  222351   96036
  -9   1  -5  189445   33260
  -9   1  -6  271840   33876
  -9   1  -6  295282   41108
   9   1   6  245887   70203
   9  -1   6  341887   99365
  -9  -1  -6  300752   40684
  -9  -1  -7  137612   43300
   9   1   7   36785   47289
  -9   1  -7  162135   45021
   9  -1   7  165554   93678
  -9   1  -8   90141   27413
  -9  -1  -8  135809   35240
  -9   1  -9  101515   28665
  -9  -1  -9  144398   35149
  -9  -1 -10  274727   44940
  -9   1 -10  215867   39029
   9  -3 -11   51580   19275
   9   3 -10   51964   17400
  -9   3  10   26001   26756
  -9   3   9  287877   51742
   9   3  -9  316294   44812
  -9   3   9  314369   84749
  -9  -3   8   49262   22969
  -9   3   8   47177   22600
   9   3  -8   59444   20234
   9   3  -8   73221   20601
  -9  -3   7  231213   34025
  -9   3   7  229878   34906
   9   3  -7  179943   41104
   9   3  -7  224428   29059
  -9  -3   6  237329   26256
  -9   3   6  208181   25565
   9   3  -6  250593   40709
  -9   3   5 2567132  120711
   9   3  -5 2060272  146279
   9  -3  -4 1193938   58866
   9   3  -4 1170907   74386
   9  -3  -3  879581   75863
   9   3  -3  937881  102037
   9   3  -2  304616   50777
   9  -3  -2  276485   38812
   9   3  -1 1697054  102081
   9  -3  -1 1789482  115343
   9  -3   0  576691   80503
   9  -3   1  748621  119761
   9   3   1  669172   70823
   9  -3   2 2510377  295346
   9   3   2 2020034  156131
   9  -3   3 1580978  237936
   9   3   3 1259840  121378
  -9   3  -4  140990   22218
   9  -3   4  132538   48504
  -9   3  -4  138066   21140
  -9  -3  -4  127589   20771
   9   3   4  116551   34878
  -9   3  -5   54357   12442
   9  -3   5  106417   65281
   9   3   5   12495   25458
  -9   3  -5   57307   11566
  -9  -3  -5   39798   10139
  -9   3  -6    1847    9242
  -9   3  -6    1536   12824
  -9  -3  -6     959   11807
   9   3   6    1525   21607
  -9   3  -7   89536   25610
  -9   3  -7   87213   26057
  -9  -3  -7   76177   28406
  -9   3  -8     902   10841
  -9  -3  -8     365   14641
  -9   3  -9  110176   29604
  -9  -3  -9  103152   27594
  -9  -3 -10    3482    8879
   9  -5 -11   89863   24374
  -9   5  10   28833   31579
   9   5 -10    7710   10296
  -9   5   9  362990   61156
   9   5  -9  355429   49887
  -9   5   9  216308   72654
   9   5  -9  380105   50916
  -9   5   8  161232   37845
   9   5  -8  180947   36948
   9   5  -8  200950   36816
  -9   5   8  137043   66940
  -9   5   7  802788   78979
  -9   5   7  831912  146614
   9   5  -7  880226   73058
   9   5  -7  693822  106571
  -9   5   6  134096   32865
   9   5  -6  141848   47973
  -9   5   5  174863   23840
   9   5  -5  141421   27063
   9   5  -4   13593   21658
  -9   5   4   73766   23771
   9   5  -3  669396   66807
   9   5  -2  585094   58317
   9  -5  -2  575935   37069
   9  -5  -1 1694920  119724
   9   5  -1 1380850   92572
   9   5   0 1675813   98575
   9  -5   0 2091822  194808
   9  -5   110538302  588516
   9  -5   2 1616570  250665
  -9   5  -3   44458   29631
   9   5   3   40369   42040
   9  -5   3   23898   72734
  -9   5  -4  527834   52031
  -9   5  -4  541267   57915
   9   5   4  564197   87612
  -9  -5  -4  478751   54741
   9  -5   4  586269  176379
   9   5   5  215442   43584
  -9   5  -5  166405   23978
   9  -5   5  253027  126926
  -9   5  -5  249509   30599
  -9  -5  -5  190371   27852
  -9   5  -6  174769   30283
   9  -5   6  120684   85814
  -9   5  -6  186783   30215
  -9  -5  -6  150146   28207
  -9   5  -7  258264   42457
  -9   5  -7  291398   46162
   9  -5   7  198642  104463
  -9  -5  -7  222956   41767
  -9   5  -8  531171   63561
  -9   5  -8  527741   61161
  -9  -5  -8  497375   63533
  -9   5  -9   11108    9653
  -9   5  -9    2748   11072
  -9  -5  -9    7900    9853
  -9  -5 -10  427984   51604
   9  -7 -11  334807   41245
   9   7 -10   76223   21570
   9   7 -10   97086   27868
  -9   7   9    3615   13208
   9   7  -9      31   15579
  -9   7   9      54   25008
   9   7  -9    1720    8914
  -9   7   8  200079   49590
   9   7  -8  213265   45120
   9   7  -8  237948   45621
  -9   7   8  208452   81148
  -9   7   7 1253248  103007
  -9  -7   7 1123417  155004
   9   7  -7 1323895   95666
   9   7  -7 1323693  153272
  -9   7   7 1102141  170810
  -9   7   6  188928   36519
   9   7  -6  202880   55398
  -9   7   6  134708   64948
   9   7  -5 4228752  237049
  -9   7   5 3581361  145277
  -9   7   5 3814384  120803
  -9   7   5 4165918  297987
  -9   7   5 4672308  172302
   9   7  -4  202295   42532
  -9   7   4  234316   57188
  -9   7   4  256787   30743
  -9   7   4  205295   22222
   9   7  -3 2803616  158640
   9   7  -2  911383   74505
   9   7  -1 3238692  164734
   9  -7  -1 3868384  226736
   9  -7   0 1173556  175068
   9   7   0 1020428   80370
   9   7   1 4318562  181447
   9  -7   1 5459759  469459
   9   7   2  428490   68244
   9  -7   2  383896  151880
  -9   7  -3 2318287   84424
  -9   7  -3 2443567  122970
  -9  -7  -3 2082187  107496
  -9   7  -4  323944   44165
  -9   7  -4  382166   42085
  -9  -7  -4  282849   39094
   9  -7   4  394561  145366
  -9   7  -4  309618   31607
  -9   7  -5 1418588  100554
  -9  -7  -5 1183853   90116
  -9   7  -5 1459610   92026
   9  -7   5 1020022  259673
  -9   7  -6  172707   32672
  -9   7  -6  138793   25120
  -9  -7  -6  115896   24726
  -9   7  -7  582309   81200
  -9  -7  -7  553688   78692
  -9   7  -8 1461876  107603
  -9  -7  -8 1324382  102864
  -9   7  -9   20760   10099
  -9  -7  -9    1169   11501
  -9  -7 -10  811626   67294
   9  -9 -10   79740   22252
   9   9 -10   85119   21624
   9   9 -10  147313   32815
   9   9  -9   87198   29351
   9   9  -9   64182   25843
  -9   9   8   24351   20558
   9   9  -8    2280   17587
   9   9  -8    9527   15613
  -9   9   7  342601   61682
  -9   9   7  300870   97839
   9   9  -7  257785   79463
  -9  -9   7  173056   74449
   9   9  -7  318814   54586
  -9   9   6  345508   55333
   9   9  -6  396476   89283
  -9   9   6  313769   42789
  -9   9   6  418424  108501
   9   9  -6  433009   59999
   9   9  -5 4752112  248321
  -9   9   5 4523141  156785
  -9   9   5 4280768  129014
  -9   9   5 4546229  288682
  -9   9   4  159566   28368
  -9   9   4  140451   23259
   9   9  -4   49219   26167
  -9   9   4  147731   28265
  -9   9   4   94090   45719
   9   9  -4  161715   25905
   9   9  -3 5760399  264352
  -9   9   3 5629487  301035
  -9   9   3 5796384  149032
  -9   9   3 6294197  173776
   9   9  -3 6013953  153387
   9   9  -2   53312   28187
  -9   9   2   66946   37040
   9   9  -1  241872   43669
   9   9   0 1350046   80941
   9  -9   0 1702594  195216
   9   9   1 6276391  141941
   9   9   1 6064894  192246
   9   9   2  775838   76999
  -9   9  -2  718724   46994
  -9   9  -2  742384   69828
   9  -9   2  789535  192710
  -9   9  -3 2163001   78281
   9   9   3 2390243  128267
  -9   9  -3 2387380  115229
   9  -9   3 2305536  315462
  -9   9  -4 1091857   55015
  -9   9  -4 1211918   79743
  -9  -9  -4 1002513   65187
   9  -9   4 1158085  237885
  -9   9  -5 2275406  136113
   9  -9   5 2033921  390289
  -9  -9  -5 1833805  114528
  -9   9  -5 1969705   93683
  -9   9  -6  635308   70396
   9  -9   6  490181  166744
  -9  -9  -6  552896   60137
  -9   9  -7  277820   52818
  -9  -9  -7  265912   47461
  -9  -9  -8  682682   73755
  -9   9  -8  822213   85891
  -9   9  -9    2115    8771
  -9  -9  -9   15407   14816
   9 -11 -10  216843   30702
   9  11 -10  315318   44516
   9  11  -9  511603   61341
   9  11  -9  482412   63235
  -9  11   8   89750   28782
   9  11  -8  130960   31505
   9  11  -8  110940   27502
  -9  11   7 1189304   97873
   9  11  -7 1216552   89151
   9  11  -7 1262255   93507
  -9  11   6    5159   10948
  -9  11   6    1136    7400
   9  11  -6   11858   12509
  -9  11   5 4342297  171092
  -9  11   5 3941890  141855
   9  11  -5 4237812  131282
   9  11  -5 4406371  271277
   9  11  -4 1155246  121883
  -9  11   4 1198801   77274
  -9  11   4 1276320   72488
  -9  11   4 1297011   82605
   9  11  -4 1246710   74215
   9  11  -3 5908755  287747
   9  11  -3 6281195  174099
  -9  11   3 6253232  169306
   9  11  -2  296174   28141
   9  11  -2  257284   43385
  -9  11   2  308722   28207
   9  11  -2  297359   27524
   9  11  -1 7841131  190130
   9  11  -1 7725960  293036
   9  11  -1 8123992  186924
   9  11   0   94029   29276
   9  11   0   94864   41030
   9  11   0  117434   30257
   9  11   1 1896248   87684
   9 -11   1 1913678  287143
   9  11   1 1993930   90723
  -9  11  -1 1538505   67000
  -9  11  -1 1546172   98199
   9  11   1 1811139  118337
   9  11   2 2224684  102163
  -9  11  -2 2018790   82488
  -9  11  -2 2088966  118084
   9  11   2 2026524  125001
  -9  11  -3 4030059  117308
  -9  11  -3 4169812  162190
   9 -11   3 4117523  444382
  -9  11  -4  850102   57559
  -9  11  -4  926393   82214
   9 -11   4  969770  243795
  -9  11  -5 1381787   82668
  -9  11  -5 1428309  115042
  -9 -11  -5 1089940   89094
   9 -11   5 1118857  306603
  -9  11  -6   53971   21124
  -9 -11  -6   59196   16969
  -9 -11  -7  258496   47818
  -9  11  -7  246040   52538
  -9  11  -8  900375   86782
  -9 -11  -8  833870   75185
   9  11   9   60469   17635
  -9  11  -9   32095   16685
  -9 -11  -9   50787   17358
   9  13  -9  942276   71696
   9  13  -9 1069238   85978
   9  13  -8  148099   32919
   9  13  -8  119801   29176
  -9  13   7 1269606  102760
   9  13  -7 1474421  102299
   9  13  -7 1552995  108362
  -9  13   6   93685   23588
  -9  13   6  173319   26854
   9  13  -6  149731   28425
   9  13  -6  136077   21133
   9  13  -6  194299   35480
  -9  13   5 5559789  194835
  -9  13   5 5078029  165722
   9  13  -5 5530957  155042
   9  13  -5 5389749  194462
   9  13  -5 5560931  310587
  -9  13   4  704931   63327
   9  13  -4  630069   71040
   9  13  -4  700254   67248
   9  13  -4  595078   99177
   9  13  -3 3156289  207437
  -9  13   3 3327440  126689
   9  13  -3 3390760  130250
   9  13  -2   57901    8968
   9  13  -2   78323   19179
  -9  13   2   65732   13070
   9  13  -1 2943041  121561
  -9  13   1 2941733  115576
   9  13  -1 2582081  177164
   9  13  -1 2783961  114471
   9  13   0  416660   44593
   9  13   0  363319   60284
  -9  13   0  391670   40294
  -9  13   0  375306   45775
   9  13   0  356603   39688
   9  13   1 1987968  102013
  -9  13  -1 1512570   74833
  -9  13  -1 1606982  106114
  -9  13  -1 1958956   91841
   9  13   1 1947147   97703
   9  13   2 3142482  136435
  -9  13  -2 2812578  113758
   9  13   2 3089318  137484
   9 -13   2 3230903  445284
  -9  13  -2 2777362  152656
  -9  13  -2 3278762  123213
   9  13   3 5829114  183192
  -9  13  -3 5579896  155191
   9  13   3 5850138  179515
  -9  13  -3 5863058  211222
   9 -13   3 6187559  619100
   9  13   4  558424   55171
  -9  13  -4  609485   50439
  -9  13  -4  627082   69341
  -9  13  -5  223695   32776
   9  13   5  232414   38271
  -9  13  -5  266762   49095
   9  13   6  170378   34558
   9  13   6  135742   27841
  -9  13  -6  185929   44746
   9  13   7    4342    8279
   9  13   7    1733    6356
  -9  13  -7    2089   13478
   9  13   8  512818   46815
  -9  13  -8  722625   72537
  -9  13  -9   76464   21650
   9  15  -9 1314833   99164
  -9  15   9  936892   66708
   9  15  -8  303544   43285
   9  15  -8  316288   50384
   9  15  -7 1003445   81882
   9  15  -7  991484   88726
   9  15  -6  606348   50827
   9  15  -6  517778   57078
   9  15  -6  578671   66075
   9  15  -5    1775   12843
   9  15  -5    6229   12866
  -9  15   5    3274    8879
   9  15  -5    6713   12036
  -9  15   4   99803   20420
   9  15  -4   38023   20891
   9  15  -4  113943   25500
  -9  15   3 2498320  116075
   9  15  -3 2514831  116866
   9  15  -3 2704654  122762
   9  15  -3 2522160  187058
  -9  15   2  341998   44398
   9  15  -2  325150   65991
   9  15  -2  316920   43184
  -9  15   1 2159125  110343
  -9  15   1 1939349  123022
   9  15  -1 2295402  114189
   9  15   0 1699080  103523
  -9  15   0 1537327  101269
  -9  15   0 1705365   96201
   9  15   0 1653557   97890
   9  15   1 4815129  174035
  -9  15  -1 4666868  154898
  -9  15  -1 4392390  152451
   9  15   1 4539410  163003
   9  15   2 1665838  100775
  -9  15  -2 1447221   81206
  -9  15  -2 1391757  101859
  -9  15  -2 1647242   85780
   9  15   2 1657643   97271
   9  15   3   44295   22797
   9  15   3   28207   20646
  -9  15  -3   19327   19944
  -9  15  -3   30345   18747
   9  15   4 2045294  108782
  -9  15  -4 2064734   97446
   9  15   4 2039005  106580
  -9  15  -4 2218058  132997
   9  15   5  416986   48126
  -9  15  -5  424956   43982
   9  15   5  415740   46456
  -9  15  -5  485314   63728
   9  15   6  774386   62950
   9  15   6  772538   57674
  -9  15  -6  919805   86044
   9  15   7  106553   22429
  -9  15  -7  142743   33313
  -9  15  -8  430975   53570
   9  15   8  284699   31432
   9  17  -8   24340   17398
  -9  17   8     197    7253
   9  17  -7  625177   63104
  -9  17   7  554896   57642
   9  17  -6   66228   17896
   9  17  -6   33829   17064
  -9  17   5 2071185  110329
   9  17  -5 2157508  103046
   9  17  -5 2130528  125340
  -9  17   4   54684   13459
   9  17  -4   37060   11341
   9  17  -4   13996    9584
  -9  17   4   26589   15777
  -9  17   3 1151074   89729
   9  17  -3 1080359   83091
  -9  17   3 1014299   99608
   9  17  -3 1213396   93303
   9  17  -2   51306   19642
  -9  17   2   42480   17139
  -9  17   2   48202   21543
  -9  17   1 2065385  116033
  -9  17   1 1892992  122477
   9  17  -1 2100443  118542
   9  17   0   70691   21600
  -9  17   0   67756   21341
  -9  17   0   77509   24077
   9  17   1  442268   44607
  -9  17  -1  339664   32165
  -9  17  -1  416743   39887
   9  17   1  439610   44018
   9  17   2   59729   20852
   9  17   2   75105   22796
  -9  17  -2   79540   20180
  -9  17  -3  301665   37411
   9  17   3  356992   47428
  -9  17  -3  332465   48676
   9  17   3  359494   46708
   9  17   4   13709   13148
   9  17   4    1655    6830
  -9  17  -4    6986   11898
  -9  17  -4    1805   10464
   9  17   5 1276578   83046
  -9  17  -5 1421239  110513
  -9  17  -5 1407785   83248
   9  17   5 1282772   86700
   9  17   6  603471   47896
  -9  17  -6  744254   74282
   9  17   6  632350   53940
  -9  17  -7  595379   63643
   9  17   7  399003   39178
   9  19  -7  785140   70520
  -9  19   7  678384   55271
   9  19  -6  269994   34110
  -9  19   6  267521   43684
   9  19  -6  186062   39457
   9  19  -5  439395   45005
   9  19  -5  323658   48594
  -9  19   5  382759   53450
  -9  19   4  136450   28675
   9  19  -4  144620   27320
  -9  19   4  159257   37156
  -9  19   3 1759786  108031
  -9  19   3 1586333  114160
   9  19  -2   11999   15829
  -9  19   2   19861   15098
  -9  19   2    9898   13241
  -9  19   1 3508268  143571
   9  19  -1 3335891  141137
  -9  19   0  354170   47087
   9  19   0  359699   49944
  -9  19  -1  607369   53288
   9  19   1  585124   57625
   9  19   2   18547   11651
  -9  19  -2   18526   12530
  -9  19  -3 1056685   66890
   9  19   3 1078194   76308
  -9  19  -4  845314   56837
   9  19   4  750992   58667
   9  19   5  610472   50528
   9  19   6  532811   40264
  -9  21   6    2689    4983
   9  21  -5  590518   43651
  -9  21   5  526475   47545
   9  21  -4  155344   24302
  -9  21   4  130537   26383
   9  21  -3  549244   47792
  -9  21   3  492812   50501
  -9  21   2  203407   32734
  -9  21   2  168027   29899
   9  21  -2  179833   32768
   9  21  -1    8149    8762
  -9  21   1   12681   12005
  -9  21   0  297270   36165
   9  21   0  272790   39085
   9  21   1  263740   38398
   9  21   2   27249   13239
  -9  21  -3  983751   55161
   9  21   3 1055691   66547
   9  21   4  179086   26773
   9  23  -3  170675   22241
   9  23  -2       4    5264
   9  23  -1   36054   12699
   9  23   0   22713    9189
   9  23   1   32336   14364
   9  23   2   30871   14609
  10   0 -11  372865   44160
 -10   0  10  761252  117352
 -10   0   9  417408   67826
  10   0  -9  478435   55129
 -10   0   8   86468   26329
  10   0  -8  104360   22980
 -10   0   7  362927   55451
 -10   0   6 1081283   77257
  10   0  -6 1162855  105263
  10   0  -5 1225500   81341
 -10   0   5 1299162   69316
  10   0  -4 5998465  182862
  10   0  -3 5623283  161016
  10   0  -2 3466387  115086
  10   0  -1 6756395  199437
  10   0   0 4646136  187275
  10   0   1 1074912   85882
  10   0   2 1718605  143432
  10   0   3 4201572  320003
 -10   0  -414396845  281822
  10   0   414369056  580250
 -10   0  -5  179009   28658
  10   0   5  153055   76727
 -10   0  -5  171203   30390
  10   0   6 2510873  280023
 -10   0  -6 3050090  154985
  10   0   7 2993238  304710
 -10   0  -7 4158995  195699
 -10   0  -8  447934   59641
 -10   0  -9  246828   45956
 -10   0 -10  470995   52217
  10  -2 -11  540625   55281
  10   2 -10     251    5615
  10   2 -10     251   13373
 -10  -2   9  964931   93398
 -10   2   9 1222562  107585
  10   2  -9 1269970   86942
 -10   2   9 1013265  152995
 -10  -2   8  629256   70345
 -10   2   8  676749   74753
 -10  -2   7  836734   76769
 -10   2   7  867526   79047
  10   2  -7  904181   68102
  10   2  -7  907408  109901
 -10  -2   6  320792   49987
 -10   2   6  375356   53356
  10   2  -6  357472   72999
  10  -2  -5 1068251   86054
  10   2  -5  991017   99112
 -10  -2   5 1163440   79758
 -10   2   5 1238454   81670
  10  -2  -4 1429403   99880
  10   2  -4 1135621  104782
  10   2  -3 7707856  224457
  10  -2  -3 7429686  187102
  10  -2  -2 3676538  129367
  10   2  -2 3718255  148269
  10   2  -1   71612   17709
  10  -2   0 2811074  170275
  10   2   1   17131   13981
  10  -2   1   15370   29337
  10  -2   2 4993447  338460
  10   2   2 4432832  228824
  10   2   3   26134   22531
  10  -2   3  103364   38441
 -10   2  -412527227  281084
 -10   2  -413966807  293673
 -10  -2  -414079215  307882
  10  -2   414232976  754898
  10   2   412737861  509274
 -10   2  -5  232324   35017
 -10   2  -5  229768   35113
  10   2   5  198864   50021
 -10  -2  -5  248393   38992
  10  -2   5  240592   87506
 -10   2  -6 2410628  142031
 -10   2  -6 2523203  137860
  10   2   6 2028807  223982
 -10  -2  -6 2489407  147966
  10  -2   6 2252313  316908
 -10   2  -7  565379   71819
  10  -2   7  330118  125383
 -10   2  -7  537332   75535
 -10  -2  -7  535109   76203
 -10  -2  -8  290821   56491
 -10   2  -8  343546   59935
 -10   2  -9   30019   19114
 -10  -2  -9   39696   21885
 -10  -2 -10  403238   50741
 -10   2 -10  373299   47518
  10  -4 -11  213658   32761
  10   4 -10  104712   25543
 -10   4  10  117798   49536
 -10   4   9 1287617  108233
  10   4  -9 1409850   92881
  10   4  -9 1294541   86824
 -10   4   9 1245060  163768
 -10  -4   8  535238   61845
 -10   4   8  631018   69261
 -10   4   8  776142  134207
  10   4  -8  649402   57463
 -10  -4   7  748946   74793
 -10   4   7  891495   84047
  10   4  -7  889937   73300
  10   4  -7  815332  112624
 -10  -4   6  377733   47368
 -10   4   6  569738   59535
  10   4  -6  583370   85751
  10   4  -5 1486667  131652
 -10   4   5 1704166  100102
  10   4  -4 1661974  146510
 -10   4   4 1889100  107836
  10  -4  -3  978812   57154
  10   4  -3  964360   79580
  10   4  -2 6403310  222797
  10  -4  -2 6062319  162837
  10  -4  -1   62040   10185
  10   4  -1   39310    7851
  10  -4   0  156670   26982
  10   4   0  106841   14852
  10  -4   1 6774788  395555
  10  -4   2 7515702  475553
  10   4   2 6546787  251646
 -10   4  -3   25795   17945
  10  -4   3   66141   98193
  10   4   3    9018   22180
 -10  -4  -3   19416   17771
 -10   4  -4 1710992  116702
  10   4   4 1587618  169977
  10  -4   4 1877065  340835
 -10   4  -4 1661208  108805
 -10  -4  -4 1641419  116535
 -10   4  -5    3414   10770
  10  -4   5    3414   65955
 -10   4  -5    3414    9692
 -10  -4  -5    3408   10736
  10   4   5    3408   33526
 -10   4  -6 1671012  116861
  10   4   6 1549906  176485
 -10   4  -6 1704814  117569
 -10  -4  -6 1696702  122824
  10  -4   6 1741012  313991
 -10   4  -7   70528   35054
 -10   4  -7   58455   33327
 -10  -4  -7   41536   30385
 -10   4  -8  343682   46195
 -10   4  -8  431952   55930
 -10  -4  -8  306326   47166
 -10   4  -9  146720   36384
 -10  -4  -9  113423   33178
 -10  -4 -10  761180   63263
  10  -6 -11  327324   42240
  10   6 -10   13574    9810
  10   6 -10    7947    7650
 -10   6   9 1005238   99740
  10   6  -9 1008090   83215
  10   6  -9  935542   79044
 -10   6   9  861025  133219
 -10   6   8  239190   46087
  10   6  -8  247175   42141
  10   6  -8  285471   42303
 -10   6   8  178980   63081
 -10   6   7  490132   64334
 -10   6   7  474752  109613
  10   6  -7  526182   59428
  10   6  -7  541715   95224
 -10   6   6 4276091  161560
 -10   6   6 4071192  299839
  10   6  -6 4181238  234450
  10   6  -5  974137  102918
 -10   6   5  930768  129368
 -10   6   5 1172487   77628
  10   6  -4 2747289  152379
 -10   6   4 2729703  192365
 -10   6   4 3007696  107525
 -10   6   4 2591158   77619
  10   6  -3 1421800  118327
  10   6  -2 3171258  157696
  10   6  -1  130475   35243
  10  -6  -1  192953   47747
  10   6   0 2101555  115100
  10  -6   0 2504591  212444
  10   6   1 2051820  122969
  10  -6   1 2568563  288387
 -10   6  -2  942854   81866
  10  -6   2 1341449  258055
 -10   6  -3 1355886  101317
  10  -6   3 1543313  304151
 -10  -6  -3 1167405   90652
 -10   6  -3 1375827   90023
 -10   6  -3 1214089   65257
  10  -6   4 1280684  282400
 -10   6  -4 1146646   90772
 -10   6  -4 1222404   84681
 -10  -6  -4 1096941   86881
 -10   6  -5   63317   24449
 -10   6  -5   80363   25154
 -10  -6  -5   89228   29545
 -10   6  -6 1810181  123784
 -10   6  -6 1902778  120617
 -10  -6  -6 1635587  118302
 -10   6  -7   42403   25575
 -10   6  -7   55664   26606
 -10  -6  -7   37630   18643
 -10  -6  -8  629023   71830
 -10   6  -8  687492   74338
 -10   6  -8  796716   78631
 -10   6  -9   22126   17032
 -10  -6  -9   56916   28622
 -10  -6 -10  129711   24581
  10  -8 -11  159109   26929
  10   8 -10   11447   11248
  10   8 -10     590   10735
 -10   8   9  162074   41895
  10   8  -9  157557   35039
 -10   8   9  191830   64152
  10   8  -9  198154   39060
 -10   8   8  315310   57787
  10   8  -8  394762   57422
 -10   8   8  264992   83452
  10   8  -8  363149   52715
 -10   8   7   73795   25095
  10   8  -7   93862   41560
 -10   8   7   96525   52612
  10   8  -7  106468   29750
 -10   8   6  370856   59271
 -10   8   6  426306  112591
  10   8  -6  375000   88341
  10   8  -5  549003   72582
 -10   8   5  468014   42216
 -10   8   5  478559   35978
 -10   8   5  471980   80269
 -10   8   5  486499   44645
  10   8  -4  703066   91553
 -10   8   4  765132  114015
 -10   8   4  789461   62072
 -10   8   4  707577   48964
  10   8  -4  777616   52962
  10   8  -3  720091   99221
 -10   8   3  732826  116986
 -10   8   3  788697   56885
 -10   8   3  899600   71028
  10   8  -2  209891   45011
  10   8  -1   19748   18031
  10  -8   0  108203   74766
  10   8   0  106663   39918
  10   8   1  362568   55165
 -10   8  -1  298937   47249
  10  -8   1  476952  145759
 -10   8  -2 1170807   59806
  10   8   2 1370384  110604
 -10   8  -2 1300750   98879
  10  -8   2 1488682  280436
 -10   8  -3    8439   17411
 -10   8  -3    2386    6915
 -10  -8  -3    2436    9863
  10   8   3    9277   10755
 -10   8  -4  777052   76151
 -10  -8  -4  610718   62724
  10  -8   4  730805  209114
 -10   8  -4  685256   50770
 -10   8  -5      17   18345
 -10  -8  -5     889    8900
 -10   8  -6 1062896   97055
 -10  -8  -6  883488   84633
 -10   8  -7  132576   35539
 -10  -8  -7  125574   31050
 -10  -8  -8  224773   45026
 -10   8  -8  233807   46774
 -10   8  -9    3596    9045
 -10  -8  -9    5180    8860
  10  10 -10  113947   24817
  10  10 -10  153369   33349
  10 -10 -10  102470   21658
  10  10  -9    7644   13275
  10  10  -9     572    9472
 -10  10   8    1169   15222
  10  10  -8    1078   12817
  10  10  -8    3658   14642
 -10  10   7  978889   91482
  10  10  -7 1070167   90072
 -10  10   7 1083057  161056
 -10  10   6 1453447  100320
 -10  10   6 1321471   77479
 -10  10   6 1312383  168661
  10  10  -6 1693447  107893
  10  10  -6 1677123  167704
 -10  10   5  153475   31617
 -10  10   5  149720   26375
 -10  10   5  146516   62042
  10  10  -5  173305   53312
 -10  10   4  400914   40222
 -10  10   4  338864   66799
 -10  10   4  358009   33524
 -10  10   4  366755   39059
  10  10  -4  397690   37318
  10  10  -4  240037   51922
  10  10  -3   36596   11894
  10  10  -3    7957   16273
 -10  10   3   56554   14183
 -10  10   3   24439   26100
 -10  10   3   52308   15280
  10  10  -2  296763   34806
  10  10  -2  298382   59175
  10  10  -2  303419   33811
 -10  10   2  361817   39959
  10  10  -1  784261   62964
  10  10  -1  753327   96691
  10  10  -1  824597   62214
  10  10   0 6893241  161397
  10  10   0 6974932  164551
  10  10   0 6742592  236737
  10  10   1 1364087   77940
 -10  10  -1 1094788   56547
 -10  10  -1 1074336   89092
  10  10   1 1293462  105542
 -10  10  -2  620676   42830
 -10  10  -2  705503   69629
  10 -10   2  713379  181652
  10  10   2  687212   71758
  10  10   3  106100   28958
 -10  10  -3   62415   23625
 -10  10  -3   86993   17161
 -10  10  -4  875088   62828
 -10 -10  -4  735622   73302
 -10  10  -4  997312   95232
  10 -10   4  865582  251874
 -10  10  -5   70789   23534
  10 -10   5   15725   63564
 -10 -10  -5   22831   10197
 -10  10  -6  179838   41765
 -10 -10  -6  112987   27394
 -10  10  -7  181948   42342
 -10 -10  -7  139534   32140
 -10  10  -8  648714   71446
 -10 -10  -8  619472   63514
 -10 -10  -9  271028   37054
 -10  10  -9  223327   35738
  10  12 -10      37   10895
  10  12  -9   20354   16531
  10  12  -9   15433   17646
  10  12  -8   16996   12384
  10  12  -8   12149   10377
 -10  12   7  357324   61758
  10  12  -7  319740   53795
  10  12  -7  293492   53775
 -10  12   6  118491   29414
 -10  12   6  110556   24240
  10  12  -6  163887   35316
 -10  12   5    3773   10981
 -10  12   5    5756   10774
  10  12  -5    6018    9471
  10  12  -5   18924   20442
  10  12  -4    5751   13977
 -10  12   4    8838    7681
 -10  12   4    3872   12902
  10  12  -4   18276   29410
 -10  12   4    5019    8280
  10  12  -3  158337   49636
  10  12  -3  187141   33778
 -10  12   3  173071   30126
  10  12  -2   99099   21398
  10  12  -2  100735   36661
 -10  12   2   93503   20769
  10  12  -1   32950    6673
  10  12  -1   93659   11499
  10  12  -1   52591   10028
 -10  12   1   88293    9451
  10  12   0 1431632   79258
  10  12   0 1302548  112029
 -10  12   0 1292245   82134
  10  12   0 1397496   75442
  10  12   1 2037440   98811
 -10  12  -1 1724617   77198
  10  12   1 2052208  101306
 -10  12  -1 1680399  113016
  10  12   1 2119681  143260
  10  12   2  481760   48932
 -10  12  -2  441429   40190
 -10  12  -2  429615   56666
  10 -12   2  544940  166437
  10  12   3   40989   10692
 -10  12  -3   27537   12593
 -10  12  -3   25873    8881
 -10  12  -4   54411   22619
 -10  12  -4   45112   16341
 -10  12  -5   44495   34346
 -10  12  -6   17988   16899
 -10  12  -7  381455   61480
 -10 -12  -7  418399   53914
  10  12   8   60842   14784
 -10  12  -8   77651   22863
 -10 -12  -8   61752   15926
  10  12   9   43718   13056
  10  14  -9   33271   15901
  10  14  -8  122549   30140
  10  14  -8  172163   40274
  10  14  -7   13028   12753
  10  14  -7     374   17064
  10  14  -6 1928589   91661
 -10  14   6 1672138   92727
  10  14  -6 1946765  113917
  10  14  -6 2018617  123262
 -10  14   5   14356   13363
  10  14  -5   14248   12442
  10  14  -5   24086   21835
 -10  14   4    4567    7678
  10  14  -4    8409   14271
  10  14  -4   10852   13283
  10  14  -3  479688   87381
 -10  14   3  596696   57564
  10  14  -3  625922   59994
  10  14  -2   38155   32964
  10  14  -2   26102   19265
 -10  14   2   23284   18631
  10  14  -1 1082838   82642
  10  14  -1 1010372  122673
 -10  14   1 1092057   78382
 -10  14   1  967553   88399
  10  14  -1 1111225   79191
  10  14   0 1589963   89655
  10  14   0 1516363   84122
 -10  14   0 1553236   82915
 -10  14   0 1473148   89504
  10  14   1     806    9222
  10  14   1    4386   12491
 -10  14  -1   10933    7062
 -10  14  -1    7725    7220
  10  14   2  213501   34373
 -10  14  -2  218215   29807
  10  14   2  212890   36119
 -10  14  -2  211757   39626
 -10  14  -2  218156   31377
  10  14   3  695354   68742
 -10  14  -3  667288   58543
  10  14   3  704249   70356
 -10  14  -3  710743   82531
  10 -14   3  675782  229161
  10  14   4  972957   75613
 -10  14  -4 1043324   68811
  10  14   4 1006669   75850
 -10  14  -4 1107624   96786
  10  14   5      11   15069
  10  14   5      11   11472
 -10  14  -5     296   14725
  10  14   6  122585   31125
  10  14   6   82185   23229
 -10  14  -6  109630   38219
  10  14   7   11889   12077
  10  14   7    6895    7934
 -10  14  -7    5006   10962
  10  14   8     117    4960
 -10  14  -8    2935   10090
 -10  16   8  177506   27824
  10  16  -8  164421   30853
  10  16  -7    4266   10460
  10  16  -7   14903   15873
  10  16  -6  155457   30027
  10  16  -6  152055   26132
  10  16  -6  166280   34258
 -10  16   5  110256   25191
  10  16  -5  144175   26302
  10  16  -5  121360   28288
 -10  16   4  121272   21514
  10  16  -4  164489   29471
 -10  16   3  527278   56645
  10  16  -3  521864   56784
  10  16  -3  573668   60547
 -10  16   2  144635   36503
  10  16  -2  136125   36280
 -10  16   2  138761   41873
  10  16  -1   64104   13748
 -10  16   1   88894   19538
 -10  16   1   50573   17191
  10  16   0   85331   22372
  10  16   0   54468   16270
 -10  16   0   70678   18349
 -10  16   0   56784   17427
  10  16   1   81141   21871
  10  16   1   61771   17256
 -10  16  -1   70640   17043
 -10  16  -2 1043507   63094
  10  16   2 1180143   81032
 -10  16  -2 1277101   72460
  10  16   2 1107927   75764
 -10  16  -3  240051   31487
  10  16   3  218793   35430
 -10  16  -3  266135   44476
  10  16   3  255293   38105
 -10  16  -4 1278822   79024
  10  16   4 1198041   85764
 -10  16  -4 1293618  105463
  10  16   4 1218611   86009
  10  16   5  272374   39785
 -10  16  -5  341977   55626
  10  16   5  266185   40840
  10  16   6   53339   17831
  10  16   6   51824   16489
  10  16   7   61572   17131
 -10  16  -7   77774   25712
  10  18  -7   18777   15382
 -10  18   7   15937    9770
  10  18  -6    1669    6899
  10  18  -6   16295   15256
 -10  18   6    6699   13677
  10  18  -5  167424   28593
  10  18  -5  107871   29504
 -10  18   5  143939   36149
 -10  18   4  518791   52544
  10  18  -4  547685   48486
  10  18  -4  533481   54830
 -10  18   4  436169   56854
 -10  18   3  334628   43456
 -10  18   3  285537   45444
  10  18  -3  339900   44347
  10  18  -2   13748   14434
 -10  18   2      40    8052
 -10  18   2    6060   10843
  10  18  -1   26892   12072
 -10  18   1   42458   12685
 -10  18   1   35399    8298
  10  18   0   22539    9507
 -10  18   0   17831   11980
 -10  18   0   67704   12670
  10  18   1   14989   15011
 -10  18  -1   14545    9484
 -10  18  -2  372970   39966
  10  18   2  375243   49470
  10  18   2  403867   48213
 -10  18  -3  256388   30502
  10  18   3  289675   38970
  10  18   3  222809   33260
  10  18   4  421898   49616
  10  18   4  432092   49725
 -10  18  -4  433546   45008
  10  18   5   65114   19219
  10  18   5   63610   18563
  10  18   6  356834   37251
 -10  20   6  210470   33084
  10  20  -5  271960   30257
 -10  20   5  221325   33380
  10  20  -4 1362369   75915
 -10  20   4 1209612   86826
 -10  20   3  904900   72416
  10  20  -3  895691   65420
 -10  20   3  790709   71345
 -10  20   2 1301421   84781
 -10  20   2 1235963   83858
  10  20  -2 1399701   89047
 -10  20   1  449286   52683
  10  20  -1  423962   52922
  10  20   0   51080   20378
 -10  20   0   78729   21547
  10  20   1   61030   16677
 -10  20  -1   82969   18493
  10  20   2  995878   71636
  10  20   3  188830   29492
 -10  20  -3  175196   24527
  10  20   4 2379099   98951
  10  20   5   11420    8902
  10  22  -4 1039587   57503
 -10  22   4  886240   59138
  10  22  -3  176769   24122
  10  22  -2 1208251   67345
  10  22  -1   10329    8842
  10  22   0  187431   29510
  10  22   1  267475   32617
  10  22   2 1015324   65100
  10  22   3    1661    8512
 -11   1  11    1788   24004
 -11  -1  11    1807   22026
  11  -1 -11   23301    9933
 -11  -1  10    2607   22076
 -11   1  10   19889   22357
 -11  -1   9  467546   59488
 -11   1   9  511941   63419
  11   1  -9  615931   54345
 -11  -1   8  102397   36168
 -11   1   8  106470   37612
  11  -1  -8  133547   31500
 -11  -1   7    1491   12207
 -11   1   7    2385   19356
  11   1  -7     456    8197
 -11  -1   6  121029   24463
 -11   1   6  151500   27093
  11   1  -6   59509   22164
  11  -1  -5  675917   71657
  11   1  -5  785208   81845
 -11  -1   5  860250   66135
 -11   1   5  844986   65723
  11  -1  -4      16    9859
  11   1  -4    5235   18286
 -11   1   4    4750   12012
  11   1  -3  689673   42417
  11  -1  -3  694890   39092
  11   1  -2  944871   79055
  11  -1  -2  935432   74667
  11   1  -1 2052954   60119
  11  -1  -1 2045532   58816
  11  -1   0  226442   26506
  11   1   1  380217   91650
  11  -1   1  357950   97555
  11   1   2   75433   17766
  11  -1   2   36732   24783
 -11   1  -3   11849   10491
  11   1   3     509   15541
  11  -1   3    1590   27532
 -11  -1  -3    3936    9544
 -11   1  -4  203732   32554
 -11  -1  -4  219372   35530
  11   1   4  182436   59249
  11  -1   4  288357   91906
 -11   1  -4  276663   38700
 -11   1  -5  393040   44486
 -11  -1  -5  384435   47770
  11   1   5  292617   72430
  11  -1   5  389236  108398
 -11   1  -5  426288   48704
 -11  -1  -6  783120   78015
 -11   1  -6  857112   74270
 -11   1  -6  835037   79035
  11   1   6  565983  111285
  11  -1   6  609963  134385
 -11   1  -7  847724   80533
 -11  -1  -7  809532   79153
 -11   1  -8  680094   74044
 -11  -1  -8  653776   73288
 -11   1  -9  316661   50537
 -11  -1  -9  352922   53634
 -11   1 -10       8    9491
 -11  -1 -10    8880   12769
  11  -3 -11   41647   13948
 -11  -3  11    3349   17524
  11   3 -10    8157    6295
 -11   3  10     601   23227
 -11  -3   9   17731   14630
 -11   3   9   26707   17448
  11   3  -9   16466   12478
 -11   3   9   51085   45480
 -11  -3   8  227560   47535
 -11   3   8  262009   52143
  11   3  -8  242219   40122
 -11  -3   7   70383   27206
 -11   3   7  123211   36295
  11   3  -7  129438   49983
  11   3  -7  133709   32672
 -11  -3   6    2970    9051
 -11   3   6      53   11453
 -11   3   6      53   13678
  11   3  -6   22399   17173
  11   3  -5 3676781  203691
 -11  -3   5 3660165  147687
  11  -3  -4  354342   29021
  11   3  -4  349423   36836
 -11   3   4  347801   26535
  11  -3  -3      82   10348
  11   3  -3     381   14112
  11   3  -2   99241   18088
  11  -3  -2  120567   17461
  11   3  -1  884026   68791
  11  -3  -1  923805   80525
  11  -3   0     523   16450
  11   3   0    6652   16105
  11  -3   1    2684   32598
  11   3   2  657123  105085
  11  -3   2  719461  159045
 -11  -3  -3  474336   62961
 -11   3  -3  532865   66254
  11  -3   3  684628  176282
 -11   3  -3  636856   67334
  11   3   3  497191   96436
 -11   3  -4  277537   34544
 -11   3  -4  343839   36796
  11   3   4  304526   51935
 -11  -3  -4  287980   34533
 -11   3  -5   35577   17334
  11   3   5   27713   27962
 -11   3  -5   25592   15295
  11  -3   5   82790   88994
 -11  -3  -5   19064   15715
 -11   3  -6   25776    9859
  11   3   6  100753   20698
  11  -3   6   81965   77147
 -11   3  -6    6619   15885
 -11  -3  -6    6519   11921
 -11   3  -7  614641   68722
 -11   3  -7  561825   69450
 -11  -3  -7  462081   62452
 -11   3  -8   55575   21717
 -11   3  -8   89689   28203
 -11  -3  -8   64951   27487
 -11   3  -9   23791   15304
 -11  -3  -9   37664   17252
 -11   3 -10   14585   12760
 -11  -3 -10   12052   12545
  11  -5 -11   22821   13157
  11   5 -10  265445   41586
 -11   5  10  252335   70530
 -11   5   9   35059   19027
  11   5  -9   10667    8292
 -11   5   9     369   30526
  11   5  -9    6900    9215
 -11   5   8  631372   70553
 -11   5   8  583967  116162
  11   5  -8  679832   62380
  11   5  -7    1061   16570
 -11   5   7    9326   14169
 -11   5   7   22654   38353
  11   5  -7   13352   13279
 -11   5   6  243989   37051
  11   5  -6  238404   52933
  11   5  -5    4073    9913
 -11   5   5   11511    7789
  11   5  -4  623117   87920
 -11   5   4  677189   61777
  11   5  -3  478340   46171
 -11   5   3  505282   34630
  11   5  -2  226013   54863
  11  -5  -2  222052   39137
  11   5  -1 1636200  114662
  11  -5  -1 1742872  133664
  11   5   0 7878979  250653
  11  -5   0 8727326  389511
  11  -5   1    4732   31151
  11   5   1     928   13526
 -11   5  -2  290181   45734
  11  -5   2  303854  115256
 -11   5  -3   92442   21042
  11  -5   3   38179   64004
 -11   5  -3  101943   18370
 -11  -5  -3   88753   17782
 -11   5  -4   38331   22330
  11  -5   4   30825   76546
 -11   5  -4   62968   24361
 -11  -5  -4   34605   21613
 -11   5  -5  752760   73760
 -11   5  -5  737090   69721
 -11  -5  -5  683885   70714
  11  -5   5  752057  202800
 -11   5  -6   69329   29405
  11  -5   6   49158   63230
 -11   5  -6   49129   24506
 -11  -5  -6   68576   27875
 -11  -5  -7  971382   91464
 -11   5  -7 1026125   92776
 -11   5  -7 1066403   94832
 -11   5  -8     741   11808
 -11  -5  -8    2609   16529
 -11   5  -8     741   14266
 -11  -5  -9  282836   45674
 -11   5  -9  353513   48675
 -11  -5 -10   80409   22945
  11  -7 -11    9237   10534
  11   7 -10  463713   51708
  11   7 -10  377399   50460
 -11   7   9  211015   38937
  11   7  -9  272751   38649
  11   7  -9  278691   37401
 -11   7   9  334774   73897
 -11   7   8    3547   11777
  11   7  -8    1108   16287
 -11   7   8    3108   23947
  11   7  -8    1108   11959
 -11   7   7  252993   39899
 -11   7   7  259878   69671
  11   7  -7  309630   41575
  11   7  -7  253647   57867
 -11   7   6 3842231  147708
 -11   7   6 4087435  287743
  11   7  -6 3934638  224077
  11   7  -5  714480   98981
 -11   7   5  615651   47559
 -11   7   5  668345  118875
 -11   7   5  721653   65821
  11   7  -4 2005048  147178
 -11   7   4 2085528  185124
 -11   7   4 1854277   74263
 -11   7   4 2109867   98589
  11   7  -3 1606141  138300
 -11   7   3 1782033   98713
 -11   7   3 1677849  171293
  11   7  -2 5138360  222946
 -11   7   2 5546027  167968
  11  -7  -1  163574   42814
  11   7  -1  196511   42235
  11  -7   0 7272187  384888
  11   7   0 6019911  216067
  11   7   1 3535276  178212
 -11   7  -1 2798834  149797
 -11   7  -2  424268   31489
 -11   7  -2  452705   54682
  11   7   2  454808   58645
 -11   7  -2  621216   56707
  11  -7   2  487633  140487
 -11   7  -3 1151639   93513
 -11  -7  -3  944842   80164
 -11   7  -3 1369206   89799
  11  -7   3 1235810  266172
 -11   7  -4    8655    7268
 -11   7  -4    5961   16650
  11  -7   4   17683   70766
 -11  -7  -4   18139   12885
 -11   7  -5  644711   72736
 -11   7  -5  756810   72908
 -11  -7  -5  549533   63835
  11  -7   5  561452  181080
 -11   7  -6  545523   63941
 -11   7  -6  615607   62868
 -11  -7  -6  455939   55365
  11  -7   6  501412  173883
 -11   7  -7  740682   78199
 -11  -7  -7  655242   70229
 -11   7  -8     648   11860
 -11  -7  -8     641   12748
 -11  -7  -9 1227018   86601
  11   9 -10  523865   55068
  11   9 -10  483386   58245
 -11   9   9  737773   84842
  11   9  -9  837835   78964
  11   9  -9  929024   82963
 -11   9   8    2243   12404
  11   9  -8    3838   11090
 -11   9   8   16552   35937
  11   9  -8    1431   10364
 -11   9   7  313128   49140
  11   9  -7  357658   49876
 -11   9   7  353009   94352
 -11   9   6  461635   59395
 -11   9   6  324669   89132
 -11   9   6  341401   41614
  11   9  -6  399775   86757
 -11   9   5  238093   38244
 -11   9   5  231846   31019
 -11   9   5  228985   68741
 -11   9   5  245531   40366
  11   9  -5  280872   65341
  11   9  -4 3766029  237607
 -11   9   4 3780776  271930
 -11   9   4 3567947  124087
 -11   9   4 4039907  154687
  11   9  -4 4097206  136327
  11   9  -3  977538  106428
 -11   9   3  945340   57010
 -11   9   3 1050854   69496
 -11   9   3 1001620  120445
  11   9  -3 1049465   60881
  11   9  -2 4590717  127583
  11   9  -2 4999315  223781
 -11   9   2 5190851  155306
  11   9  -2 4856946  126326
  11   9  -1 1674245   87111
  11   9  -1 1660717  135923
  11   9  -1 1760907   86905
  11   9   0 2146248  103363
  11   9   0 2025663  152383
  11   9   1  427979   42700
 -11   9  -1  405873   56602
  11   9   1  404231   58947
  11   9   2  844148  100021
 -11   9  -2  756447   56843
 -11   9  -2  821326   91911
  11  -9   2 1023937  263036
 -11   9  -3 3174727  115675
  11   9   3 3596764  199995
 -11   9  -3 3658958  184096
 -11  -9  -3 2729255  143589
  11  -9   3 4195962  543571
 -11   9  -4   24665   12065
 -11  -9  -4   22714   10969
 -11   9  -5 1447204  124211
 -11  -9  -5 1144923  101069
  11  -9   5 1503994  356958
 -11   9  -6  609057   71009
 -11  -9  -6  528675   58727
 -11   9  -7  375484   54558
 -11  -9  -7  350995   47804
 -11   9  -8  171960   40842
 -11  -9  -8  150613   34531
 -11  -9  -9  966048   69605
  11 -11 -10  301868   34888
  11  11 -10  517301   54775
  11  11  -9   35830   17968
  11  11  -9    8178   13054
 -11  11   8  365843   54110
  11  11  -8  387708   50458
  11  11  -8  360266   50446
 -11  11   7  103024   27923
  11  11  -7  105655   26258
  11  11  -7  126813   31334
 -11  11   6 1753511  112742
  11  11  -6 1950287  118649
 -11  11   5 2499505  125892
 -11  11   5 2710798  114666
  11  11  -4 3275513  216061
 -11  11   4 2939907  123206
 -11  11   4 3344986  120036
 -11  11   4 3901754  146894
  11  11  -4 3679250  132939
  11  11  -3 1610901  154802
 -11  11   3 1710301   88554
 -11  11   3 1929145  102784
  11  11  -3 1764492   93417
  11  11  -2 9163431  204279
  11  11  -2 8290880  323669
 -11  11   2 9481877  201575
 -11  11   210596939  227782
  11  11  -2 9906961  206639
  11  11  -1  148695   15514
  11  11  -1  150491   18066
  11  11  -1  123789   23802
 -11  11   1  175028   19359
  11  11   0 2291330  106036
  11  11   0 2233459  154479
  11  11   0 2239347  101568
  11  11   1 1962772   96446
 -11  11  -1 1641128   71735
  11  11   1 1882953  135420
  11  11   2  854057   70014
 -11  11  -2  751649   55038
 -11  11  -2  744548   84326
  11  11   2  872931   96536
 -11  11  -3 3349534  122085
 -11  11  -3 3754326  189746
 -11  11  -4  401963   59643
  11 -11   4  540703  197375
 -11  11  -4  392181   40981
 -11  11  -5  850543   89564
 -11 -11  -5  691471   68886
 -11  11  -6  929471   85942
 -11 -11  -6  866517   70512
 -11  11  -7 1464689  111493
 -11 -11  -7 1259270   89793
  11  11   8  128989   22604
 -11  11  -8  129915   33551
 -11 -11  -8  169322   32845
  11  11   9  647254   45113
  11  13  -9    1698   11201
  11 -13  -9    1788   11674
  11  13  -9    2735   10808
  11  13  -8 1271127   94492
  11  13  -8 1235766   97852
 -11  13   7    3608    9920
  11  13  -7    3440   15531
  11  13  -7    2676   12248
 -11  13   6 1416578   96984
 -11  13   6 1262140   75786
 -11  13   5 3682441  154720
  11  13  -5 3960196  129852
  11  13  -5 3810979  164862
  11  13  -4 1861392  179820
 -11  13   4 1962330  105979
  11  13  -4 2213891  119370
 -11  13   3 1009676   70048
  11  13  -3 1094786   75752
 -11  13   2 2462203  115320
  11  13  -2 2688819  121048
  11  13  -1    2562    9492
  11  13  -1    3170   11032
 -11  13   1    1522    9300
  11  13   0 1420077   91556
  11  13   0 1422986  138791
 -11  13   0 1464689   88098
 -11  13   0 1338207   92335
  11  13   0 1392351   87937
  11  13   1 1627278   98846
  11  13   1 1535924   91522
  11  13   2 2599332  120127
 -11  13  -2 2282361   95584
  11  13   2 2540514  120985
 -11  13  -2 2442594  143748
  11  13   3 2575024  122099
 -11  13  -3 2553523  103675
  11  13   3 2699853  124949
 -11  13  -3 2608334  149233
 -11  13  -4 1283655   72000
  11  13   4 1244670   82992
 -11  13  -4 1388594  105774
  11  13   5  467483   53133
 -11  13  -5  475235   64944
  11  13   6  100375   26097
  11  13   6  100537   25250
 -11  13  -6  118872   33608
  11  13   7  832920   65401
  11  13   7  766833   55662
  11  13   8   17309   10323
 -11  13  -8   43416   20298
  11  15  -9    9381   11936
  11  15  -8 1895265  100580
  11  15  -8 2005223  114350
  11  15  -7     282   10411
  11  15  -7    2991   14913
 -11  15   6   67166   11773
  11  15  -6  116899   21261
  11  15  -6   95265   20624
 -11  15   5  261509   42999
  11  15  -5  314991   41281
  11  15  -5  344970   50594
  11  15  -5  341534   54168
 -11  15   4 1900002  107664
  11  15  -4 1705502  113195
  11  15  -3  161202   31196
 -11  15   3  166875   30007
  11  15  -3  132226   42694
  11  15  -3  143071   32392
  11  15  -2  789535  108440
 -11  15   2  839782   73593
  11  15  -2  895250   76956
 -11  15   1 2338927  127564
  11  15  -1 2568037  116987
 -11  15   1 2578370  118236
  11  15   0 5225823  178672
 -11  15   0 5425273  170256
 -11  15   0 5024105  171915
  11  15   0 5130798  168553
  11  15   1   91093   24289
  11  15   1   93027   25297
 -11  15  -1   98366   22342
 -11  15  -2  299561   37235
  11  15   2  310892   46166
 -11  15  -2  326151   41191
  11  15   2  310083   44235
  11  15   3    4556   11689
  11  15   3    4556    9577
 -11  15  -3    4705   19595
 -11  15  -3    6441    9834
  11  15   4  758530   69773
  11  15   4  787485   72187
 -11  15  -4  823213   88312
 -11  15  -4  807267   62518
  11  15   5 2289651  117320
  11  15   5 2237079  112480
 -11  15  -5 2581886  152738
  11  15   6   77313   21342
  11  15   6   59159   17829
 -11  15  -6  118746   32744
  11  15   7  912350   60598
  11  15   7  855174   52315
  11  17  -8  349844   47642
 -11  17   8  279864   36004
  11  17  -7   77347   23918
 -11  17   7   74771   24198
  11  17  -6 1073803   67516
  11  17  -6  942365   82241
  11  17  -5   73325   18124
 -11  17   5   52095   16131
  11  17  -5   50831   19060
 -11  17   4 1400035   90088
  11  17  -4 1379488   92132
 -11  17   4 1280190  106384
 -11  17   3  411569   53756
  11  17  -3  345892   46494
 -11  17   3  349007   58685
  11  17  -3  378114   52406
 -11  17   2 1204102   83026
 -11  17   2 1061091   87298
  11  17  -2 1220170   85152
 -11  17   1  403076   49397
 -11  17   1  341669   48867
  11  17  -1  430748   50263
 -11  17   0  338881   45259
 -11  17   0  302681   42001
  11  17   0  288438   42877
  11  17   1  284796   45341
 -11  17  -1  355444   45653
  11  17   1  363421   48424
 -11  17  -2  615383   52611
  11  17   2  732485   71226
 -11  17  -2  771977   62997
  11  17   2  715633   67446
 -11  17  -3  637668   53251
  11  17   3  630061   62249
  11  17   3  599888   59290
  11  17   4   37925   10677
  11  17   4   39565   10126
  11  17   5  325928   38056
  11  17   5  329056   39273
  11  17   6  589226   42136
  11  17   6  627643   46817
  11  17   7  547815   37594
 -11  19   7   51942   15612
  11  19  -6  629362   56980
 -11  19   6  672602   58105
  11  19  -5  161998   24489
  11  19  -5  175466   30103
 -11  19   5  163268   30070
 -11  19   4  341133   41607
  11  19  -4  422516   40948
 -11  19   4  326910   45968
 -11  19   3   20821   10208
 -11  19   3   11593   11754
 -11  19   2 3768894  148788
  11  19  -2 3742254  148816
 -11  19   1 2316408  113745
 -11  19   1 2092013  106010
 -11  19   0  484709   53405
  11  19   0  502374   56155
 -11  19  -1  510097   49855
  11  19   1  466163   51465
  11  19   2 1090794   75232
  11  19   3  251085   37272
  11  19   4  307432   37481
  11  19   5 2195388   90252
 -11  21   5   16949   11456
  11  21  -4  607312   45933
 -11  21   4  474963   46253
 -11  21   3   23896   12726
  11  21  -3    8241    6761
 -11  21   3    5619    8119
 -11  21   2  175547   30554
  11  21  -2  152609   30170
  11  21  -1   28616   15139
 -11  21   1   18461    9694
  11  21   0   84902   21902
 -11  21   0   54057   16146
  11  21   1 1059821   70257
  11  21   2  619002   50395
  11  21   3  574964   46668
  11  21   4  212785   27451
  11  23  -2       5    4628
  11  23  -1   26797    9224
  11  23   0    8628    7120
  11  23   1  273153   30975
 -12   0  11  144730   46454
  12   0 -11  251770   38605
 -12   0  10    3908   35386
 -12   0   9  118534   31705
  12   0  -9  179789   29151
 -12   0   8  271485   35996
 -12   0   7 3028918  130817
 -12   0   6 1124436   93641
  12   0  -6 1165444  123584
  12   0  -5 1901087  155531
 -12   0   5 1937540  123621
  12   0  -4  230165   58945
 -12   0   4  179622   42466
  12   0  -312388249  317853
  12   0  -2 3945415  161747
  12   0  -1 3670545  183662
  12   0   0  432280  101485
  12   0   1 3904889  208884
  12   0   2  313957   52638
 -12   0  -3 4998224  176883
  12   0   3 4661022  299905
 -12   0  -410136719  253277
  12   0   4 9355698  443543
 -12   0  -5 4745360  186875
  12   0   5 4732957  370312
 -12   0  -6  509633   70270
  12   0   6  461330  105327
 -12   0  -7 2509613  158294
 -12   0  -8 1293359  114148
 -12   0  -9  447062   61802
 -12   0 -10   58208   22348
 -12  -2  11   34332   26903
 -12   2  11   88280   33236
  12  -2 -11   83232   22086
  12   2 -10 1592464   87569
 -12   2  10 1194729  146255
 -12  -2   9  783049   81445
 -12   2   9 1053185   96674
  12   2  -9 1166072   81278
 -12   2   9  825504  137214
 -12  -2   8  783330   79017
 -12   2   8  965509   88881
 -12  -2   7  945592   73093
 -12   2   7  823324   71334
  12   2  -7  962780  103669
  12   2  -6  610536   89091
 -12  -2   6  539660   59317
 -12   2   6  639004   66215
  12   2  -5 1192585  100011
 -12  -2   5 1139077   71808
 -12   2   5 1275303   77220
  12  -2  -4  300245   48327
  12   2  -4  391133   61013
 -12  -2   4  347260   41442
 -12   2   4  371304   44267
  12   2  -3 5097559  205815
  12  -2  -3 4795136  172932
  12   2  -2 1009044   78192
  12  -2  -2  944115   68882
  12   2  -1 4649746  192913
  12  -2  -1 4730926  192313
  12  -2   0   12022   19128
  12   2   1 3385548  195602
  12  -2   1 3353925  227893
 -12   2  -2    1020   13769
  12  -2   2   34428   23440
  12   2   2     454   27726
  12  -2   3 5518213  344391
 -12   2  -3 4851679  162500
  12   2   3 5580450  269719
 -12   2  -3 5964408  177679
 -12  -2  -3 5798529  181448
 -12  -2  -4 1494146   99373
 -12   2  -4 1278956   90119
  12   2   4 1459446  157139
 -12   2  -4 1432186   94387
  12  -2   4 1502284  203167
 -12   2  -5 6774824  223341
 -12   2  -5 6392415  211651
  12  -2   5 6000499  436870
 -12  -2  -5 6741090  227791
  12   2   5 5767353  335966
  12  -2   6 1362524  208694
 -12   2  -6 1671661  115081
 -12   2  -6 1502400  103496
  12   2   6 1319725  161115
 -12  -2  -6 1786264  120224
 -12   2  -7  287126   49842
 -12  -2  -7  307923   58455
 -12   2  -7  353640   60354
 -12   2  -8   32907   21071
 -12  -2  -8    2062   13521
 -12  -2  -9  157759   36521
 -12   2  -9  181764   38258
 -12   2 -10  413558   48375
 -12  -2 -10  464365   51912
  12  -4 -11  134234   24746
  12   4 -10  510854   56714
 -12   4  10  447805   93412
 -12   4   9 1605769  122419
  12   4  -9 1834597  108047
 -12   4   9 1403277  176326
  12   4  -9 1954555  105227
 -12  -4   8  611853   70871
 -12   4   8  765542   81761
 -12   4   8  681669  135294
  12   4  -8  938818   74557
 -12  -4   7   81444   30676
 -12   4   7   94062   32730
  12   4  -7   67319   39151
  12   4  -6  932440  102811
 -12  -4   6  850725   64810
 -12   4   6 1004522   74035
  12   4  -5 1399634  125033
 -12   4   5 1390445   87417
  12   4  -4  460047   68811
 -12   4   4  402267   44594
  12  -4  -3 3636733  116281
  12   4  -3 3976742  167555
 -12   4   3 3805517  122120
  12   4  -2  603114   79688
  12  -4  -2  590024   63415
  12  -4  -1 3555856  157319
  12  -4  -1 3902058  200573
  12   4  -1 3387855  164496
  12   4   0  544753   67975
  12  -4   0  538216   88047
  12  -4   1 2654604  246494
 -12   4  -2  239829   43898
 -12   4  -2  154396   41099
 -12  -4  -2  200560   43360
  12  -4   2  251069   97060
 -12   4  -3 2419647  127371
 -12  -4  -3 2353494  123790
  12   4   3 2522987  183028
  12  -4   3 2700867  292203
 -12   4  -3 2640343  122587
 -12   4  -4  109287   37493
  12   4   4   80144   43898
  12  -4   4   35422   60761
 -12   4  -4  113385   34257
 -12  -4  -4   83476   30312
 -12   4  -5 1343865   97274
  12   4   5 1380165  149294
 -12   4  -5 1508388  100514
 -12  -4  -5 1286584   96421
  12  -4   5 1299199  219780
 -12   4  -6  538588   58759
  12   4   6  619773   96856
 -12  -4  -6  534677   59930
  12  -4   6  490067  120723
 -12   4  -6  533314   58378
 -12   4  -7  941041   93239
 -12  -4  -7  947080   98262
 -12   4  -7 1152901  106561
 -12   4  -8    2706   16428
 -12  -4  -8    5584   15630
 -12   4  -9  420671   61214
 -12  -4  -9  361727   57963
 -12  -4 -10  990380   74516
  12  -6 -11  129453   25319
  12   6 -10  367328   44535
 -12   6  10  322906   66326
 -12   6   9  654090   78675
  12   6  -9  739199   71081
 -12   6   9  542483  112700
  12   6  -9  680032   67105
 -12   6   8  193737   43631
 -12   6   8  166013   62484
  12   6  -8  217970   39531
 -12   6   7   38745   18473
 -12   6   7   40703   41047
  12   6  -7      95   25024
  12   6  -7   28392   14653
 -12   6   6  381152   46128
 -12   6   6  329526   85892
 -12   6   6  161349   40654
  12   6  -6  418100   72346
  12   6  -5 1028776  130211
 -12   6   5 1191521   93286
 -12   6   5 1040950  164335
  12   6  -4  940581  101951
 -12   6   4  856004  122384
 -12   6   4  856191   50326
 -12   6   4  971417   69107
 -12   6   3 2097955  200004
  12   6  -3 2214048  166973
 -12   6   3 2243227  118087
  12   6  -2  183731   46489
 -12   6   2  178920   34675
  12  -6  -1 4446326  170411
  12   6  -1 4222812  196259
  12   6   0   50628   17187
  12  -6   0   40408   24598
  12   6   1  107176   30347
  12  -6   1   72653   44113
 -12   6  -1   49173    9693
 -12   6  -2 1625992  112024
  12  -6   2 2106645  274769
 -12   6  -2 2215713  117264
 -12  -6  -2 1522173  100696
 -12   6  -3 4945808  189677
 -12   6  -3 5699194  182195
 -12  -6  -3 4578855  173194
  12  -6   3 5488852  476854
 -12   6  -4   20914   16059
  12  -6   4   66247   88544
 -12   6  -4   12690    7327
 -12  -6  -4   11597   10180
 -12   6  -5 1256099   99148
 -12   6  -5 1060415   97759
 -12  -6  -5 1060126   94967
  12  -6   5 1228301  259544
 -12   6  -6   88568   27846
 -12   6  -6  165836   34819
  12  -6   6  186054   93110
 -12  -6  -6   94453   24638
 -12   6  -7  877703   91092
 -12   6  -7  983936   93594
 -12  -6  -7  795715   86066
 -12   6  -8     967    8395
 -12   6  -8     967   18124
 -12  -6  -8    5185   14284
 -12  -6  -9  290475   48228
  12   8 -10  192031   32585
  12   8 -10  196292   34300
 -12   8   9  105679   27466
  12   8  -9  110569   25263
 -12   8   9  106671   39721
  12   8  -9  124169   26066
 -12   8   8   57193   19410
  12   8  -8   62931   20024
 -12   8   8    4652   31440
  12   8  -8   42055   15749
 -12   8   7  606891   60039
 -12   8   7  496544   90645
  12   8  -7  697065   60006
 -12   8   6  885412   69597
 -12   8   6  836215  126088
  12   8  -6  852270  105287
 -12   8   5   76055   20540
 -12   8   5   12196   28675
 -12   8   5   75758   18171
 -12   8   5   84586   23145
  12   8  -5  106938   42113
  12   8  -4  548936   92355
 -12   8   4  525253  107141
 -12   8   4  491918   45986
 -12   8   4  529566   57949
  12   8  -3  607405   85353
 -12   8   3  485582   86896
 -12   8   3  564387   52554
  12   8  -2  569207   40946
 -12   8   2  499209   75175
  12   8  -2  485604   64231
 -12   8   2  531000   47190
  12   8  -1  172635   27275
  12   8  -1  170968   43746
  12   8  -1  175748   26510
  12   8   0    2986    8342
  12   8   0    7374   14563
 -12   8   0     892   11248
  12   8   1   17864   13378
 -12   8  -1   20303   18664
 -12   8  -2   55206   12947
 -12  -8  -2   60122   15667
  12  -8   2   92510   68763
 -12   8  -2   76797   20206
  12   8   2   48559   17427
 -12  -8  -3 1332431   99305
 -12   8  -3 1603159  119603
  12   8   3 1539785  129293
 -12   8  -3 2084393  121601
  12  -8   3 1889533  323962
  12   8   4   12609   15926
 -12   8  -4   98872   26558
  12  -8   4   12512   57797
 -12   8  -4   45351    9517
 -12  -8  -4   64498   15553
 -12   8  -5  738356   88272
 -12  -8  -5  640303   75326
  12  -8   5  665496  212265
 -12   8  -5  844129   83716
 -12   8  -6   65133   23932
 -12  -8  -6   99343   26062
 -12   8  -7  267157   51610
 -12  -8  -7  225679   46262
 -12   8  -8   71505   27871
 -12  -8  -8   21396   17598
 -12  -8  -9   11813   10360
  12  10 -10     421    8337
  12 -10 -10     408    6096
  12  10  -9  217656   36350
  12  10  -9  167430   34617
 -12  10   8   40609   19899
  12  10  -8   56966   23380
  12  10  -8   52159   19792
 -12  10   7  368426   58309
 -12  10   7  478657  114031
  12  10  -7  442696   60271
 -12  10   6 1765100  112951
 -12  10   6 1517990   85518
 -12  10   6 1657219  196530
  12  10  -6 1894385  182516
  12  10  -5 1384797  160435
 -12  10   5 1405599  100591
 -12  10   5 1343786  179825
 -12  10   5 1206790   79633
 -12  10   5 1359564  103061
  12  10  -4   52756   30601
 -12  10   4   18763   10448
 -12  10   4   26192   16647
  12  10  -3  552411  102743
 -12  10   3  662890   68244
 -12  10   3  576574   56766
  12  10  -3  674532   62380
  12  10  -2  163756   28027
  12  10  -2  189126   50194
 -12  10   2  199790   34060
  12  10  -2  173012   27569
  12  10  -1 1157551   72170
  12  10  -1 1122889  111496
 -12  10   1 1290961   84047
  12  10  -1 1204548   71068
  12  10   0   47895   10695
  12  10   0   32218   10323
  12  10   0   46667   17723
  12  10   1 4034904  139721
  12  10   1 3973791  200178
  12  10   2   12969   10574
 -12  10  -2   24192   16184
  12 -10   2       2   46409
 -12  10  -2   25977   12057
  12  10   2    2445    7337
  12  10   3   88825   30540
 -12  10  -3   79630   30086
  12 -10   3  178403  108444
 -12  10  -4  693496   82970
  12 -10   4  397938  166589
 -12 -10  -4  513242   61966
 -12  10  -5  525455   70425
 -12 -10  -5  525402   62043
 -12  10  -6     642   25937
 -12 -10  -6     743   14605
 -12  10  -7  227301   48494
 -12 -10  -7  198279   40232
 -12  10  -8  645017   71676
 -12 -10  -8  676363   66838
  12  10   9  160884   24092
  12  12  -9     218   16957
  12  12  -9   33790   16034
 -12  12   8   89417   27853
  12  12  -8  108019   30571
  12  12  -8   87913   29645
 -12  12   7  148584   33323
  12  12  -7  132021   31832
  12  12  -7  152242   33824
 -12  12   6  772329   71925
 -12  12   6  628073   53843
  12  12  -6  752905   72475
 -12  12   5  205254   34289
 -12  12   5  172450   29603
  12  12  -5  182032   53910
 -12  12   4  218770   39536
 -12  12   4  219353   36996
 -12  12   4  240063   42741
  12  12  -4  258313   42357
  12  12  -4  267636   71472
  12  12  -3     155   13811
  12  12  -3    1803   15383
 -12  12   3    2868    7338
 -12  12   3     505   11501
  12  12  -2   11827   12876
  12  12  -2    5247   12913
  12  12  -2    3917   10483
 -12  12   2    6188   11959
 -12  12   2   11554   13034
  12  12  -1  109220   26298
  12  12  -1   85460   25141
  12  12  -1   69316   37996
  12  12   0   92732   31856
  12  12   0   87800   46114
  12  12   0   75817   28642
  12  12   1 1674251   99354
  12  12   1 1643279  100786
  12  12   1 1586263  143593
  12  12   2  365391   39397
 -12  12  -2  316685   30727
 -12  12  -2  312716   45485
  12 -12   2  222812   96157
  12  12   3   61896   21484
 -12  12  -3   46100   22220
 -12  12  -3   50536   18352
  12  12   4  142737   33113
 -12  12  -4  142503   40939
 -12  12  -5     700   15070
  12  12   6  148101   28960
 -12  12  -6  156570   38947
  12  12   7   33568   14986
  12  12   7   48153   17211
 -12  12  -7   40816   19441
  12  12   8  144730   24018
  12  12   8  107760   18183
  12  14  -9   50373   14996
  12  14  -9   52953   17661
  12  14  -8    2509   14045
  12  14  -8    2509   16753
 -12  14   7   53266   21559
  12  14  -7   86673   23848
  12  14  -7   86407   26256
 -12  14   6  768025   63293
  12  14  -6  847591   76014
  12  14  -6  999672   86500
 -12  14   5   55392   18141
  12  14  -5   60648   16321
  12  14  -5   29981   16396
 -12  14   4   40422   15201
  12  14  -3   85999   24664
 -12  14   3  113495   28783
  12  14  -3   72077   37668
  12  14  -2  442495   89350
 -12  14   2  495842   55380
  12  14  -2  529086   57702
  12  14  -1  541406   62472
  12  14  -1  486771   94316
 -12  14   1  505255   68208
  12  14  -1  598308   62696
 -12  14   1  538115   59885
  12  14   0    4438   10773
  12  14   0     688   12957
 -12  14   0    1576    7706
  12  14   1   88966   23128
 -12  14  -1  114851   25703
  12  14   1   96787   26629
  12  14   2   72173   22846
  12  14   2   69625   23502
 -12  14  -2   90455   20608
 -12  14  -2   99178   23280
  12  14   3 1416644   89405
  12  14   3 1442949   93031
 -12  14  -3 1439556  111943
 -12  14  -3 1719221   85174
 -12  14  -3 1430891   77649
  12  14   4  264681   43111
  12  14   4  244114   40720
 -12  14  -4  272482   54031
  12  14   5  414693   50700
  12  14   5  419958   50395
 -12  14  -5  541700   73294
  12  14   6      76   10128
  12  14   6     636    8681
 -12  14  -6    5372   13006
  12  14   7   12070    7611
  12  14   7    9431    6931
  12  14   8    1167    6022
  12  16  -8  112190   26352
 -12  16   8  107580   23874
  12  16  -7   35446   13041
  12  16  -7   22308   14514
  12  16  -6 1166515   80305
  12  16  -6 1144580   87391
 -12  16   5   47448   16707
  12  16  -5   78797   18279
  12  16  -5   75288   24164
 -12  16   4    2285    9347
  12  16  -4    7779   14410
 -12  16   3  337419   41086
  12  16  -3  353608   41169
  12  16  -3  327860   41909
 -12  16   2  400203   55453
 -12  16   2  376787   62098
  12  16  -2  488077   61200
  12  16  -1    3713   11360
 -12  16   1   15422   12053
 -12  16   1    3926   10935
  12  16   0  329571   44134
 -12  16   0  322618   40702
  12  16   0  337552   41583
  12  16   1  981621   82128
 -12  16  -1  993017   75243
  12  16   1  965383   76852
 -12  16  -2  299058   31464
  12  16   2  441866   47908
  12  16   2  459122   48109
 -12  16  -2  398377   40006
  12  16   3   17808   14414
  12  16   3   17621   17151
  12  16   4   15462    9803
  12  16   4   18975   14080
  12  16   5 1037960   69687
  12  16   5 1034556   70190
  12  16   6  229547   27008
  12  16   6  194910   26561
  12  16   7   15301    8234
  12  18  -7   14827    9070
 -12  18   7   16733    8623
  12  18  -6  120667   28755
 -12  18   6   81242   25429
 -12  18   5  302175   38108
  12  18  -5  340904   37191
  12  18  -5  306305   42507
 -12  18   5  311881   48344
 -12  18   4   46283   20103
  12  18  -4   36078   13730
  12  18  -4   40974   16458
 -12  18   4   25412   17878
 -12  18   3 1479132   94839
 -12  18   3 1200296   96518
  12  18  -3 1490406   97278
  12  18  -2    6548   14607
 -12  18   2   12299   14888
 -12  18   2    9130   17652
  12  18  -1     250   12388
 -12  18   1     261    7579
 -12  18   1   15480   14910
  12  18   0   93735   24080
 -12  18   0   73313   21202
  12  18   1  132662   30051
 -12  18  -1  164968   30693
  12  18   2    8045   10071
  12  18   2   10981   12923
  12  18   3  378995   42493
  12  18   3  406074   42301
  12  18   4  517125   51070
  12  18   4  497837   49421
  12  18   5  129897   23578
  12  18   5  145496   25013
  12  18   6     636   11653
 -12  20   6   12527    9213
  12  20  -5  397998   35560
 -12  20   5  384863   43050
 -12  20   4   44407   15535
  12  20  -4   65028   16630
 -12  20   4   22865   14291
 -12  20   3  812088   65496
  12  20  -3  789733   58086
 -12  20   3  729703   64052
  12  20  -2    6171    9131
 -12  20   2     241    8521
 -12  20   2    5950    6834
 -12  20   1  637954   57953
  12  20  -1  649689   59137
  12  20   0   16102   12825
 -12  20   0   27719   17660
 -12  20  -1  469912   41249
  12  20   1  455660   43694
  12  20   2  252547   32502
  12  20   3  964501   62959
  12  20   4  119410   19077
  12  22  -3  525109   40064
  12  22  -2   17856    8502
 -12  22   1 1169675   66108
  12  22  -1 1135709   69221
  12  22   0   13865    6425
 -12  22   0    5763    9532
  12  22   1  584566   45968
  12  22   2  190840   26609
 -13   1  11   77671   33784
 -13  -1  11   38673   25669
  13  -1 -11   98874   21860
 -13   1  10   14016   30107
 -13  -1  10   30040   38321
 -13   1   9  255006   50969
 -13  -1   9  189257   44290
 -13  -1   8    5574   12204
 -13   1   8   18482   20537
 -13  -1   7    2967   13931
 -13   1   7    2733   11591
 -13  -1   6   14155   19925
  13   1  -6   67714   38097
 -13   1   6   36118   27714
  13  -1  -5   85714   38845
  13   1  -5   28985   35402
 -13  -1   5   84533   32725
 -13   1   5   93387   34041
  13  -1  -4  199775   41016
  13   1  -4  187196   41721
 -13  -1   4  134093   27886
 -13   1   4  180115   31587
  13   1  -3  256511   42602
  13  -1  -3  248953   38998
 -13   1   3  234133   33060
  13   1  -2 2120195  166229
  13  -1  -2 2227274  162147
  13   1  -1 5958038  240745
  13  -1  -1 5952193  239459
  13  -1   0  574734   38213
  13   1   1   22604   18361
  13  -1   1   72627   27379
  13   1   2   30661   31126
  13  -1   2   16176   21571
 -13   1  -2   17056    9573
 -13  -1  -2   15889    9366
  13   1   3    2243   21770
  13  -1   3   21104   19780
 -13   1  -3    2350   18057
 -13  -1  -3      29   17372
 -13   1  -4   94451   25167
  13   1   4   56336   31675
  13  -1   4   58604   38319
 -13  -1  -4   74209   24115
 -13   1  -5  279563   45523
 -13  -1  -5  289632   47125
  13   1   5  282669   75571
  13  -1   5  263253   87161
 -13   1  -6 1618094  118279
 -13  -1  -6 1575136  117346
  13   1   6 1215507  164965
  13  -1   6 1136215  175976
 -13   1  -7   45401   26974
 -13  -1  -7   71471   33793
 -13   1  -8    7838   13381
 -13  -1  -8    3142   14821
 -13   1  -9   15059   11301
 -13  -1  -9    4479   10776
  13  -3 -11      42   12141
  13   3 -10   47146   20304
 -13   3  10   52070   42004
 -13  -3   9    2364    9814
 -13   3   9    2956    9673
  13   3  -9   12309   14451
 -13   3   9   28204   50523
 -13  -3   8   33779   15009
 -13   3   8   29173   18861
 -13   3   8     818   47777
  13   3  -8   43816   14679
 -13  -3   7  202846   37154
 -13   3   7  186781   38627
  13   3  -7  209744   55107
  13   3  -6  463881   80893
 -13  -3   6  404279   51737
 -13   3   6  538948   66386
  13   3  -5  222983   52521
 -13  -3   5  190539   33972
 -13   3   5  264745   40554
  13   3  -4 1623369  126742
 -13   3   4 1423349   85905
  13   3  -3  692851   87756
  13  -3  -3  598816   66442
 -13   3   3  657558   66675
  13   3  -2 1648915  137650
 -13   3   2 1452019  104110
  13  -3  -2 1520854  114766
  13   3  -1     847   11231
  13  -3  -1    2884   10461
  13   3   0  398236   73155
  13  -3   0  482240   95847
 -13   3  -1  492053   51784
  13  -3   1  331472   71957
 -13  -3  -2  499034   54046
 -13   3  -2  543659   53313
  13  -3   2  490257   97981
 -13   3  -3  298767   54368
  13   3   3  360472   81915
 -13   3  -3  443057   60606
 -13  -3  -3  413493   60819
  13  -3   3  350266  108092
 -13   3  -4  587145   67453
  13   3   4  519566   92203
 -13   3  -4  704402   71862
 -13  -3  -4  643747   72203
  13  -3   4  577794  135961
 -13   3  -5  383292   62949
  13   3   5  314894   88604
 -13   3  -5  460657   69233
 -13  -3  -5  389406   65569
  13  -3   5  398469  142247
 -13   3  -6 1168150  100035
  13   3   6 1035887  149519
 -13  -3  -6 1187206  106243
  13  -3   6  920750  181190
 -13   3  -6 1273890  107351
 -13   3  -7   18209   16501
 -13  -3  -7   10369   13790
 -13   3  -8  304057   51630
 -13  -3  -8  332449   51915
 -13   3  -9     108    8950
 -13  -3  -9   23932   11638
  13  -5 -11  171112   26491
  13   5 -10   20627   15080
 -13   5  10   17909   25662
 -13   5   9  428876   59913
  13   5  -9  452011   51510
 -13   5   9  322222   81895
  13   5  -9  395683   44902
 -13   5   8   41457   19912
 -13   5   8     463   34693
  13   5  -8   19299   11851
 -13   5   7 1187935   99310
 -13   5   7 1192010  179063
  13   5  -7 1322460  152296
 -13   5   6     440   11440
 -13   5   6     440   49215
  13   5  -6   10407   15935
 -13   5   6    3498   12804
  13   5  -5 1735438  150821
 -13   5   5 1768523  103744
  13   5  -4 1279703  143790
 -13   5   4 1254522   96785
 -13   5   3  111781   18863
  13   5  -3   74961   12628
 -13   5   3  146419   15545
  13   5  -2 1782551  132054
  13  -5  -2 1806214  100674
 -13   5   2 1978597  106819
  13  -5  -1 5809650  201404
  13  -5  -1 6908893  273271
 -13   5   1 7160215  237203
  13   5  -1 5601253  217165
  13  -5   0   51908   26506
  13   5   0  109211   20694
 -13   5   0  143632   21638
 -13   5  -1 1001084   87028
  13   5   1  852925   94660
  13  -5   1  886372  145328
 -13  -5  -1  680561   73730
 -13   5  -2  278358   51283
 -13  -5  -2  182386   46078
  13  -5   2  188314   84797
 -13   5  -3  553867   78662
 -13   5  -3  654640   76713
 -13  -5  -3  566325   77395
 -13   5  -4  707619   77293
 -13   5  -4  683822   81837
 -13  -5  -4  542179   72212
 -13   5  -5   11927   20260
  13  -5   5   20837   46419
 -13   5  -5   15811   18499
 -13  -5  -5   12420    9697
 -13  -5  -6 1706966  131973
 -13   5  -6 1674126  129982
 -13   5  -6 2021027  139163
 -13   5  -7    2131   17152
 -13   5  -7    5938   14869
 -13  -5  -7     980   11178
 -13   5  -8  764084   79496
 -13  -5  -8  578896   69844
 -13  -5  -9     106    9728
  13   7 -10   23297   14524
  13   7 -10   58374   18656
 -13   7   9  539616   68651
  13   7  -9  638500   64430
 -13   7   9  485636   94315
  13   7  -9  644969   62858
 -13   7   8  155520   42487
 -13   7   8  142230   65959
  13   7  -8  174405   40828
 -13   7   7  620179   73371
 -13   7   7  527949  131070
  13   7  -7  628945   72380
 -13   7   6   46386   19728
 -13   7   6   63300   41041
 -13   7   6   32583   20781
  13   7  -6   71437   36133
  13   7  -5 2912549  226019
 -13   7   5 2589489  107771
 -13   7   5 3113686  282016
 -13   7   5 3186830  154525
  13   7  -4 1759457  157953
 -13   7   4 1650383  181227
 -13   7   4 1544187   76140
 -13   7   4 1738811  101962
  13   7  -3 2234499  163984
 -13   7   3 2183963  111606
 -13   7   3 2145068  190996
  13   7  -2 2340627  150946
 -13   7   2 2296415  169945
 -13   7   2 2395626  110471
  13   7  -1 7654043  161964
  13   7  -1 7526649  263909
  13   7   0 2682016   95741
  13  -7   0 2852507  221496
  13   7   0 2543323  148441
  13   7   1 1175274  122720
  13  -7   1 1344376  214729
 -13   7  -1 1530033  121993
 -13   7  -2 2290702  138604
  13   7   2 2574117  161200
  13  -7   2 2692386  311085
 -13  -7  -2 1996377  120204
 -13   7  -3  902209   78706
  13   7   3  932021   89257
 -13   7  -3 1107988   78102
 -13  -7  -3  874052   71070
  13  -7   3 1081274  187679
 -13   7  -4  451816   77617
 -13   7  -4  624935   80638
 -13  -7  -4  452251   73015
  13  -7   4  517169  198365
 -13   7  -5   42189   29883
  13  -7   5   24014   48112
 -13   7  -5   16947   21066
 -13  -7  -5   47842   28590
 -13   7  -6 1289155  110696
 -13   7  -6 1033182  106718
 -13  -7  -6 1031322  100293
 -13   7  -7  225696   41581
 -13   7  -7  177001   37551
 -13  -7  -7  163008   34825
 -13  -7  -8  851796   81183
 -13  -7  -9    5672   12308
  13   9 -10   54190   18761
  13   9 -10   80729   21621
 -13   9   9  614086   68335
  13   9  -9  770501   68026
  13   9  -9  724700   65404
 -13   9   8    3052   27545
 -13   9   8   15844   11346
  13   9  -8   30752   15010
  13   9  -8   18692   14971
 -13   9   7  757060   76219
 -13   9   7  767233  131652
  13   9  -7  943884   81195
 -13   9   6 2640733  142942
 -13   9   6 2158457  103868
 -13   9   6 2853705  266136
  13   9  -6 2923183  233783
 -13   9   5  451354   43474
 -13   9   5  453353   36793
 -13   9   5  363370   72268
 -13   9   5  475516   46286
  13   9  -5  387618   65347
  13   9  -4 1039709  128856
 -13   9   4 1058418  145679
 -13   9   4  899694   61824
 -13   9   4 1047973   80061
  13   9  -3 2794626  198019
 -13   9   3 2744350  220593
 -13   9   3 2972726  131028
  13   9  -2  227034   36631
  13   9  -2  261452   68066
 -13   9   2  269112   45636
  13   9  -2  258865   37117
  13   9  -1 7726356  184191
  13   9  -1 7863505  296433
 -13   9   1 8506203  222285
  13   9  -1 8250064  185943
  13   9   0 1239992   70527
  13   9   0 1076582  100194
  13   9   1   48737   20759
  13  -9   1     863   33829
 -13   9  -1   51037   27745
  13   9   1    8430   18045
  13   9   2 1271701  112579
 -13   9  -2 1103031   98205
  13  -9   2 1356511  238657
  13   9   3  752889   89982
 -13   9  -3  861353   90051
 -13  -9  -3  590599   66836
  13  -9   3  876979  221963
 -13   9  -4 1431353  112686
 -13  -9  -4 1326854   96832
  13  -9   4 1183431  250646
 -13   9  -5   48754   31514
 -13  -9  -5   83961   30876
 -13   9  -6  280518   54993
 -13  -9  -6  205367   43702
 -13   9  -7  172664   38352
 -13  -9  -7  230590   40813
 -13  -9  -8  775204   73645
  13   9   9   93423   18756
  13  11 -10   14250   12982
  13  11  -9  467606   55314
  13  11  -9  522030   60246
 -13  11   8   69861   26605
  13  11  -8   88004   24959
  13  11  -8   61899   26196
 -13  11   7  615089   70704
  13  11  -7  723611   73572
 -13  11   6  363147   52451
 -13  11   6  294838   38722
  13  11  -6  370504   55001
  13  11  -5 1422180  155024
 -13  11   5 1446543   95484
 -13  11   5 1435999   82516
  13  11  -4 3069137  220265
 -13  11   4 3231247  135980
 -13  11   4 3190416  138068
 -13  11   4 2776789  113295
  13  11  -3 2984080  223569
 -13  11   3 2959209  121811
 -13  11   3 3047992  137796
  13  11  -3 3474116  137813
  13  11  -2 1663939   89751
  13  11  -2 1685396  150828
 -13  11   2 1763323   98409
  13  11  -2 1798325   90667
  13  11  -1 1559101   86983
  13  11  -1 1602595  141792
 -13  11   1 1888564  104587
  13  11  -1 1725222   88963
  13  11   0  639715   61546
  13  11   0  611632   92489
 -13  11   0  690004   68164
  13  11   0  619821   58727
  13  11   1  818406   66556
  13  11   1  789495   66875
  13  11   1  759185   96636
  13  11   2 2952888  126103
  13  11   2 2532915  166842
  13  11   3  223787   36505
 -13  11  -3  216973   46935
 -13  11  -4 1420908  121077
 -13  11  -5   61808   31410
 -13  11  -6 2594504  168242
 -13 -11  -6 2479471  141153
 -13  11  -7  126231   33402
 -13 -11  -7  116597   27388
  13  11   8  556023   49996
  13  11   8  546480   43855
  13  13  -9  914356   65192
  13  13  -9  926775   72155
  13  13  -8    2570    9636
  13  13  -8    1037   13896
 -13  13   7 1091406   91210
  13  13  -7 1180590   89202
  13  13  -7 1344689   98080
 -13  13   6  377391   54154
 -13  13   6  335707   42961
  13  13  -6  401926   57726
 -13  13   5   88389   24830
 -13  13   5   93293   23506
 -13  13   4 3132747  135527
 -13  13   4 3557580  158460
  13  13  -3 1854420  164039
 -13  13   3 2087974  100579
  13  13  -3 2343631  111790
  13  13  -2  129713   42676
 -13  13   2  171119   31922
  13  13  -2  190129   33999
  13  13  -1 1402281   86293
  13  13  -1 1361704  137698
 -13  13   1 1380626   83747
  13  13  -1 1455325   85683
  13  13   0  601348   48146
  13  13   0  640793   76233
  13  13   0  617657   46922
  13  13   1 1828066  104418
  13  13   1 1823245   99367
  13  13   2 2569946  117406
  13  13   2 2515919  119531
  13  13   3  102625   33155
  13  13   3  143477   37232
  13  13   4 1544065  106638
 -13  13  -4 1776510  144472
  13  13   5  188033   36250
  13  13   5  180364   34749
 -13  13  -5  206069   47552
  13  13   6 1455380   93817
  13  13   6 1541209   92026
  13  13   7     160    7270
  13  13   7    2752    8979
  13  13   8  937235   54174
  13  15  -8  253101   33551
  13  15  -8  315856   42279
  13  15  -7 1507079   95778
  13  15  -7 1602402  107270
  13  15  -6   34403   13780
 -13  15   6   25866   10435
  13  15  -6   20316   11653
  13  15  -5 2737109  110983
  13  15  -5 2480366  132287
 -13  15   4  537216   57999
  13  15  -4  501757   62136
 -13  15   3  290407   39748
  13  15  -3  349328   43877
 -13  15   2 2103481  112112
  13  15  -2 2135869  114431
 -13  15   1 3896774  143657
 -13  15   1 3608472  151005
  13  15  -1 3937965  144138
  13  15   0  101768   24577
  13  15   0   73966   22916
 -13  15   0   86773   22526
 -13  15  -1  612883   59676
  13  15   1  542489   60876
  13  15   1  598697   59630
  13  15   2  340709   50093
 -13  15  -2  389324   46575
  13  15   2  321820   45262
  13  15   3 2286900  122250
  13  15   3 2275385  116806
  13  15   4 1991807  103221
  13  15   4 1989678  106006
  13  15   5   57736   18393
  13  15   5   48266   14109
  13  15   6 2166754   99714
  13  15   6 2183240   97486
  13  15   7    3452    7926
  13  15   7    5944    8131
  13  17  -7  240895   36174
 -13  17   7  193688   33055
  13  17  -6  300701   44311
 -13  17   6  243316   42152
 -13  17   5  314302   36319
  13  17  -5  449425   39463
  13  17  -5  408842   46051
 -13  17   5  358944   48310
 -13  17   4   80774   20985
  13  17  -4   85175   21675
 -13  17   4   72821   27358
 -13  17   3 1936308  107758
  13  17  -3 1607204   94782
 -13  17   3 1628109  115376
 -13  17   2 1201254   82421
 -13  17   2 1117876   86807
  13  17  -2 1350572   88384
  13  17  -1   69240   24056
 -13  17   1   74207   25589
 -13  17   1   65080   23418
 -13  17   0  965773   74019
  13  17   0  896791   70940
  13  17   1  184320   31223
  13  17   1  165001   32401
 -13  17  -1  209456   32449
  13  17   2 1032199   79658
 -13  17  -2 1060754   70907
  13  17   2  893889   70228
  13  17   3     225    9853
  13  17   3   12120   12407
  13  17   4 1320343   84137
  13  17   4 1207843   77872
  13  17   5    2196    9428
  13  17   5    3533    8772
  13  17   6  295316   32582
  13  17   6  291033   33326
 -13  19   6   44603   15483
  13  19  -5  671366   47961
  13  19  -5  556576   53029
 -13  19   5  504045   54258
 -13  19   4     846    6354
  13  19  -4     748    6838
 -13  19   4     829   11963
 -13  19   3  739864   62758
 -13  19   3  741425   65717
 -13  19   2 1629821   93721
 -13  19   2 1480886   87676
  13  19  -2 1613412   92391
  13  19  -1   97646   25775
 -13  19   1  159003   30010
 -13  19   0 1454257   85950
  13  19   0 1402892   85035
 -13  19  -1  367114   41037
  13  19   1  351930   41176
  13  19   2  503078   48335
  13  19   3   16168    7315
  13  19   4  450436   41413
  13  19   5    4081    5381
  13  21  -4   68995   14844
 -13  21   4   70771   16371
 -13  21   3  486311   44528
  13  21  -3  443317   38269
 -13  21   2   96884   21763
 -13  21   1  396628   40247
  13  21  -1  393065   40904
 -13  21   0  740685   54392
  13  21   0  767212   57661
  13  21   1   45759   16259
  13  21   2 1119146   65566
  13  21   3   40837   12908
 -14   0  10  115032   54215
 -14   0   9  510024   77684
  14   0  -9  707843   67917
 -14   0   8  893666   91626
 -14   0   7   14064   16097
 -14   0   6 3385048  144743
  14   0  -5  421472   62803
 -14   0   5  346606   45426
  14   0  -4 1343796   80771
 -14   0   4 1184056   59159
  14   0  -3 4012354  188339
 -14   0   3 3170621  141991
  14   0  -2  682106   52234
 -14   0   2  712803   59032
  14   0  -1 4853241  186483
 -14   0   1 4865151  182732
 -14   0   0 1195252  115292
  14   0   1  762116   96257
 -14   0  -1  776258   71733
  14   0   2 3758742  259796
 -14   0  -2 4247629  187494
  14   0   3 1151310  176916
 -14   0  -3 1191218  114885
  14   0   4 1631918  176260
 -14   0  -4 2030297  124702
  14   0   5 1349382  181497
 -14   0  -5 1914426  133340
 -14   0  -6   20459   13095
 -14   0  -7 2566351  151630
 -14   0  -8  256836   51532
 -14   0  -9   67312   20470
  14   2 -10 1263775   79179
 -14   2  10  999010  138332
 -14  -2   9  466052   60091
 -14   2   9  576592   69925
 -14   2   9  527632  111324
  14   2  -9  786579   64898
 -14  -2   8  955779   90838
 -14   2   8 1167553  103599
 -14   2   7  273338   41494
 -14  -2   7  247072   37174
  14   2  -6 1121266  121003
 -14   2   6 1150623   97695
  14   2  -5   80465   30101
 -14  -2   5   62420   18023
 -14   2   5   80271   23400
  14  -2  -4 2499195  147695
  14   2  -4 2460345  169258
 -14   2   4 2109960  118326
  14   2  -3  568454   61124
  14  -2  -3  604296   56130
 -14  -2   3  466571   42023
 -14   2   3  606653   50911
 -14  -2   2 6832503  262761
  14   2  -2 6459018  247885
  14  -2  -2 6636132  230871
  14   2  -1  130751   34301
 -14   2   1  131020   35443
  14  -2  -1  131398   36870
  14   2   0 5412807  239891
  14  -2   0 5432152  280818
 -14   2   0 5645730  219624
  14  -2   1   34685   32296
 -14   2  -1   47391   16021
 -14  -2  -1   22101   11459
  14   2   2 4346333  270458
  14  -2   2 3889160  294324
 -14   2  -2 4598319  193067
 -14  -2  -2 4226859  192732
 -14   2  -3  268413   53552
  14   2   3  148445   60792
  14  -2   3  250642   96005
 -14  -2  -3  205737   48833
  14  -2   4 2170612  230801
 -14   2  -4 2641208  142475
 -14  -2  -4 2389214  137651
  14   2   4 2203257  198820
  14   2   5 1218062  165607
  14  -2   5 1232808  198245
 -14   2  -5 1574399  120907
 -14  -2  -5 1504405  120803
 -14   2  -6 2043412  135084
 -14  -2  -6 2048608  136924
 -14   2  -7    3148   24108
 -14  -2  -7   41827   21139
 -14   2  -8  291218   49905
 -14  -2  -8  289535   51010
 -14   2  -9  286701   43903
 -14  -2  -9  297386   44541
  14   4 -10 1438906   85436
 -14   4  10 1047114  126643
 -14   4   9  126248   32109
  14   4  -9  101743   23906
 -14   4   9   95773   40232
 -14   4   8  819396   79390
 -14   4   8  813327  135704
  14   4  -8  962771   73808
 -14  -4   7  555147   61377
 -14   4   7  799344   79198
 -14   4   7  685930  132037
  14   4  -7  860928  116759
 -14  -4   6  180729   28104
  14   4  -6  244518   48409
 -14   4   6  254250   38073
  14   4  -5   27864   41375
 -14  -4   5   30397   21820
 -14   4   5   51041   28022
  14   4  -4 4056747  234044
 -14   4   4 3539868  155261
  14   4  -3  301876   58095
 -14  -4   3  198222   32232
 -14   4   3  279596   42634
  14   4  -2 6534745  278071
 -14   4   2 6017179  209722
  14  -4  -2 6525539  231108
  14  -4  -1 1370779  115144
 -14   4   1 1504649  123862
  14   4  -1 1249003  116925
  14  -4   0 8925092  376998
 -14   4   0 9728224  291091
  14  -4   1   21956   37684
 -14   4  -1   18148   21109
 -14  -4  -1   26460   14537
  14   4   1   24618   25763
  14  -4   2 4522054  329168
 -14   4  -2 4741010  183308
 -14  -4  -2 3989454  178781
  14  -4   3    7059   29958
 -14  -4  -3   14316   14737
 -14   4  -3   14571   15177
 -14   4  -4 2117967  132919
  14  -4   4 2086863  258688
 -14   4  -4 2354664  134375
 -14  -4  -4 2200815  135873
 -14   4  -5  334876   54306
 -14   4  -5  359420   56500
 -14  -4  -5  361046   59194
  14  -4   5  240125   91430
 -14   4  -6 1014261   95209
 -14  -4  -6  990384   96370
 -14   4  -7  339799   55900
 -14  -4  -7  314402   52866
 -14   4  -8 1045232   91125
 -14  -4  -8  910052   84061
 -14  -4  -9  518919   55023
 -14   4  -9  574094   57234
  14   6 -10  999897   70232
 -14   6  10  694679   96558
 -14   6   9     269   11310
  14   6  -9    7295   14514
 -14   6   9     269   30088
  14   6  -9    1722    7842
 -14   6   8  163102   34075
 -14   6   8  223971   76915
  14   6  -8  171995   30602
 -14   6   7   91103   19571
 -14   6   7    5645   40125
  14   6  -6  846761  122281
 -14   6   6  810322   79186
 -14   6   6  808977   85245
 -14   6   6  737292  141333
  14   6  -5  309037   69618
 -14   6   5  211878   77167
 -14   6   5  293781   45977
  14   6  -4 2381640  170167
 -14   6   4 2264767  197998
 -14   6   4 2458796  115413
 -14   6   3   67366   44420
  14   6  -3   87825   38121
 -14   6   3   63925   24095
 -14   6   2 8603142  335467
  14   6  -2 8387513  288827
 -14   6   2 8707270  220614
 -14   6   1   74873   30750
  14  -6  -1   28797    8279
  14   6  -1   48280   27050
  14  -6   0 1468590  171228
 -14   6   0 1632512  127053
  14   6   0 1255486  122025
  14  -6   1  291811   90358
 -14   6  -1  388464   57136
 -14  -6  -1  254850   46764
  14   6   1  281048   53237
  14   6   2  897342  104579
  14  -6   2  880531  163924
 -14   6  -2 1148246   96854
 -14  -6  -2  771993   82259
 -14   6  -3 1794688  135353
  14  -6   3 1997198  277475
 -14  -6  -3 1805444  130150
 -14   6  -3 2270151  138630
 -14   6  -4 2139405  143223
  14  -6   4 2280444  303178
 -14   6  -4 2610263  146667
 -14  -6  -4 2192081  139498
 -14   6  -5  292520   53358
 -14   6  -5  286650   47930
 -14  -6  -5  230896   46218
 -14   6  -6  795884   78945
 -14   6  -6  690877   74897
 -14  -6  -6  677893   73807
 -14   6  -7  113977   31640
 -14  -6  -7  111169   28833
 -14   6  -8  367967   54123
 -14  -6  -8  324752   50566
 -14  -6  -9  322088   42387
  14   8 -10  380366   44977
  14   8 -10  331507   43544
 -14   8   9    3535   13974
  14   8  -9    3608   10351
 -14   8   9   17281   23578
  14   8  -9    1274    9261
 -14   8   8  294917   56065
 -14   8   8  179419   78030
  14   8  -8  283683   50194
 -14   8   7    4327   12069
  14   8  -7    1193   11415
  14   8  -6  754725  123552
 -14   8   6  652295   74346
 -14   8   6  596363  129950
  14   8  -5  465435   93616
 -14   8   5  380195   43278
 -14   8   5  459236  111845
 -14   8   5  454298   60368
  14   8  -4  293554   77028
 -14   8   4  369391   95321
 -14   8   4  276063   37695
 -14   8   4  307112   49261
 -14   8   3   28048   22356
  14   8  -3   81969   32410
 -14   8   3   51705   14516
  14   8  -2 1759626   82722
 -14   8   2 1720260  156967
  14   8  -2 1594237  137037
 -14   8   2 1700696   99974
  14   8  -1   25146   21420
  14   8  -1   48912   40034
  14   8   0  284946   37839
 -14   8   0  376978   66402
  14   8   0  250005   56160
  14  -8   0  250352   74381
  14   8   1  508129   52514
 -14   8  -1  767806   87697
  14  -8   1  512425  121546
  14   8   1  516584   80858
  14   8   2   47381   31291
  14  -8   2   80389   70853
 -14   8  -2   85933   33084
 -14  -8  -2   56257   28147
  14   8   3  198461   58983
 -14   8  -3  177554   53372
 -14  -8  -3  164518   47300
  14  -8   3  138670   99311
 -14   8  -3  290488   59207
 -14   8  -4 1310900  108733
  14   8   4  986552  103973
 -14   8  -4 1584535  109888
 -14  -8  -4 1157640   91808
  14  -8   4  799201  181219
 -14   8  -5  308791   64271
 -14   8  -5  392576   66823
 -14  -8  -5  261348   55440
 -14   8  -6  481493   61516
 -14  -8  -6  467320   56368
 -14  -8  -7    3225   14393
 -14  -8  -8   14255   17149
  14  10 -10  137410   25568
 -14  10   9  303049   45879
  14  10  -9  402081   47405
  14  10  -9  389558   48276
 -14  10   8  172097   33546
  14  10  -8  217540   35927
  14  10  -8  212493   35955
 -14  10   7   22642   15533
 -14  10   7   46940   34557
  14  10  -7   26669   16251
 -14  10   6  863587   73670
 -14  10   6  736938   55454
 -14  10   6  848474  133108
 -14  10   5  459291   54983
 -14  10   5  414390   44573
 -14  10   5  361853   90390
 -14  10   5  485890   57911
  14  10  -5  552208   97128
  14  10  -4  691170   98172
 -14  10   4  728776  113416
 -14  10   4  700743   52551
 -14  10   4  784087   65494
  14  10  -3  710813  105575
 -14  10   3  688221   56173
 -14  10   3  791934   69856
  14  10  -2   19721    8420
  14  10  -2   18335    8256
 -14  10   2    3314    9517
  14  10  -1    8388    9965
  14  10  -1    1823    7444
 -14  10   1    6367   11575
  14  10   0  705470   63456
  14  10   0  661014   94016
  14  10   0  750475   63597
  14  10   1   24309   12223
  14  10   1   55438   21109
 -14  10  -1   33003   16057
  14  10   2  941613   69705
  14 -10   2 1039770  192961
  14  10   2  847802   97687
  14 -10   3  310812  119492
  14  10   3  334278   62707
 -14  10  -4   80589   33410
 -14 -10  -4   54049   19713
 -14  10  -5  189550   42669
 -14 -10  -5  148875   30784
 -14  10  -6   75796   31412
 -14 -10  -6   94714   30030
 -14 -10  -7  727372   68131
  14  10   8     309    6050
 -14 -10  -8   20952   12578
  14  12  -9  226059   30928
  14  12  -9  177785   28400
 -14  12   8   77614   23359
  14  12  -8   58718   17108
  14  12  -8   61923   21001
 -14  12   7   51483   21484
  14  12  -7   16912   12594
  14  12  -7   50784   20298
 -14  12   6 1727447  110915
  14  12  -6 1651530  113032
 -14  12   5   77207   20154
 -14  12   5  102709   17580
 -14  12   4   24523   16602
 -14  12   4   13978   12461
 -14  12   4   11902   10904
  14  12  -3  122215   24471
 -14  12   3   94787   20784
 -14  12   3  128900   26326
  14  12  -2     146    9322
  14  12  -2     295   10163
  14  12  -2    4372   22586
 -14  12   2    1326   12345
 -14  12   2     388   11187
  14  12  -1   61716   12030
  14  12  -1   65923   13885
  14  12  -1  107039   29740
 -14  12   1   68333   14034
  14  12   0  373540   36786
  14  12   0  381881   56465
 -14  12   0  445791   42126
  14  12   0  392430   36438
  14  12   1    2053   10647
  14  12   1    1811    7987
  14  12   1    1955   11158
  14  12   2  159822   30967
  14  12   2  150683   27243
  14  12   3   10812   14352
  14  12   4   83374   25260
  14  12   5   41002   13531
  14  12   6   48217   19470
  14  12   7    8425    9299
  14  12   7   21301   12155
  14  12   8    1391    7224
  14  14  -8   38174   14125
  14  14  -8   24672   14399
 -14  14   7   29795   16206
  14  14  -7   56883   20102
  14  14  -7   56516   22020
  14  14  -6 1830599  105569
  14  14  -6 1976250  116768
 -14  14   5  234413   37520
  14  14  -5  250641   50809
 -14  14   4    5818    6949
 -14  14   3 1328042   86477
  14  14  -3 1552714   97643
  14  14  -2 1289462  145580
 -14  14   2 1436407   89547
  14  14  -2 1598217   95856
  14  14  -1     499   10156
  14  14  -1    6655   17239
 -14  14   1    3144    8254
  14  14   0  247543   40238
 -14  14   0  217792   36122
  14  14   0  287454   40106
  14  14   1   12413   10518
  14  14   1     334   11250
 -14  14  -1    8191    6384
  14  14   2    7771    9685
  14  14   2    4729   11159
 -14  14  -2   14691    8450
  14  14   3  813527   69131
  14  14   3  890289   74856
 -14  14  -3  956509   67154
  14  14   4  161888   28948
  14  14   4  190841   33409
  14  14   5  364355   42711
  14  14   5  290313   37704
  14  14   6      72    8145
  14  14   6      72    6621
  14  14   7   74613   15526
  14  14   7   97834   16352
  14  16  -8  275587   35421
 -14  16   8  240923   31467
  14  16  -7  204582   30146
  14  16  -7  221168   36613
  14  16  -6  999133   68106
  14  16  -6 1085680   78750
 -14  16   5   41273   14938
  14  16  -5   35062   15891
 -14  16   4  307009   41049
  14  16  -4  307436   43343
  14  16  -3  141963   29035
 -14  16   3  129894   26716
  14  16  -3  111124   26501
 -14  16   3  116905   31774
  14  16  -2    9164    9138
 -14  16   2   10449    8716
 -14  16   2      16   13010
 -14  16   1  299585   46331
  14  16  -1  292774   45745
  14  16   0  787249   69560
 -14  16   0  806087   67594
  14  16   0  803077   66683
  14  16   1  491427   54430
 -14  16  -1  539002   52641
  14  16   1  476868   50098
  14  16   2  790788   67174
 -14  16  -2  857799   62270
  14  16   2  747271   61505
  14  16   3  180908   33948
  14  16   3  214196   34932
  14  16   4  273930   38727
  14  16   4  278389   36881
  14  16   5  151873   28359
  14  16   5  162464   29016
  14  16   6  250379   30270
  14  16   6  253316   30978
  14  18  -6  393785   43143
 -14  18   6  366293   42919
 -14  18   5   84517   19494
  14  18  -5   85560   21667
 -14  18   5   61559   20028
 -14  18   4  447420   49327
  14  18  -4  465543   43967
  14  18  -4  399372   45763
 -14  18   4  395633   52189
 -14  18   3  106680   26198
 -14  18   3   52230   19672
 -14  18   2  881840   72308
 -14  18   2  784643   68094
  14  18  -2  934753   73786
 -14  18   1  309059   43575
  14  18  -1  264011   40201
  14  18   0   38238   15002
 -14  18   0   21940   10634
  14  18   1    6521    9304
 -14  18  -1   15148    9622
  14  18   2  316153   43492
  14  18   2  275378   38137
  14  18   3  167904   31477
  14  18   3  214115   32532
  14  18   4  214706   32020
  14  18   4  189300   28906
  14  18   5  512385   41366
  14  18   5  474533   39406
 -14  20   5      26   10111
 -14  20   4  269767   32041
  14  20  -4  316047   31146
 -14  20   4  240523   31541
 -14  20   3   10340    6210
  14  20  -3   29103   10191
 -14  20   3   10256    6022
 -14  20   2   17828   11543
  14  20  -2   39146   16487
  14  20  -1   59106   15245
 -14  20   1   79812   17072
 -14  20   0  472900   48423
  14  20   0  464639   48984
 -14  20  -1  532573   45372
  14  20   1  532947   48033
  14  20   2  584130   48647
  14  20   3   83399   18241
  14  20   4  307300   28608
  14  22  -2 1079623   52744
  14  22   0 1402528   67623
  14  22   1  139676   20596
 -15   1  10   57146   43668
 -15  -1  10    2957   24379
 -15  -1   9   52945   21891
 -15   1   9  142408   34674
  15   1  -9  125621   25454
 -15   1   9   92685   55380
 -15  -1   8   78366   28926
 -15   1   8  121516   38278
 -15  -1   7     505   13871
 -15   1   7     195   12567
 -15  -1   6    5505   23406
 -15   1   6   19245   24858
  15   1  -5   61176   31507
 -15  -1   5   44647   17414
 -15   1   5   67998   22852
  15  -1  -4    4232   14709
  15   1  -4    1227   14292
 -15  -1   4    8092   10975
 -15   1   4    8938   12909
  15   1  -3    4665    9467
  15  -1  -3    2254   12648
 -15  -1   3     514   11279
 -15   1   3    2254    9145
 -15   1   2  451762   65015
 -15  -1   2  377652   57684
  15   1  -2  450767   60193
  15  -1  -2  464908   59623
 -15  -1   2  345708   41648
 -15   1   2  383779   44406
  15   1  -1 2134769  183486
  15  -1  -1 2243763  185974
 -15   1   1 2310750  187050
 -15  -1   1 2008232  177637
 -15   1   0  326810   51988
 -15  -1   0  184250   38714
  15   1   0  323740   57762
  15  -1   1   88644   17809
 -15   1  -1   17600   19128
 -15  -1  -1   35279   14797
  15   1   2   21408   36061
  15  -1   2   11686   37205
 -15   1  -2   23040   23220
 -15  -1  -2   44129   31959
  15   1   3    3181   27958
  15  -1   3    2754   20767
 -15   1  -3    7036   14392
 -15  -1  -3    5979   10376
 -15   1  -4  390234   52296
 -15  -1  -4  400861   53056
  15   1   4  279316   64153
  15  -1   4  284388   71024
  15  -1   5 1408573  192435
 -15   1  -5 2091921  141792
 -15  -1  -5 1955179  139506
  15   1   5 1600205  190691
 -15   1  -6 1177861  113259
 -15  -1  -6 1174029  114791
 -15   1  -7 1017882   94332
 -15  -1  -7 1057953   96360
 -15   1  -8   78230   27854
 -15  -1  -8   71986   29195
 -15   1  -9   36441   18502
 -15  -1  -9   51772   20130
 -15   3  10   88667   21534
 -15   3  10   15378   20884
 -15   3   9   56355   21614
  15   3  -9   93912   22565
 -15   3   9   63249   40570
 -15  -3   8    1497   10211
 -15   3   8   51163   18937
 -15   3   8   78523   57896
  15   3  -8   45793   14837
 -15  -3   7   37219   10831
 -15   3   7   87563   21952
  15   3  -6   39920   37809
 -15   3   6   63113   30260
  15   3  -5  363546   72478
 -15  -3   5  230343   41204
 -15   3   5  368977   52819
  15   3  -4   88454   30167
 -15  -3   4   67409   18027
 -15   3   4   73940   17048
  15  -3  -3   71069   36049
 -15  -3   3   49192   27684
  15   3  -3   66347   41142
 -15   3   3   51818   29651
 -15  -3   2 1017296   88829
  15   3  -2  967524   84670
 -15  -3   2  769947   56246
  15  -3  -2 1064753   78535
 -15   3   2  935133   65622
  15  -3  -1 2081685  129040
 -15   3   1 2339211  137948
 -15  -3   1 1847862  121600
  15   3  -1 2016268  130038
  15   3   0   66775   19223
  15  -3   0   68052   23445
 -15   3   0   74756   20745
 -15  -3   0   62373   25387
  15  -3   1  427551   98539
 -15   3  -1  514096   72954
 -15  -3  -1  441442   69228
  15  -3   2     837   39102
 -15   3  -2     837   18052
 -15  -3  -2   14887   16114
 -15   3  -3  627234   70817
 -15  -3  -3  503384   66217
  15  -3   3  408567  103344
  15  -3   4     158   40427
 -15   3  -4   26533   13597
 -15  -3  -4   27863   14747
  15  -3   5 1104269  183079
 -15   3  -5 1299175  110459
 -15  -3  -5 1238749  111213
 -15   3  -6   86058   33052
 -15  -3  -6   50805   26547
 -15   3  -7  125787   38855
 -15  -3  -7  120244   37123
 -15   3  -8  393067   61352
 -15  -3  -8  338266   56881
 -15   3  -9   60144   20971
 -15  -3  -9   46392   18537
  15   5 -10  221480   35218
 -15   5  10  139910   48349
 -15   5   9       2   15220
  15   5  -9    4272    8938
  15   5  -9       7    7203
 -15   5   9       2   25345
 -15   5   8  536036   64609
 -15   5   8  401957   95047
  15   5  -8  614366   59229
 -15   5   7  228117   42385
 -15   5   7  220862   82752
  15   5  -6  942442  122681
 -15   5   6  900731   77415
 -15   5   6  826100  140910
 -15   5   6  891897   83761
  15   5  -5  936460  117870
 -15   5   5  850908  135619
 -15   5   5  941468   78555
  15   5  -4   19421   12667
 -15   5   4   63661   40752
 -15   5   4    6549    8301
  15   5  -3 2325320  166288
 -15   5   3 2095872  190290
 -15   5   3 2088063  114703
  15   5  -2 2592306  182803
 -15   5   2 2491803  138243
  15  -5  -1  158721   34473
 -15   5   1  188808   43025
 -15  -5   1  139795   33244
  15   5  -1  163832   38173
  15   5   0 1064363  111579
  15  -5   0 1227542  147473
 -15   5   0 1302102  113579
  15   5   1  438476   81578
 -15   5  -1  456249   72980
 -15  -5  -1  252185   58214
  15  -5   1  339924   99114
 -15   5  -2  968823   86774
  15   5   2  820317   95861
  15  -5   2  784361  139801
 -15  -5  -2  762978   79064
 -15   5  -3 1954271  124923
 -15  -5  -3 1519669  114802
  15  -5   3 1621785  215461
  15  -5   4  179186   79696
 -15   5  -4   91469   29004
 -15  -5  -4   99276   30402
 -15   5  -5 1216366  104164
 -15  -5  -5 1027097   98339
 -15   5  -6   16058   14089
 -15  -5  -6   70563   20269
 -15   5  -7 1417568  113229
 -15  -5  -7 1282001  106717
 -15   5  -8    2722   17741
 -15  -5  -8    6439    9837
 -15  -5  -9   58340   21685
  15   7 -10  145714   29761
 -15   7   9   71397   28885
  15   7  -9  113718   30308
 -15   7   9  102494   51333
  15   7  -9   80542   26426
 -15   7   8  892609   81742
  15   7  -8 1020766   79645
 -15   7   8  764372  123551
 -15   7   7   45738   22707
 -15   7   7    8525   34145
 -15   7   6   98450   24067
 -15   7   6   72521   42061
  15   7  -6  159862   47228
 -15   7   6   50110   22894
  15   7  -5  119047   49737
 -15   7   5  117932   60723
 -15   7   5   81956   20309
 -15   7   5   99071   30256
  15   7  -4 1459588  144861
 -15   7   4 1431906  162089
 -15   7   4 1177403   65017
 -15   7   4 1396640   91707
  15   7  -3 1012033  126353
 -15   7   3 1099755  147913
 -15   7   3 1085269   90239
 -15   7   2 1191338  135816
  15   7  -2 1176054  122319
 -15   7   2 1102755   86009
  15   7  -1 5203298  151326
  15   7  -1 4775461  243642
  15  -7   0 2291400  199381
  15   7   0 2167522  155379
  15   7   1  864334   62373
  15   7   1  763715   93637
  15  -7   1  861403  142614
 -15   7  -1 1094150  100487
 -15  -7  -1  563300   71833
  15   7   2  420698   87192
  15  -7   2  701330  175382
 -15   7  -2  769076   98186
 -15  -7  -2  456529   78774
  15  -7   3  140396   62173
 -15   7  -3  223382   39659
  15   7   3  147463   36181
 -15  -7  -3  173107   34043
 -15   7  -4  532151   70549
 -15  -7  -4  319165   54007
  15  -7   4  472322  121490
  15   7   4  347741   71335
 -15   7  -5 1299246   99954
 -15  -7  -5  965675   85197
 -15   7  -6   24079   17390
 -15  -7  -6   35379   21124
 -15   7  -7 2730415  157265
 -15  -7  -7 2046254  133082
 -15  -7  -8   14045   14386
  15   9 -10   47122   16212
 -15   9   9  646909   67056
  15   9  -9  754736   64723
  15   9  -9  737332   63486
 -15   9   8  828705   80312
  15   9  -8 1023948   84106
 -15   9   8  710331  117847
  15   9  -8 1034878   82939
 -15   9   7  341324   41337
 -15   9   7  255945   64629
  15   9  -7  467793   48802
 -15   9   6  664052   77365
 -15   9   6  586767  134845
  15   9  -5 3617452  256170
 -15   9   5 3058817  118228
 -15   9   5 3535731  274818
 -15   9   5 3738172  164225
  15   9  -4   22443   28453
 -15   9   4   17070   35493
 -15   9   4    5661   11316
 -15   9   4    3894    9688
 -15   9   3  181360   59941
  15   9  -3  253723   64379
 -15   9   3  150437   33135
  15   9  -2 1722826   86832
  15   9  -2 1661813  147871
 -15   9   2 1517612   97560
  15   9  -1 5972923  170395
  15   9  -1 6165456  281014
 -15   9   1 6358837  205545
  15   9   0  609367   48733
  15   9   0  593291   73552
  15   9   0  621746   48031
  15   9   1  850060   64533
  15  -9   1  761948  140904
  15   9   1  847427   98096
  15   9   2 2507916  112104
  15   9   2 2388831  165043
  15   9   3   55342   21334
  15  -9   3  101776   62568
 -15   9  -3    3313   11191
 -15  -9  -3   36695   16961
 -15   9  -4   19139    7699
 -15  -9  -4   20694   13962
 -15  -9  -5  682867   79514
 -15  -9  -6  134313   40120
 -15  -9  -7 2890758  149180
 -15  -9  -8   24427   13031
  15  11  -9   33517   14508
  15  11  -9   21575   11434
 -15  11   8  808451   72633
  15  11  -8 1003015   75522
  15  11  -8  983083   75725
 -15  11   7  181669   37181
  15  11  -7  149943   33351
 -15  11   6  588177   66638
 -15  11   6  448055   47953
 -15  11   5  511707   62566
 -15  11   5  409133   49517
 -15  11   5  495801   65637
  15  11  -4  946550  134494
 -15  11   4 1035312   83755
 -15  11   4  905623   68513
  15  11  -3  887816  135438
 -15  11   3  839743   71187
 -15  11   3  978921   85783
  15  11  -2  396743   44832
 -15  11   2  438503   51507
  15  11  -2  475587   81977
  15  11  -2  496928   48324
  15  11  -1 1111260   80827
 -15  11   1 1201411   92681
  15  11  -1 1265215   83179
  15  11   0 1135456   73152
  15  11   0 1118198  113476
 -15  11   0 1223714   83093
  15  11   0 1103327   69359
  15  11   1 1705156   83956
  15  11   1 1673290   85777
  15  11   1 1489416  121465
  15  11   2   55035   19020
  15  11   2   12211   14599
  15  11   3  562163   53093
  15  11   4  193553   29880
  15  11   5 2476659  120485
  15  11   6   51739   15642
  15  11   7  878554   66150
  15  11   8   16632    8857
  15  13  -8 1480750   90210
  15  13  -8 1654022   99302
 -15  13   7  206316   38240
  15  13  -7  196753   36535
  15  13  -7  193208   36839
 -15  13   6  589627   63858
  15  13  -6  742968   73269
 -15  13   5  296883   40535
 -15  13   5  231838   32055
 -15  13   4  306944   42802
 -15  13   4  343155   50481
 -15  13   3 1872004  105051
  15  13  -3 2009079  106418
  15  13  -2 1295121  151379
 -15  13   2 1355211   88503
 -15  13   2 1411504   93589
  15  13  -2 1483850   94034
  15  13  -1 1038494   79793
  15  13  -1  847922  117845
 -15  13   1  985120   75223
  15  13  -1 1032402   76252
  15  13   0 1156857   79925
  15  13   0 1147212  128934
  15  13   0 1189347   77371
  15  13   1 2039372  115639
  15  13   1 2150862  112798
  15  13   2  143133   25938
  15  13   2  159578   28728
  15  13   3  958604   66934
  15  13   3  992897   70740
  15  13   4    2895    9904
  15  13   4    2536   13272
  15  13   5 2092644  102262
  15  13   5 2213259  106519
  15  13   6   79373   18385
  15  13   6   69651   16538
  15  13   7 1282502   70975
  15  13   7 1254830   67684
  15  15  -8  538122   51517
  15  15  -7  734417   58614
  15  15  -7  851053   67974
  15  15  -6 2194737  104787
  15  15  -6 2445259  118709
 -15  15   5  835234   65542
  15  15  -5 1026158   80768
 -15  15   4   19580   12057
  15  15  -4   38444   19139
 -15  15   3 3370834  139830
  15  15  -3 3964179  156099
 -15  15   2 2002178  109384
 -15  15   2 1885089  120473
  15  15  -2 1725789  103711
 -15  15   1  221345   36772
  15  15  -1  253375   38369
  15  15   0  370152   51474
 -15  15   0  356530   48675
  15  15   0  397533   50188
  15  15   1  772369   69236
 -15  15  -1  759335   64976
  15  15   1  736783   63955
  15  15   2 3181204  133966
 -15  15  -2 3376404  126787
  15  15   2 3280037  128365
  15  15   3 3841721  149988
 -15  15  -3 4261361  136886
  15  15   3 3772271  141056
  15  15   4    7690    8062
  15  15   4     493   13148
  15  15   5 1487223   84812
  15  15   5 1368111   79046
  15  15   6   20618    6301
  15  15   6   52486   12416
  15  17  -7   22644   10496
 -15  17   7   28608   12527
  15  17  -6  240310   38512
 -15  17   6  195602   36796
 -15  17   5  152313   26836
  15  17  -5  218554   36665
 -15  17   5  165297   34281
 -15  17   4  987593   72750
  15  17  -4 1222714   71642
  15  17  -4  951080   73127
 -15  17   4  958157   84777
 -15  17   3  565225   56656
 -15  17   3  533271   61626
  15  17  -3  431503   48567
  15  17  -3  637946   61698
 -15  17   2  338596   39398
 -15  17   2  275627   36035
  15  17  -2  351356   39443
 -15  17   1 2238351  110913
  15  17  -1 2282792  110065
  15  17   0     494   13402
 -15  17   0    2388    8476
  15  17   1  822768   66144
 -15  17  -1  903211   64696
  15  17   1  803776   61206
  15  17   2   76910   19187
  15  17   2   41432   16676
 -15  17  -2   81503   17054
  15  17   3  828890   63810
  15  17   3  710772   55453
  15  17   4   24983    9164
  15  17   4   24055   12112
  15  17   5 1000454   60978
  15  17   5 1001206   59161
 -15  19   5  117392   22859
 -15  19   4 1253837   71148
  15  19  -4 1267891   62484
 -15  19   4 1097463   70542
 -15  19   3  279011   39909
 -15  19   3  234558   35929
  15  19  -2   75842   21282
 -15  19   2  102139   23457
 -15  19   1  680579   57980
  15  19  -1  641366   55304
 -15  19   0  171821   28048
  15  19   0  183176   29539
 -15  19  -1  369877   38191
  15  19   1  342014   37694
  15  19   2     591    6702
  15  19   3  217710   29687
  15  19   4    6885    9129
 -15  21   3  239512   27961
 -15  21   2  192990   26478
 -15  21   1 1235387   66644
  15  21  -1 1249339   66894
  15  21   0   26645   10508
 -15  21   0   42627   11958
  15  21   1  313429   32198
  15  21   2    4080    5188
 -16   0  10  695508  100614
 -16   0   9 1592697  113418
 -16   0   8  118027   32224
 -16   0   7 1100136   99296
 -16   0   6  100566   38734
  16   0  -5 3720941  219865
 -16   0   5 2902094  151948
  16   0  -4  113094   37067
 -16   0   4   76200   24430
  16   0  -3  477022   53699
 -16   0   3  437008   42021
 -16   0   2  191953   37086
 -16   0   2  279414   59094
  16   0  -2  241011   50332
  16   0  -1 1760347  149088
 -16   0   1 1636150  143696
  16   0   0 2866546  211898
 -16   0   0 2697682  186304
 -16   0  -1 1310880  106231
  16   0   2 1025174  143255
 -16   0  -2 1107742  106060
  16   0   3 3316013  271386
 -16   0  -3 3862280  201145
  16   0   4   17895   32398
 -16   0  -4    1544   14801
 -16   0  -5  861967   86478
  16   0   5  724399  118305
 -16   0  -6 5981905  254345
 -16   0  -7  147381   39516
 -16   0  -8  238000   45179
 -16   0  -9   97758   21153
 -16   2  10     982   12104
 -16   2  10    2557   20408
 -16  -2   9  592766   66056
 -16   2   9  682893   73118
 -16   2   9  677736  117830
 -16  -2   8   42881   22521
 -16   2   8   78196   30049
 -16  -2   7  950340   84583
 -16   2   7 1179249   95689
 -16  -2   6     546   14571
 -16   2   6     586   12600
  16   2  -5 1327318  130905
 -16  -2   5 1059127   79545
 -16   2   5 1218586   88214
  16   2  -4  502192   82061
 -16  -2   4  400247   51890
 -16   2   4  481012   59677
  16  -2  -3 1948005  122178
 -16  -2   3 1412606   87890
 -16   2   3 1766687  102336
  16   2  -3 2280431  149519
  16   2  -2 5864011  258134
 -16  -2   2 5136009  253521
  16  -2  -2 6099565  243813
 -16  -2   2 3786891  164630
 -16   2   2 4704114  188237
  16  -2  -1 2883389  178854
 -16   2   1 3079103  186016
 -16  -2   1 2470837  168246
  16   2  -1 2709163  177465
  16   2   0   49247   13562
 -16   2   0   66941   16356
 -16  -2   0   18984   16561
  16  -2   1 4103115  283024
 -16   2  -1 4299099  212089
 -16  -2  -1 3754963  204783
  16  -2   2   82820   31683
 -16   2  -2   77744   21754
 -16  -2  -2  112977   25992
  16  -2   3 1220213  175238
 -16   2  -3 1359279  117349
 -16  -2  -3 1372287  122495
  16   2   4 1596003  188595
  16  -2   4 1456134  200841
 -16   2  -4 2010066  142186
 -16  -2  -4 1921170  143210
 -16   2  -5  614605   83586
 -16  -2  -5  606788   83443
 -16   2  -6  736053   93205
 -16  -2  -6  576863   84054
 -16   2  -7 1381474  110074
 -16  -2  -7 1393192  110322
 -16   2  -8  978540   92266
 -16  -2  -8  884920   87501
 -16   2  -9  130338   27730
 -16  -2  -9  193172   33346
 -16   4  10   13069   13424
  16   4 -10     439    5807
 -16   4  10   20497   21880
 -16   4   9  569347   65629
  16   4  -9  753094   64678
 -16   4   9  537449   98037
 -16   4   8  129470   38561
 -16   4   8  124988   61160
  16   4  -8  116881   29083
 -16  -4   7  503340   61936
 -16   4   7  672301   76963
 -16   4   7  581827  127959
 -16  -4   6    3672   14441
 -16   4   6    3705   32067
 -16   4   6    3705   13860
  16   4  -5  352008   80013
 -16  -4   5  203962   38343
 -16   4   5  362004   53811
  16   4  -4    9859   23121
 -16  -4   4    4075    6123
 -16   4   4      46   11071
 -16   4   3 5223799  283488
 -16   4   3 5381538  182565
  16   4  -2 2595320  170347
  16  -4  -2 2572402  142373
 -16   4   2 2258496  124381
  16  -4  -1 5066366  212382
 -16  -4   1 4520984  211538
  16   4  -1 4820298  222020
  16   4   0 1008877   99331
  16  -4   0 1204527  133374
 -16   4   0 1171006   98951
 -16  -4   0  866746   86212
  16   4   1 6568386  295513
  16  -4   1 6963810  383830
 -16   4  -1 7536534  276835
 -16  -4  -1 5929664  257049
 -16   4  -2  592234   72543
 -16  -4  -2  362890   58774
  16  -4   2  442942   98773
  16  -4   3 1594341  218247
 -16   4  -3 1820471  138356
 -16  -4  -3 1601874  135078
  16  -4   4 1468509  229007
 -16   4  -4 1791740  142721
 -16  -4  -4 1634070  141873
 -16   4  -5  529181   71287
 -16  -4  -5  425129   64540
 -16   4  -6  911112   98231
 -16  -4  -6  897967   98109
 -16   4  -7  265465   46484
 -16  -4  -7  285396   45950
 -16   4  -8 1487933  107854
 -16  -4  -8 1505472  106724
 -16  -4  -9  271519   35350
  16   6 -10   29805   15209
 -16   6   9  344201   56939
  16   6  -9  440950   54855
  16   6  -9  442531   52046
 -16   6   8   30959   19963
 -16   6   8   23647   27989
  16   6  -8   29086   16545
 -16   6   7     398   14437
 -16   6   7   14227   51645
 -16   6   6 1521000  108229
 -16   6   6 1498315  194844
 -16   6   6 1637837  121894
  16   6  -5     442   21986
 -16   6   5    2605   30552
 -16   6   5   13936   17325
  16   6  -4  152806   55467
 -16   6   4  178366   69444
 -16   6   4  158728   39418
  16   6  -3 7872232  350113
 -16   6   3 7319184  377780
 -16   6   3 6938405  232686
  16   6  -2   51405   28162
 -16   6   2   46829   20667
 -16  -6   1 1685253  140817
  16   6  -1 2352690  172921
  16  -6   0  281293   63622
 -16  -6   0  231054   45272
  16   6   0  395079   62300
  16   6   1  913326  107820
  16  -6   1  850896  143684
 -16  -6  -1  703707   87382
 -16   6  -2  415963   66168
  16   6   2  403063   72857
 -16  -6  -2  329062   58889
  16  -6   2  361844  102111
  16   6   3  167961   54984
 -16   6  -3  240421   54274
 -16  -6  -3  231883   55962
  16   6   4 1892240  165872
  16  -6   4 2028717  263481
 -16  -6  -4 2550620  159946
 -16   6  -5  657843   78334
 -16  -6  -5  551661   72505
 -16   6  -6  355793   67401
 -16  -6  -6  273395   58419
 -16   6  -7  117824   30436
 -16  -6  -7   97181   25577
 -16  -6  -8  343093   47668
  16   8 -10   25552   10063
 -16   8   9  274891   44785
  16   8  -9  380531   46082
  16   8  -9  282040   38816
 -16   8   8      48   10263
 -16   8   8    2867   34917
  16   8  -8    3866   11050
 -16   8   7  344472   42022
 -16   8   7  294479   74930
 -16   8   6  212090   35771
 -16   8   6  150800   54657
 -16   8   6   89063   33289
  16   8  -5 1200443  136950
 -16   8   5  947579   60286
 -16   8   5 1086527  144068
 -16   8   5 1090549   84780
  16   8  -4 1588578  157125
 -16   8   4 1391594  160931
 -16   8   4 1188364   68482
 -16   8   4 1431517   95730
 -16   8   3  386752   80402
  16   8  -3  427992   74340
 -16   8   3  424442   52188
  16   8  -2  149889   48627
 -16   8   2  138194   33989
  16   8  -1  665894   57143
  16   8  -1  625972   91562
 -16   8   1  585980   65051
 -16   8   0  374831   66146
  16   8   0  240621   58209
  16   8   1  137858   28784
  16  -8   1  164111   63516
 -16   8  -1  200473   50996
  16   8   1   70023   32446
  16   8   2  520642   73658
  16   8   2  486600   43974
  16  -8   2  291130   80142
 -16  -8  -2  360441   51097
  16   8   3    1023    6232
 -16   8  -3   32338   22915
 -16  -8  -3   13880   20206
 -16   8  -4  735697   86310
 -16  -8  -4  531411   72099
 -16   8  -5  867783  100118
 -16  -8  -5  554253   80093
 -16  -8  -6  127692   31550
 -16  -8  -7  117385   29405
 -16  -8  -8  128898   28082
 -16  10   9  146063   32794
  16  10  -9  263292   39040
  16  10  -9  245969   38500
 -16  10   8   90849   26087
  16  10  -8  113958   29150
  16  10  -8  102816   30493
 -16  10   7  317218   50915
  16  10  -7  416658   57684
 -16  10   6   50817   17338
 -16  10   6   41943   40970
 -16  10   5   45957   26307
 -16  10   5   88671   62765
 -16  10   5   41980   19978
 -16  10   5   55158   29439
  16  10  -4  225981   65687
 -16  10   4  169533   29566
 -16  10   4  226301   40153
  16  10  -3   63232   30155
 -16  10   3   56696   15359
 -16  10   3   21456   11479
  16  10  -2   38234   15351
 -16  10   2   21248   12253
  16  10  -1  472756   47854
 -16  10   1  413164   52256
  16  10  -1  310502   66003
  16  10   0   40664   14426
  16  10   0   30946   13143
  16  10   0   53505   25567
  16  10   1   78645   17875
  16  10   1   44996   20987
 -16  10  -1  108361   29319
  16  10   2   16341   17489
  16  10   2   21464   23670
 -16  10  -2   12826   21850
  16  10   3  448939   52935
  16  10   4    8814   16114
 -16 -10  -4   21489   22927
 -16 -10  -5   22673   19065
 -16 -10  -6  540143   66312
  16  10   7    1907    5910
 -16 -10  -7    1269   16795
  16  10   8   10288    8935
  16  12  -9     112    9022
  16  12  -9   16875   11267
 -16  12   8  107521   27863
  16  12  -8  114805   27016
  16  12  -8   88032   24454
 -16  12   7  325878   45439
  16  12  -7  431250   51862
 -16  12   6  470249   54821
 -16  12   6  341020   40176
  16  12  -6  432291   58713
 -16  12   5  244009   39870
 -16  12   5  198327   32257
 -16  12   4     639   13481
 -16  12   4     960   10326
 -16  12   4    3090   14889
 -16  12   3  108811   28261
 -16  12   3  129040   33355
 -16  12   2   50047   14912
 -16  12   2   49213   15908
  16  12  -1  109528   25985
  16  12  -1   91414   27451
  16  12  -1   88023   41042
 -16  12   1   97920   27947
  16  12   0   62617   18474
  16  12   0   30246   15211
  16  12   0   13877   17888
 -16  12   0   91106   26214
 -16  12  -1     693    9211
  16  12   1    5856   14865
  16  12   1     206   11441
  16  12   2   21676   12249
  16  12   2   17060   12378
  16  12   3     346    9015
  16  12   4   25179   12503
  16  12   5   66576   17760
  16  12   6   43135   14848
  16  12   6   42297   15817
  16  12   7  107863   19314
  16  12   7  107043   17650
  16  14  -8   24959   11753
  16  14  -8   27800   13236
  16  14  -7  180710   28795
  16  14  -7  216581   34475
 -16  14   6 1572731   80162
  16  14  -6 2159366  112282
 -16  14   5  166036   29652
  16  14  -5  215897   40807
 -16  14   4  528421   55631
 -16  14   3  329413   44164
 -16  14   2  374511   49452
  16  14  -2  465140   55661
  16  14  -1  132014   24300
  16  14  -1  189179   31486
 -16  14   1  137077   25987
  16  14   0  283265   40514
 -16  14   0  278054   38115
  16  14   0  304792   39658
  16  14   1   70879   17291
  16  14   1   73230   19426
 -16  14  -1   50484   14090
  16  14   2  298082   44598
 -16  14  -2  294815   41979
  16  14   2  258889   39326
  16  14   3   40252   11759
  16  14   3   36839   13634
 -16  14  -3   65065   15152
  16  14   4  413154   50134
  16  14   4  401227   47144
  16  14   5   25413   11659
  16  14   5   24746   12520
  16  14   6    3508    5843
  16  14   6    3426    7462
  16  16  -7  524301   49716
 -16  16   7  384386   43571
 -16  16   6  700188   49815
  16  16  -6  895649   67830
 -16  16   5   67014   19121
  16  16  -5   61733   22085
 -16  16   4   13951   13586
  16  16  -4   11940   15219
 -16  16   4    2064   11331
 -16  16   3   38353   13459
  16  16  -3   46986   16841
  16  16  -3   54063   18419
 -16  16   3   35948   16471
 -16  16   2 2234252  111820
  16  16  -2 2413386  117095
 -16  16   1  380836   46506
  16  16  -1  358002   43979
  16  16   0  237184   43678
 -16  16   0  277193   45228
  16  16   0  230658   39733
  16  16   1 1232182   85635
 -16  16  -1 1338569   84554
  16  16   1 1245935   80689
  16  16   2   28421   12396
  16  16   2   10307   10995
 -16  16  -2   41505   15139
  16  16   3  489565   53969
  16  16   3  482124   50093
  16  16   4   63083   19158
  16  16   4   69298   20929
  16  16   5   11553    7253
  16  16   5      93    7685
 -16  18   6   77881   18035
 -16  18   5  127834   20980
  16  18  -5  126082   23763
 -16  18   5  149566   27496
 -16  18   4  187486   27590
 -16  18   4  119104   22952
 -16  18   3  129405   22185
 -16  18   3  154574   25415
 -16  18   2  731640   58856
  16  18  -2  750182   58741
 -16  18   1  772730   60851
  16  18  -1  794500   61230
  16  18   0   64679   16742
 -16  18   0   78140   18552
 -16  18  -1  190661   30020
  16  18   1  163522   28084
  16  18   2  104188   20488
  16  18   3   95426   19826
  16  18   3   96506   21725
  16  18   4  307700   35008
  16  18   4  292130   31617
 -16  20   4    3973    5505
 -16  20   3   76633   16441
  16  20  -3   85782   14395
 -16  20   2   27586   12532
  16  20  -1  164429   23326
 -16  20   1  152713   23356
 -16  20   0  592547   46934
  16  20   0  533070   43768
  16  20   1  446204   38988
  16  20   2  265733   28734
 -17   1  10   22982   23503
 -17  -1  10   41117   33437
 -17  -1   9  106360   28935
 -17   1   9  126204   32957
  17   1  -9  161809   28013
 -17   1   9  135437   59106
 -17  -1   8     687    7346
 -17   1   8    1051    9708
 -17  -1   7     771   13075
 -17   1   7    7041   13025
 -17  -1   6  105701   33720
 -17   1   6  101189   32084
  17   1  -5  188819   38980
 -17  -1   5  105484   18424
 -17   1   5  162548   26227
  17  -1  -4  143121   38729
  17   1  -4  176747   43963
 -17  -1   4  100983   24864
 -17   1   4  128339   28736
  17   1  -3   65473   33348
  17  -1  -3   41639   26251
 -17  -1   3   59115   26585
 -17   1   3   55364   24821
  17   1  -2  964858   96481
  17  -1  -2  962714   92311
 -17  -1   2  617607   62404
 -17   1   2  837381   72870
  17  -1  -1 1767064  142008
 -17  -1   1 1385542  129082
 -17   1   1 1652148  140175
  17   1  -1 1710830  142030
  17  -1   0   43864   59860
  17   1   0   56539   65363
 -17   1   0   37527   53871
 -17  -1   0   33880   54418
 -17   1  -1  488586   77436
 -17  -1  -1  321603   63968
  17  -1   2   70955   67597
 -17   1  -2   55886   45709
 -17  -1  -2   60800   48172
 -17   1  -3  488418   79453
 -17  -1  -3  503634   82666
  17  -1   3  340557   95976
  17   1   4  941004  140156
 -17   1  -4 1193792  109632
 -17  -1  -4 1303586  116226
  17  -1   4 1044804  151316
 -17   1  -5   23212   26384
 -17  -1  -5    8810   21835
 -17   1  -6 1355148  123612
 -17  -1  -6 1422198  127007
 -17   1  -7   62829   23267
 -17  -1  -7    3537   13796
 -17   1  -8   93124   30322
 -17  -1  -8  103422   33558
 -17   3  10   75621   21330
  17   3 -10  171223   25525
 -17   3  10   67914   24827
 -17  -3  10  121956   43311
 -17   3   9  193315   45573
  17   3  -9  301051   45323
 -17   3   9  186754   69857
 -17  -3   8   11568    7864
 -17   3   8    2841   10081
  17   3  -8    3077   11034
 -17   3   7  275958   43748
 -17  -3   7  183544   34480
 -17   3   7  213281   71137
 -17   3   6  279581   49371
  17   3  -6  284974   72555
  17   3  -5  344521   72356
 -17  -3   5  255055   38187
 -17   3   5  318440   45372
  17   3  -4  529920   78421
 -17  -3   4  383320   43810
 -17   3   4  411143   48297
 -17  -3   3    2113    6805
 -17   3   3     263   10076
  17   3  -2  309267   53449
  17  -3  -2  331373   50698
 -17  -3   2  210727   33363
 -17   3   2  272297   39649
  17  -3  -1  550830   97565
 -17   3   1  673285  107622
 -17  -3   1  407074   89467
  17   3  -1  581349  102924
  17  -3   0    1920   17457
  17   3   0    1855   17463
 -17   3   0    1862   10530
 -17  -3   0    9870   20069
  17   3   1  350402   72344
 -17   3  -1  506663   75820
  17  -3   1  356538   88737
 -17  -3  -1  297336   58095
 -17   3  -2  762549   91686
 -17  -3  -2  604449   83954
  17  -3   2  568111  114177
  17  -3   3   21231   37968
 -17   3  -3   23092   22173
 -17  -3  -3    9134   19085
 -17   3  -4  707129   86256
 -17  -3  -4  665337   86580
  17  -3   4  457147  111047
 -17   3  -5   29183   21216
 -17  -3  -5   27552   20569
 -17   3  -6  140766   35232
 -17  -3  -6   82248   29802
 -17   3  -7   27915   11203
 -17  -3  -7   31751   17103
 -17   3  -8   31766   17470
 -17  -3  -8   35894   18372
  17   5 -10  151666   27085
 -17   5  10   86879   36496
 -17   5   9  284618   44963
  17   5  -9  396080   45988
 -17   5   9  226256   62750
  17   5  -9  384209   42379
 -17   5   8   42934   22113
 -17   5   8   84372   46873
  17   5  -8   66287   21739
 -17   5   7  514415   60151
 -17   5   7  426455   94700
 -17   5   6  344846   90006
 -17   5   6  374547   53896
  17   5  -5   53898   25928
 -17   5   5   76088   47410
 -17   5   5    4780   15484
  17   5  -4 1622894  172161
 -17   5   4 1461721  187684
 -17   5   4 1463444  111654
  17   5  -3  476491   81788
 -17   5   3  343302   81440
 -17   5   3  401545   54784
  17   5  -2 1216278  137327
 -17   5   2 1126366  100441
 -17   5   1  507186   73604
 -17  -5   1  362830   58126
  17   5  -1  471820   70360
  17  -5   0  848643  110893
 -17   5   0  965573  110552
 -17  -5   0  632287   92697
  17   5   0  761859  104803
  17  -5   1     564   37309
 -17   5  -1     564   12934
 -17  -5  -1     172   22084
  17   5   1     172   11207
  17   5   2 2572186  182711
  17  -5   2 2780115  253134
 -17  -5  -2 2729135  167565
 -17   5  -2 3344209  180561
  17   5   3  588716   90826
 -17   5  -3  721032   84431
 -17  -5  -3  636822   80395
  17  -5   3  615972  121975
 -17   5  -4 1033631  105113
 -17  -5  -4  845136   95346
 -17   5  -5   49360   29684
 -17  -5  -5   42894   26464
 -17   5  -6 1310857  111317
 -17  -5  -6 1149966  100824
 -17   5  -7   41420   18145
 -17  -5  -7   30745   20200
 -17  -5  -8  298890   45088
 -17   5  -8  404138   54612
 -17   7   9  107722   30308
  17   7  -9  136564   30054
 -17   7   9  160852   58213
  17   7  -9  132417   28515
 -17   7   8  516214   62691
 -17   7   8  529919   97712
  17   7  -8  701113   65560
 -17   7   7  587360   66252
 -17   7   7  545965  101506
 -17   7   6  253941   33708
 -17   7   6  164850   50326
 -17   7   6  252603   35661
  17   7  -5   11303   30227
 -17   7   5   28659   43335
 -17   7   5   38719   19437
 -17   7   5   43923   27816
  17   7  -4    2417   19842
 -17   7   4    2852   34386
 -17   7   4   20407   13600
 -17   7   4    8848   12585
  17   7  -3  795693  123940
 -17   7   3  730180  126598
 -17   7   3  729148   80929
  17   7  -2 1963422  171311
 -17   7   2 1928272  123487
  17   7  -1  252003   33364
  17   7  -1  203833   49864
 -17   7   1  222926   40238
 -17  -7   0 2799853  178597
  17   7   0 3557911  214199
  17   7   1   27751   23869
  17  -7   1   65346   41848
 -17   7  -1   30192   22343
 -17  -7  -1   29014   19515
  17  -7   2     401   28243
 -17   7  -2   12602   27149
 -17  -7  -2    7606   18972
  17   7   2    4129   20356
  17  -7   3    2327   28530
 -17   7  -3   77955   25933
 -17  -7  -3   86058   27378
  17   7   3   60277   24465
 -17   7  -4 1043309  110058
 -17  -7  -4  834988   97353
 -17   7  -5  119992   38902
 -17  -7  -5   55559   25761
 -17   7  -6 3144150  175347
 -17  -7  -6 2358377  144550
 -17  -7  -7  103411   25211
 -17  -7  -8  559217   57193
 -17   9   9   19764   13244
  17   9  -9   38073   15962
 -17   9   8 1518896  107852
  17   9  -8 2052059  116366
 -17   9   7  677005   64577
 -17   9   7  687749  109578
  17   9  -7  767428   68890
 -17   9   6 1141014   94371
 -17   9   6 1084497  157999
 -17   9   5  491414   43988
 -17   9   5  576968  100878
 -17   9   5  680282   67500
  17   9  -4 1352763  156600
 -17   9   4 1131813  150954
 -17   9   4  983198   66218
 -17   9   4 1199579   91627
  17   9  -3   38290   25691
 -17   9   3  126786   27571
  17   9  -2 1548242  161680
 -17   9   2 1434181  105587
  17   9  -1  139301   34971
  17   9  -1  177470   23300
 -17   9   1  159086   27066
  17   9   0 3994606  148357
  17   9   0 3764397  233797
  17   9   1  119463   25021
  17   9   1  120397   40996
 -17   9  -1  109741   39323
  17   9   2  234106   38794
 -17   9  -2  333990   67335
  17  -9   2  152053   71080
  17   9   2  158154   51850
  17   9   3  109944   35759
 -17   9  -3  211933   62369
 -17  -9  -3  140850   51080
 -17   9  -4  142441   36041
 -17  -9  -4  127172   29783
 -17  -9  -5   11244   11857
 -17  -9  -6 4139135  172481
  17   9   7  167264   23041
 -17  -9  -7  256752   37602
  17  11  -9  389830   42732
  17  11  -9  365909   42987
 -17  11   8  592291   59948
  17  11  -8  687794   60888
  17  11  -8  743372   64239
 -17  11   7  779260   71560
  17  11  -7  906367   75424
 -17  11   6 1103667   80270
 -17  11   6  892450   59444
 -17  11   5  452849   54724
 -17  11   5  375524   43927
 -17  11   5  458702   59612
 -17  11   4   41628   12620
 -17  11   4   20241    8782
 -17  11   3  505683   52204
 -17  11   3  518501   60747
  17  11  -2  732033   57840
  17  11  -2  635803   91158
 -17  11   2  675326   60549
  17  11  -1  376771   51965
  17  11  -1  406236   89810
 -17  11   1  387449   59803
  17  11   0 2957636  136028
  17  11   0 2785535  213410
 -17  11   0 3313455  160890
  17  11   0 3169267  135294
  17  11   1    7107    6454
  17  11   1   15269   14039
  17  11   2  514555   60882
  17  11   3    2665   15099
  17  11   4 1401098   82317
  17  11   5  134825   28168
  17  11   6  605241   48656
  17  11   7  184393   25378
  17  11   7  203186   26494
  17  13  -8  136408   22928
  17  13  -8  155856   25933
 -17  13   7 1196414   80511
  17  13  -7 1315150   81002
  17  13  -7 1416580   87292
 -17  13   6  650990   61352
 -17  13   6  556869   48168
  17  13  -6  704510   67423
 -17  13   5  915632   71198
 -17  13   5  697796   56779
 -17  13   4  527838   58629
 -17  13   4  413807   50538
 -17  13   4  563911   64911
 -17  13   3   90412   24720
 -17  13   3  116821   28500
 -17  13   2 2713197  124673
 -17  13   2 3107338  140705
  17  13  -1  454406   51106
 -17  13   1  461975   50027
 -17  13   1  455018   51696
  17  13  -1  487383   49768
  17  13   0 1866585  103551
  17  13   0 2077922  104599
  17  13   1    9264    9661
  17  13   1   26238   16951
  17  13   2  865882   69697
  17  13   2  803256   62431
  17  13   3   91838   19744
  17  13   3  108685   22970
  17  13   4  890520   66675
  17  13   4  950952   73002
  17  13   5  419020   43235
  17  13   5  435052   46096
  17  13   6 1137398   63648
  17  13   6 1183180   68103
  17  15  -7  170105   27409
  17  15  -7  185754   31515
  17  15  -6  570042   50720
  17  15  -6  685900   60788
 -17  15   5    5902    8134
  17  15  -5    9602   11383
 -17  15   4 2971607  118577
  17  15  -4 2033875  113270
 -17  15   3  321167   41794
 -17  15   3  293323   46230
 -17  15   2 1119657   81146
  17  15  -2 1384753   90231
  17  15  -1   41685   12783
 -17  15   1   28492    8063
  17  15   0  512074   51731
 -17  15   0  534186   51465
  17  15   0  512788   48976
  17  15   1   62624   17420
  17  15   1   38734   14249
 -17  15  -1   72859   17535
  17  15   2 6184520  182319
  17  15   2 6127555  169328
  17  15   3  493844   49790
 -17  15  -3  532078   46325
  17  15   3  432070   43785
  17  15   4  982249   65614
  17  15   4  959209   60687
  17  15   5  156440   25823
  17  15   5  171955   25660
  17  17  -6   61478   16783
 -17  17   6   48422   15338
 -17  17   5  513500   43588
  17  17  -5  585092   51038
 -17  17   5  547532   52423
 -17  17   4  629040   53779
 -17  17   4  635045   59607
  17  17  -4  594332   52762
 -17  17   3   23846   13861
 -17  17   2 1203627   79942
  17  17  -2 1273350   80456
  17  17  -1   43384   18615
 -17  17   1   59093   21446
 -17  17   0 1515319   89213
  17  17   0 1434925   84035
  17  17   1   36401   12896
 -17  17  -1   25949   11909
  17  17   2  293159   39762
 -17  17  -2  384137   40653
  17  17   2  403968   42217
  17  17   3   79496   20163
  17  17   3   75457   22136
  17  17   4  922807   58411
  17  17   4  862670   52664
 -17  19   4  364970   33650
 -17  19   3   81581   20276
  17  19  -3   87463   17565
 -17  19   2  259935   32003
  17  19  -1   29747   10777
 -17  19   1   20994   10030
 -17  19   0  187697   27916
  17  19   0  210375   29105
 -17  19  -1  188198   24411
  17  19   1  152340   22894
  17  19   2   94509   17973
 -18   0  10 1293848  133047
 -18   0   9  208387   35354
 -18   0   9  232307   59731
 -18   0   8  802360   73499
 -18   0   7  249084   38624
 -18   0   6  738721   81362
 -18   0   5   95387   26301
  18   0  -4 2030601  163609
 -18   0   4 1369403  103645
 -18   0   3   57967   13796
  18   0  -3   15335   18207
  18   0  -2 2440039  146256
 -18   0   2 1763148   98378
 -18   0   1 2811839  190679
  18   0  -1 3200362  201656
  18   0   0 3559793  231719
 -18   0   0 3298504  212185
  18   0   1 1767885  140660
 -18   0  -1 1888243  128067
 -18   0  -2 6635747  284227
 -18   0  -3   22710   34205
 -18   0  -4    9831   21195
 -18   0  -5  970078  103516
 -18   0  -6    3440   17557
 -18   0  -7  887223   93696
 -18   0  -8   24024   24961
 -18   2  10  177947   50662
 -18  -2  10  106897   45501
 -18  -2   9    2102    9404
 -18   2   9   22084   18258
  18   2  -9   26104   14348
 -18   2   9   42676   39362
 -18  -2   8  297494   46529
 -18   2   8  455600   61206
 -18   2   8  409091   94970
 -18  -2   7      76    8318
 -18   2   7    9025   18426
 -18  -2   6  191273   55674
 -18   2   6 1198291  108851
  18   2  -5    8578   26909
 -18  -2   5   49236   23890
 -18   2   5   36113   22798
 -18  -2   4  924224   89340
 -18   2   4 1150930  103889
  18   2  -3 2807151  206467
  18  -2  -3 2865262  185449
  18   2  -2  454267   87523
  18  -2  -2  366127   72857
 -18  -2   2  240275   50515
 -18   2   2  328265   60438
  18  -2  -1 3107474  211024
 -18   2   1 3067245  212092
 -18  -2   1 2460994  195535
  18   2  -1 2939008  211064
  18   2   0 3543106  211055
  18  -2   0 4013536  229214
 -18   2   0 4020758  212171
 -18  -2   0 3180256  192156
  18   2   1   42777   39806
 -18   2  -1   48189   37413
 -18  -2  -1   21585   31892
  18  -2   2 1932320  202279
 -18   2  -2 2165166  158143
 -18  -2  -2 2064124  156970
  18  -2   3  709176  131086
 -18   2  -3 1077194  110436
 -18  -2  -3 1009573  110261
 -18   2  -4  454331   75369
 -18  -2  -4  344053   67834
 -18   2  -5  784379   88135
 -18  -2  -5  783513   89479
 -18   2  -6   16125   22921
 -18  -2  -6   43684   28839
 -18   2  -7 1555104  122132
 -18  -2  -7 1435632  116326
 -18   2  -8  220858   44405
 -18  -2  -8  241535   46658
 -18   4  10  330140   47874
 -18  -4  10  350499   81339
 -18   4  10  366508   70397
 -18   4   9   16942   15171
  18   4  -9     734   10320
 -18   4   8  297307   49930
 -18   4   8  385819   93164
  18   4  -8  368692   47018
 -18  -4   7     670   11323
 -18   4   7   17368   18014
 -18   4   7   23466   35990
 -18  -4   6  202631   37086
 -18   4   6  281833   51290
 -18   4   6  222662   74812
  18   4  -5     663    7875
 -18   4   5    1635   36710
 -18  -4   5     311   10371
 -18   4   5    2626   12450
 -18   4   4 1076428  154548
 -18   4   4  903158   87856
  18   4  -3 2727738  200617
 -18   4   3 2145051  131386
  18   4  -2 3317987  235800
 -18   4   2 2702845  166604
  18  -4  -1 1510133  146134
 -18   4   1 1734718  163487
  18   4  -1 1348243  150366
  18  -4   0 3373202  230536
 -18   4   0 3726063  225394
  18   4   0 3240333  222706
  18   4   1 1920828  166432
  18  -4   1 2103390  218525
 -18  -4  -1 1801203  153539
 -18   4  -1 2315937  169858
  18   4   2 1207475  125132
  18  -4   2 1003851  144808
 -18   4  -2 1476100  125236
 -18  -4  -2 1205877  116595
  18   4   3  916303  111082
  18  -4   3  989637  148523
 -18   4  -3 1301760  114140
 -18  -4  -3 1199347  111599
 -18   4  -4   79711   35997
 -18  -4  -4   78597   35479
 -18   4  -5 1013288   99181
 -18  -4  -5  844793   89418
 -18   4  -6   47345   21173
 -18  -4  -6  102975   30494
 -18  -4  -7 1373579  113424
 -18   4  -7 1607999  125890
 -18   4  -8   27274   16725
 -18  -4  -8   21576   15585
 -18   6   9   34600   17185
  18   6  -9   17024   11326
 -18   6   9   51762   37807
  18   6  -9   18920   11842
 -18   6   8  619203   62702
 -18   6   8  451440   82048
 -18   6   7  114267   29377
 -18   6   7   91136   43030
 -18   6   6  995980   83055
 -18   6   6  969940  142102
 -18   6   6  881327   85206
 -18   6   5  158013   71142
 -18   6   5  127670   34711
  18   6  -4 1095964  139250
 -18   6   4  792538  128889
 -18   6   4  769598   77499
  18   6  -3  879419  121179
 -18   6   3  663834  109758
 -18   6   3  694402   76392
  18   6  -2 2332619  178842
 -18   6   2 2156545  126671
 -18  -6   1  310318   65786
  18   6  -1  381933   76722
 -18   6   0 1477246  131925
 -18  -6   0 1061684  114960
  18   6   0 1165295  123458
  18  -6   1  782316  135002
 -18   6  -1 1015911  111217
 -18  -6  -1  784935  100332
  18   6   1  780412  106035
  18   6   2  842650  104211
 -18   6  -2 1204570  112842
 -18  -6  -2  811004   93410
  18  -6   2  785017  133450
  18   6   3  708378   92074
 -18   6  -3 1070916  101647
 -18  -6  -3  902640   92113
  18  -6   3  559639  109274
 -18   6  -4     500   25157
 -18  -6  -4    9513   12278
 -18   6  -5  816689   94079
 -18  -6  -5  640311   82631
 -18   6  -6    4629   19737
 -18  -6  -6     116   11499
 -18   6  -7  385438   58634
 -18  -6  -7  344933   53090
 -18  -6  -8   21779   12665
 -18   8   9    3226   10769
  18   8  -9   40830   13365
  18   8  -9   45306   12387
 -18   8   8  570296   66994
 -18   8   8  579744  105729
  18   8  -8  682555   68147
 -18   8   7    4333   13704
 -18   8   7    4333   39163
 -18   8   6  948491   89531
 -18   8   6 1019781  160271
 -18   8   5   32866   33870
 -18   8   5   58964   15625
 -18   8   5   90638   26457
 -18   8   4 1551452  190871
 -18   8   4 1301743  108231
  18   8  -3 2484357  225848
 -18   8   3 2069426  135625
  18   8  -2   22455   19930
 -18   8   2   16078   12885
  18   8  -1  618650   53692
  18   8  -1  628217   91545
 -18   8   1  575602   65225
  18   8   0  548102   46701
  18   8   0  426562   66575
 -18   8  -1  739420   91455
  18   8   1  484434   77051
  18   8   2  142615   27362
  18  -8   2  114515   57255
 -18   8  -2  173937   45676
 -18  -8  -2   63937   26462
  18   8   2   65014   28550
  18   8   3 1028228   75264
 -18  -8  -3 1220865  114804
 -18   8  -4     589   14099
 -18  -8  -4    2731   15002
 -18   8  -5  305791   61907
 -18  -8  -5  261649   54614
 -18  -8  -6  100490   23229
  18   8   7  182845   29812
 -18  -8  -7  266186   45924
 -18  10   9      68    8816
  18  10  -9      89   10042
 -18  10   8  142037   31004
  18  10  -8  189009   34236
  18  10  -8  178629   33431
 -18  10   7    2689    9439
  18  10  -7    5006   15282
 -18  10   6  180714   29942
 -18  10   5  161655   35562
 -18  10   5  142147   27991
 -18  10   5  176441   38599
 -18  10   4   26710   14713
 -18  10   4   49916   23691
 -18  10   3  768969   61523
 -18  10   3  893864   79121
  18  10  -2  916697  124582
 -18  10   2  922799   81297
  18  10  -1  103311   26809
  18  10  -1   49433   32264
 -18  10   1   63496   24303
  18  10   0  285638   70766
  18  10   0  361803   48798
 -18  10   0  386443   57837
  18  10   1    9087   10347
  18  10   1   10064   11913
  18  10   2  159865   33048
 -18  10  -2  206259   56824
  18  10   3   15217   16246
 -18  10  -3   17106   31366
  18  10   4   80066   23660
  18  10   5  302613   38936
 -18 -10  -5  380928   55203
  18  10   6   75057   21489
 -18 -10  -6   97222   29100
  18  10   7   18669    9737
  18  10   7   23343   10710
 -18  12   8   21932   11846
  18  12  -8   30343   13156
  18  12  -8      10    9051
 -18  12   7     752   10328
  18  12  -7   35678   19846
 -18  12   6   20511    8946
 -18  12   6   22346    8733
  18  12  -6   41329   19609
 -18  12   5   64214   14884
 -18  12   5   59849   14507
 -18  12   5    5935   14231
 -18  12   4    9170    8000
 -18  12   4   14368   10513
 -18  12   4    1311    8217
 -18  12   3    1134    9863
 -18  12   3    5415    9271
 -18  12   2     535    7950
 -18  12   2    8790   11311
  18  12  -1    1787    8834
 -18  12   1     816    9948
  18  12   0   86277   19822
  18  12   0   66844   18919
 -18  12   0   49337   17191
  18  12   1   36694   13130
  18  12   1   30285   13700
 -18  12  -1   48967   17737
  18  12   2  145530   32830
  18  12   2  147619   31862
  18  12   3    5838   10412
  18  12   3    9323    9464
  18  12   4  244153   34777
  18  12   4  196668   31979
  18  12   5   50306   14230
  18  12   5   65873   18986
  18  12   6  138586   23810
  18  12   6  141717   24307
  18  14  -7  816440   60141
  18  14  -7  791883   63978
 -18  14   6  219636   28712
  18  14  -6  382406   46932
 -18  14   5   75579   15856
  18  14  -5   39982   17177
 -18  14   4    2200    5526
 -18  14   4       9    6970
 -18  14   3   73978   17245
 -18  14   2     145    7305
  18  14  -1   63546   20061
 -18  14   1   35766   16086
  18  14   0  346895   42068
 -18  14   0  381491   43212
  18  14   0  379396   41116
  18  14   1  815577   69549
 -18  14  -1  929412   72474
  18  14   1  864221   67248
  18  14   2  360532   40849
 -18  14  -2  405763   41235
  18  14   2  383760   38606
  18  14   3   16112   10659
  18  14   3   26998   12550
 -18  14  -3   34593   13398
  18  14   4  160165   26844
  18  14   4  163066   24792
  18  14   5   17842    6682
  18  14   5   38068   11863
  18  16  -6   31012   11681
 -18  16   6   47560   16071
 -18  16   5   48470   13310
  18  16  -5   35497   12105
 -18  16   5   54146   17947
 -18  16   4   31423   14022
  18  16  -4   23530   14692
 -18  16   4   11393    9277
 -18  16   3  919118   62818
  18  16  -3  302634   39777
 -18  16   2      52    8506
 -18  16   1  330099   43608
  18  16  -1  378674   45482
 -18  16   0  506183   48358
  18  16   0  490422   45014
  18  16   1   67528   14901
  18  16   1   45480   14352
 -18  16  -1   55982   12125
  18  16   2   56601   13930
  18  16   2   35063   13470
 -18  16  -2   34580    9850
  18  16   3   48140   11777
  18  16   3   47430   12066
  18  16   4      43    9078
  18  16   4    4243    7559
 -18  18   4   84655   17578
 -18  18   3  499245   46443
 -18  18   2    6288    8609
 -18  18   1  240123   33281
  18  18  -1  237753   31045
 -18  18   0  683973   52944
  18  18   0  718910   52030
  18  18   1  110777   19359
 -18  18  -1  126410   21538
  18  18   2   25413    9507
  18  18   3  171792   20465
 -18  20   2  679176   45313
 -18  20   1  412830   36727
 -19   1  10    8896   20153
 -19  -1  10    3312   37910
 -19  -1   9   39337   18501
 -19   1   9   86828   27063
  19   1  -9  115825   24117
 -19   1   9   71725   43144
 -19  -1   9   74589   45263
 -19  -1   8  172505   34995
 -19   1   8  180676   35593
 -19   1   8  217137   65830
 -19  -1   7  118535   32922
 -19   1   7  110549   31209
 -19  -1   6   28709   11323
 -19   1   6   34513   12073
 -19   1   5  237832   46667
 -19  -1   5  198271   40951
  19   1  -4   47318   30155
 -19  -1   4   13635   19264
 -19   1   4   28857   20825
  19   1  -3  293047   54899
  19  -1  -3  304391   56729
 -19  -1   3  248728   41771
 -19   1   3  259732   43183
  19   1  -2  434339   82468
  19  -1  -2  486688   83806
 -19  -1   2  283300   54948
 -19   1   2  353674   61467
  19  -1  -1  174510   37476
 -19   1   1  322306   62808
 -19  -1   1  284964   60803
  19   1  -1  250093   55143
  19   1   0  177154   55393
 -19   1   0  128346   46697
 -19  -1   0  144427   48539
  19  -1   0  141329   50369
  19  -1   1   55412   65425
 -19   1  -1   24710   52640
 -19  -1  -1   56170   58305
  19   1   1   86990   73167
  19   1   2 1682244  164857
 -19   1  -2 2111624  161869
 -19  -1  -2 1876433  153622
 -19   1  -3 1859613  145913
 -19  -1  -3 1800851  143726
 -19   1  -4  216697   59112
 -19  -1  -4  210416   58109
 -19   1  -5  323481   53979
 -19  -1  -5  234085   46783
 -19   1  -6  846781   94110
 -19  -1  -6  804634   91453
 -19   1  -7   45149   23368
 -19  -1  -7   77053   31027
 -19   1  -8  276809   47085
 -19  -1  -8  252936   43657
 -19   3  10   32934   31094
 -19  -3  10   37519   37486
 -19   3   9  127452   31128
  19   3  -9  185863   30678
 -19   3   9   96551   42296
 -19  -3   8  347094   47295
 -19   3   8  508391   62550
 -19   3   8  520636  101972
  19   3  -8  571345   53326
 -19  -3   7   99985   24802
 -19   3   7  118432   28025
 -19   3   7   70160   43186
 -19   3   6  142275   68844
 -19   3   6   75480   24604
 -19   3   5  611584  123649
 -19  -3   5  411443   58842
 -19   3   5  622179   78734
  19   3  -4     530   28219
 -19   3   4     554   37783
 -19  -3   4    6041   10968
 -19   3   4    1033   12607
 -19  -3   3  409323   60158
 -19   3   3  550700   74557
  19   3  -2  439582   85762
 -19  -3   2  266045   50132
 -19   3   2  317034   56779
  19  -3  -1  283752   73016
 -19   3   1  277463   76483
 -19  -3   1  225482   70086
  19   3  -1  261375   73554
  19   3   0  148702   57072
  19  -3   0  177494   63119
 -19   3   0  192657   61650
 -19  -3   0  157342   57998
 -19   3  -1    9775   29481
 -19  -3  -1    7787   17810
  19   3   1    7005   16481
  19  -3   2  164551   60970
 -19   3  -2  225289   50037
 -19  -3  -2  179861   47368
  19   3   2  228832   56308
  19   3   3  593352  100026
 -19   3  -3  729271   96163
 -19  -3  -3  668211   92419
 -19   3  -4   22034   30244
 -19  -3  -4    7403   24527
 -19   3  -5   23934   23001
 -19  -3  -5   34250   31199
 -19   3  -6   34853   26261
 -19  -3  -6   82159   35333
 -19   3  -7   96565   28811
 -19  -3  -7  105024   31549
 -19  -3  -8   32416   18069
 -19   5   9  112594   28254
  19   5  -9  223377   32373
 -19   5   9  150363   46145
 -19   5   8  429026   60737
 -19   5   8  348563   82940
  19   5  -8  442610   53652
 -19   5   7    2454    9942
 -19   5   7    6936   26421
 -19   5   6   71719   54513
 -19   5   6    1324   13810
 -19   5   5  342133   73454
 -19   5   5  519889   58062
  19   5  -4   10294   24348
 -19   5   4     130   12296
  19   5  -3  449267   79024
 -19   5   3  329593   49267
  19   5  -2    3025   15933
 -19   5   2   27588   22752
 -19  -5   1  685908   96661
  19   5  -1  902684  106539
  19  -5   0  141264   33069
 -19   5   0   81469   25437
 -19  -5   0   64051   22120
  19   5   0  109515   30867
  19   5   1  353414   78059
 -19   5  -1  503442   86959
 -19  -5  -1  366321   75188
  19   5   2 1277516  144379
  19  -5   2 1233316  182671
 -19   5  -2 1687471  148366
 -19  -5  -2 1397560  140466
 -19   5  -3  156852   51906
 -19  -5  -3  110429   45311
 -19   5  -4  115708   37779
 -19  -5  -4  112762   39942
 -19   5  -5  888351  101367
 -19  -5  -5  811489   94489
 -19   5  -6   93817   34844
 -19  -5  -6  111395   36359
 -19  -5  -7  276984   46525
 -19   5  -7  285960   49020
 -19   7   9  162599   31605
  19   7  -9  235286   33141
  19   7  -9  210698   29631
 -19   7   8   31766   16356
 -19   7   8     886   21012
  19   7  -8   24807   16365
 -19   7   7  958849   87435
 -19   7   7  860191  135185
 -19   7   6  234209   34419
 -19   7   6  141419   50065
 -19   7   6  201303   34985
 -19   7   5    5599   19836
 -19   7   5     113   15062
 -19   7   4   17093   10978
 -19   7   4   13233   14735
  19   7  -3   99453   50646
 -19   7   3   48308   26971
 -19   7   2  340879   53564
  19   7  -2  393326   82629
  19   7  -1 2628639  202184
 -19   7   1 2320506  141718
  19   7   0  111429   35476
 -19   7   0   32942   20763
 -19  -7   0  104261   34173
 -19  -7  -1 1287464  130631
  19   7   1 1314311  140307
 -19   7  -2   51489   28060
 -19  -7  -2   59519   26961
  19   7   3  117375   24073
 -19   7  -3  160894   42387
 -19  -7  -3  129748   37479
 -19   7  -4  256267   59032
 -19  -7  -4  173854   49605
 -19   7  -5 2084199  152779
 -19  -7  -5 1604621  128927
 -19   7  -6  659118   86234
 -19  -7  -6  522698   72718
  19   7   7  311916   30097
 -19  -7  -7  525439   55378
 -19   9   9  388211   44192
  19   9  -9  488471   45389
 -19   9   8     274    9295
  19   9  -8    1647    9425
 -19   9   7 2713493  130434
  19   9  -7 2788621  131453
 -19   9   6  364421   52097
 -19   9   5   18197    5389
 -19   9   5   44590   16341
 -19   9   4  473795   48087
 -19   9   4  579222   67732
 -19   9   3  702442   70218
 -19   9   2  770804   78453
  19   9  -1 1451458   84642
 -19   9   1 1306936   98123
  19   9   0  988487   78317
 -19   9   0 1103517   99206
  19   9   2    3282   15024
 -19   9  -2   25044   37031
  19   9   3  262392   45002
 -19  -9  -3  286126   65844
  19   9   4  585276   52406
 -19  -9  -4  716873   80591
  19   9   5 1042502   72704
 -19  -9  -5 1466545  115140
  19   9   6  809308   59549
 -19  -9  -6 1294536   99574
 -19  11   8   97704   21482
  19  11  -8  176196   28564
  19  11  -8  154972   27716
 -19  11   7 1827958  103886
  19  11  -7 2194022  114266
 -19  11   6  179856   29373
 -19  11   5  454073   54344
 -19  11   5  378905   43182
 -19  11   5  459494   58808
 -19  11   4  182276   28535
 -19  11   4  225790   37269
 -19  11   3  122846   28189
 -19  11   3  129060   34203
 -19  11   2  179870   35458
  19  11  -1 2763177  125037
 -19  11   1 2680418  139239
  19  11   0  238366   34066
 -19  11   0  245307   40603
  19  11   1 1853309   97026
 -19  11  -1 2114458  118104
  19  11   1 2017546   95588
  19  11   2   17389   12714
  19  11   2   29963   13780
  19  11   3 1730427   92816
  19  11   3 1768370   99193
  19  11   4    5828    6161
  19  11   5  439079   44277
  19  11   5  458727   48839
  19  11   6  235753   30598
  19  11   6  281121   35040
 -19  13   7  722019   59488
  19  13  -7  805204   60990
  19  13  -7  819715   65065
 -19  13   6  541500   53041
  19  13  -6  589429   59128
 -19  13   5 1562364   88478
 -19  13   5 1273290   73468
 -19  13   4   68044   17348
 -19  13   4   93868   25576
 -19  13   3  921679   62309
 -19  13   3 1073332   73950
 -19  13   2   18716   10330
 -19  13   2   62456   19358
  19  13  -1 2186939  108357
 -19  13   1 2017746  101145
 -19  13   1 2270202  114739
  19  13   0   83534   18198
 -19  13   0   83026   17162
  19  13   1  894844   74111
  19  13   1  945614   70774
  19  13   2   27932   13298
  19  13   2   17981   13258
  19  13   3 1321705   86589
  19  13   3 1347561   80192
  19  13   4    7731    9419
  19  13   4    7926   12110
  19  13   5  372057   37811
  19  13   5  342854   33083
  19  15  -6     716    9019
  19  15  -6     716    6609
 -19  15   5 1290652   71770
  19  15  -5 1302875   81653
 -19  15   5 1374966   88286
 -19  15   4   47442   15572
  19  15  -4   64260   20463
 -19  15   3 1142223   74394
 -19  15   2   32513   11053
 -19  15   1  453992   47324
 -19  15   0  243359   30864
  19  15   0  249035   29779
  19  15   1  827080   67358
 -19  15  -1  830662   65431
  19  15   1  745218   59256
  19  15   2 1964414   95386
 -19  15  -2 2128222   94437
  19  15   2 2004209   88105
  19  15   3  487205   48198
 -19  15  -3  539224   45696
  19  15   3  451168   42423
  19  15   4  126722   25028
  19  15   4  112502   20895
 -19  17   5  270591   26113
 -19  17   4    8289    5913
  19  17  -4    7160    6415
 -19  17   3 1042120   62278
 -19  17   2   56048   16650
 -19  17   1  866738   61133
  19  17   0    1714    7251
 -19  17   0    1868    7739
 -19  17  -1 1267151   68326
  19  17   1 1038551   58810
  19  17   2   16835    7843
 -19  17  -2   36851   11991
 -19  19   3  779052   48503
 -19  19   2  181082   24345
 -19  19   1  691444   49357
 -19  19   0   99331   18784
 -20   0   9   98727   27549
 -20   0   9  104361   41550
 -20   0   8  194914   40551
 -20   0   8  171581   69190
 -20   0   7  898391   88900
 -20   0   6  316688   57405
 -20   0   5  996152   90794
 -20   0   4  452619   52043
  20   0  -3 4018636  271451
 -20   0   3 2385371  170082
  20   0  -2 7293932  335408
 -20   0   2 4648162  218594
 -20   0   1    2589   26786
  20   0  -1   15177   27453
  20   0   0 2798458  246879
 -20   0   0 3170042  253686
  20   0   1 7679084  350788
 -20   0  -1 8032975  331462
 -20   0  -2  278234   87455
  20   0   2  159137   80488
 -20   0  -3    5052   33117
 -20   0  -4 3660592  216434
 -20   0  -5  492210   70102
 -20   0  -6 2393330  149838
 -20   0  -7    2383   12128
 -20   2   9  141082   33647
  20   2  -9  172769   28547
 -20   2   9   98257   43910
 -20  -2   9  109388   55249
 -20  -2   8   53621   20883
 -20   2   8  106834   29886
 -20   2   8   94452   48060
 -20   2   7  372055   46323
 -20  -2   7  277462   38412
 -20   2   7  324974   74615
 -20  -2   6    5877    9455
 -20   2   6   29713   21584
 -20   2   5 1473526  174965
 -20  -2   5 1065763   92319
 -20   2   5 1382822  111436
 -20   2   4  901324  128433
 -20  -2   4  689443   71541
 -20   2   4  787834   82240
 -20  -2   3   73501   24450
 -20   2   3  139398   37644
  20   2  -2 1621639  163402
  20  -2  -2 1716789  154909
 -20  -2   2 1023531   99332
 -20   2   2 1163458  109828
 -20   2   1  332031   85687
  20   2  -1  359564   81875
 -20  -2   1  315456   80539
  20  -2  -1  346626   80082
  20  -2   0 1538456  159203
 -20   2   0 1723892  166362
 -20  -2   0 1429678  152646
  20   2   0 1464972  155519
  20   2   1  630926  110082
  20  -2   1  559219  106584
 -20   2  -1  733636  110677
 -20  -2  -1  602112  103888
  20   2   2 1157069  129525
 -20   2  -2 1331620  126644
 -20  -2  -2 1298361  125797
 -20  -2  -3  422933   74136
 -20   2  -3  396482   69888
 -20   2  -4 1395581  129992
 -20  -2  -4 1259276  123308
 -20   2  -5  153328   47430
 -20  -2  -5  182871   51690
 -20   2  -6 1410850  116624
 -20  -2  -6 1355055  111489
 -20   2  -7  186387   40251
 -20  -2  -7  159113   36147
 -20   4   9  339781   44056
 -20   4   9  391857   68634
 -20   4   8   50337   21099
 -20   4   8    6911   27894
  20   4  -8   18723   11412
 -20   4   7  102277   28718
 -20   4   7  141612   63193
 -20  -4   6    1097    7564
 -20   4   6    8001   14886
 -20   4   5  671406  129189
 -20   4   5  571253   77896
 -20   4   4 1102161  160610
 -20   4   4  925146   98895
 -20   4   3  328535   52559
 -20  -4   3  212952   37005
  20   4  -2  560512   96374
 -20  -4   2  303800   50422
 -20   4   2  513846   72591
 -20  -4   1 1418008  144649
  20   4  -1 1657582  154258
 -20   4   1 1373974  107198
  20  -4   0  916018  121768
 -20   4   0 1155001  131360
 -20  -4   0  820683  115213
  20   4   0  807827  114990
  20   4   1   20903   18167
 -20   4  -1   50306   25286
 -20  -4  -1   79448   41186
 -20   4  -2 1911124  163485
 -20  -4  -2 1647062  156444
 -20   4  -3   84860   37363
 -20  -4  -3  105425   39424
 -20   4  -4  607090   87884
 -20  -4  -4  601954   89471
 -20   4  -5  501498   78780
 -20  -4  -5  482106   75897
 -20   4  -6  864697   92146
 -20  -4  -6  742210   83160
 -20   4  -7   70601   25088
 -20  -4  -7   71390   21381
 -20   6   9  271829   45156
  20   6  -9  398984   46860
 -20   6   8   76170   22683
 -20   6   8   97015   42417
  20   6  -8  106396   21894
 -20   6   7  521759   63417
 -20   6   7  485787   93003
 -20   6   6 1123094   93468
 -20   6   6 1140174  152054
 -20   6   6 1170377  104360
 -20   6   5  423958   93650
 -20   6   5  362375   58154
 -20   6   4  297309   73417
 -20   6   4  273499   32090
 -20   6   4  328528   49105
 -20   6   3   45094   25108
  20   6  -2   69795   40496
 -20   6   2   41075   27111
  20   6  -1  805839  120710
 -20   6   1  718179   87403
 -20   6   0 1080916  122024
 -20  -6   0  712414  102605
  20   6   0  818436  110818
 -20   6  -1  586628   96091
 -20  -6  -1  416310   80889
 -20   6  -2 4219146  241897
 -20  -6  -2 3239812  217772
 -20   6  -3  130295   33624
 -20  -6  -3   80838   28383
 -20   6  -4   99766   31840
 -20  -6  -4   58737   29305
 -20   6  -5  153041   41359
 -20  -6  -5  123510   36034
 -20   6  -6  424554   58229
 -20  -6  -6  342192   50187
 -20  -6  -7      30    9902
 -20   8   8   76620   27109
  20   8  -8  111746   29770
 -20   8   7  683308   64820
 -20   8   6  241148   44363
 -20   8   6  216283   66406
 -20   8   5  433771   77416
 -20   8   5  480818   51214
 -20   8   4   31200   10352
 -20   8   4    3842   14586
 -20   8   3  336977   53931
 -20   8   2 1323481  102435
 -20   8   1    8532   15138
  20   8   0  774762   69606
 -20   8   0  664329   82230
 -20   8  -1  209633   58885
 -20   8  -2 1847213  154025
 -20  -8  -2 1046609  114609
  20   8   3   35613   10631
 -20   8  -3   30897   15409
 -20  -8  -3   17958   17141
  20   8   4  333716   32220
 -20  -8  -4  441793   55764
  20   8   5   64398   15194
 -20   8  -5   96644   28222
 -20  -8  -5   39871   18602
  20   8   6  132749   20900
 -20  -8  -6  175667   33576
 -20  10   8      24    9313
  20  10  -8    7021   12497
  20  10  -8   11751   12414
 -20  10   7  135613   30933
  20  10  -7  159989   33804
 -20  10   6    4869    7272
 -20  10   5   25644   19306
 -20  10   5   12778   11376
 -20  10   5   36677   24129
 -20  10   4    5523    5631
 -20  10   4   13550   10519
 -20  10   3   28499   15275
 -20  10   3   39964   20913
 -20  10   2   20677   17703
 -20  10   1  157646   34367
  20  10   0  265514   37608
 -20  10   0  234691   42874
  20  10   1  619585   50782
 -20  10  -1  699224   65500
  20  10   2  165535   28271
  20  10   3    2612    6556
  20  10   4  263218   35280
  20  10   5  506950   43816
  20  10   6  353275   33753
  20  10   6  397526   39091
 -20  12   7   38252   15881
  20  12  -7   24519   14881
  20  12  -7    7895   11897
 -20  12   6  154791   24932
  20  12  -6  150485   26784
 -20  12   5   16263    8608
 -20  12   5   22059   10421
 -20  12   4    3286   10632
 -20  12   4    1561    9525
 -20  12   4    5488   10646
 -20  12   3   40086   14457
 -20  12   3   49433   15611
 -20  12   2     616    8168
 -20  12   2     131    7306
  20  12  -1   40590   13860
 -20  12   1   70752   21244
  20  12   0   12200   10589
 -20  12   0   16377   13546
  20  12   1   34141   12972
 -20  12  -1     793    8701
  20  12   2   96926   24653
  20  12   2  100025   27364
 -20  12  -2  134061   33101
  20  12   3   10845    9989
  20  12   3   34080   16606
 -20  12  -3   29589   16422
  20  12   4  257893   33063
  20  12   4  203372   26588
  20  12   5   68704   15049
  20  12   5   92162   19773
  20  14  -6  585869   49221
  20  14  -6  472166   48326
 -20  14   5   82180   17424
  20  14  -5  112989   24544
 -20  14   4   18184    9004
 -20  14   3   88696   21926
 -20  14   3   77985   22487
 -20  14   2   18307   13465
 -20  14   1    3182    8241
  20  14   0    2236    7792
 -20  14   0   16238    7121
  20  14   1 1488933   84109
 -20  14  -1 1648958   88381
  20  14   2   76810   17881
  20  14   2   78952   20553
 -20  14  -2   80242   18848
  20  14   3    2072    8623
  20  14   3      80   10670
 -20  14  -3      19    4933
  20  14   4   36323    8767
  20  14   4   59784   15801
 -20  16   5  123353   19124
  20  16  -5  101445   20146
 -20  16   4  229675   29491
  20  16  -4  132153   25201
 -20  16   3    2762    5400
  20  16  -3      15    7663
 -20  16   2  217620   31299
 -20  16   1   41698   14903
 -20  16   0   40596   13560
 -20  16  -1      96    9237
  20  16   2  435119   40612
 -20  16  -2  428686   37953
  20  16   2  402864   34751
  20  16   3    3027    5358
 -20  18   3   17613    8086
 -20  18   2  225715   26287
 -20  18   1   23358    9226
 -20  18   0  159014   23194
 -21   1   9      12   10748
 -21   1   9      12   26005
 -21  -1   9       7   33992
 -21  -1   8  145931   33762
 -21   1   8  157881   34767
 -21   1   8  164785   58118
 -21  -1   8  237857   75514
 -21  -1   7   24679   16043
 -21   1   7   25044   16694
 -21   1   7   58005   34061
 -21   1   6  134940   58693
 -21  -1   6   17939   21232
 -21   1   6  136800   36645
 -21  -1   5  198949   46606
 -21   1   5  255083   54292
 -21  -1   4  217631   49929
 -21   1   4  253815   55130
 -21  -1   3   98826   38921
 -21   1   3  145574   47067
  21   1  -2  677231  105544
  21  -1  -2  668288  101031
 -21  -1   2  408303   63998
 -21   1   2  508205   75064
 -21  -1   1   15510   16245
 -21   1   1    8218   17333
 -21   1   1   23639   32172
 -21  -1   1   18961   35093
  21   1  -1     296   16960
  21  -1  -1   45122   28178
  21   1   0  164937   47630
  21  -1   0  214708   49902
 -21   1   0  247659   57848
 -21  -1   0  246673   60791
  21  -1   1  523061   97672
  21   1   1  589739  102863
 -21   1  -1  654095  102796
 -21  -1  -1  559401   96632
 -21   1  -2 1095184  150787
 -21  -1  -2 1057387  149721
 -21   1  -3     904   18818
 -21  -1  -3     644   24738
 -21   1  -4  166967   44085
 -21  -1  -4  129422   44220
 -21   1  -5  494269   74311
 -21  -1  -5  517297   75775
 -21   1  -6  912456   94793
 -21  -1  -6  840282   90361
 -21   1  -7  231833   45420
 -21  -1  -7  216873   42538
 -21   3   9   15320   16123
 -21   3   9    1847   17002
 -21   3   8  494992   59510
 -21   3   8  378760   81048
 -21  -3   7   65323   23238
 -21   3   7  133815   35023
 -21   3   6  191792   73072
 -21   3   6  163737   47310
 -21   3   5   70364   39063
 -21  -3   5   57897   22689
 -21   3   5   76748   26866
 -21  -3   4  318529   49550
 -21   3   4  459334   66274
 -21  -3   3   80263   32174
 -21   3   3  121583   42319
  21   3  -2   41105   22743
 -21  -3   2   57325   19823
 -21   3   2  111036   31554
 -21  -3   1  733430  108388
 -21  -3   1  532876   65844
 -21   3   1  673467   80280
  21  -3   0   31207   34752
 -21   3   0   20957   21074
 -21  -3   0   47657   29383
  21   3   0   48349   27115
 -21   3  -1  417089   68875
 -21  -3  -1  308373   62259
 -21   3  -2  334324   64152
 -21  -3  -2  357387   67012
 -21   3  -3   13109   19071
 -21  -3  -3    5507   18652
 -21   3  -4  408552   71411
 -21  -3  -4  303097   59900
 -21   3  -5    2447   18810
 -21  -3  -5    2757   16716
 -21   3  -6   65452   28794
 -21  -3  -6   45462   21408
 -21   3  -7  361700   53559
 -21  -3  -7  258918   46038
 -21   5   9   88606   20361
 -21   5   9   87451   30838
 -21  -5   9   84144   37736
 -21   5   8   81414   21607
 -21   5   8   54738   34227
  21   5  -8  102781   21134
 -21   5   7  183426   38371
 -21   5   7  210518   59442
 -21   5   6  237922   42603
 -21   5   6  235475   64786
 -21   5   6  185106   40212
 -21   5   5    2146   24448
 -21   5   5   40422   21783
 -21   5   4  146348   44182
 -21   5   3    8242   17280
 -21   5   2  393261   67228
 -21  -5   1   58556   32905
 -21   5   1  113194   47060
 -21   5   0  462318   88519
 -21  -5   0  369461   80336
 -21   5  -1  600252   95193
 -21  -5  -1  382750   78791
 -21   5  -2    1032   17497
 -21  -5  -2    1092   19014
 -21   5  -3   34912   25704
 -21  -5  -3    2884   23019
 -21   5  -4  967724  103884
 -21  -5  -4  816298   94367
 -21   5  -5   66749   28331
 -21  -5  -5   45833   23979
 -21   5  -6  469735   70771
 -21  -5  -6  354580   59672
 -21   7   8  263425   37887
  21   7  -8  317684   37676
 -21   7   7   29918   15402
 -21   7   7   62251   30118
 -21   7   6  417338   55143
 -21   7   6  539146   98407
 -21   7   5  106589   54492
 -21   7   5   83127   32681
 -21   7   4    8173   11868
 -21   7   4    8498   13686
 -21   7   3     592   18614
 -21   7   2  329230   57678
 -21   7   1   35600   26580
 -21  -7   0 1916621  159784
 -21   7   0 2188390  135171
 -21   7  -1  283586   68503
 -21  -7  -1  213596   57395
 -21   7  -2 1406206  137651
 -21  -7  -2  915246  107094
 -21   7  -3  171198   40712
 -21  -7  -3  145979   31265
 -21   7  -4  778321   97404
 -21  -7  -4  515057   77637
  21   7   5  215742   24827
 -21  -7  -5  317285   46061
 -21   7  -6  379638   60351
 -21  -7  -6  312866   54185
 -21   9   8  829050   66000
  21   9  -8  902656   66170
 -21   9   7   63090   17226
  21   9  -7   60067   17667
 -21   9   6  997257   82667
 -21   9   5  593444   55560
 -21   9   5  469526   40097
 -21   9   5  590105   60308
 -21   9   4    3359   14367
 -21   9   4    7004   18169
 -21   9   3  435075   41913
 -21   9   3  510912   57509
 -21   9   2 1910961  122180
 -21   9   1 1985273  126694
  21   9   0 2883625  124418
 -21   9   0 2686479  149802
  21   9   1  681178   58294
  21   9   2 1674078   87247
 -21   9  -3  525114   75263
  21   9   4  650204   51364
 -21   9  -4  993753  103716
  21   9   5  917787   55814
  21   9   6   18796    7728
 -21  11   7   13195    9467
  21  11  -7     256   13374
 -21  11   6  713278   60846
 -21  11   5   18326   11479
 -21  11   5   10489    7306
 -21  11   5    7126    9563
 -21  11   4  578949   50275
 -21  11   4  707108   66711
 -21  11   3   18489   11050
 -21  11   3   38029   17343
 -21  11   2  607498   50365
 -21  11   2  712787   63152
 -21  11   1  398504   51809
  21  11   0 1059005   72291
 -21  11   0 1024741   83205
  21  11   1 1089708   74711
 -21  11  -1 1234805   92229
  21  11   2 2305539  108530
 -21  11  -2 2802405  138404
 -21  11  -3   96876   22660
  21  11   3   47773   11020
  21  11   4  713501   55818
  21  11   4  742663   50532
  21  11   5   39210   11447
  21  13  -6  501115   47012
 -21  13   5    4234    4915
 -21  13   4 1216320   74334
 -21  13   4 1315129   89025
 -21  13   3   32836   14296
 -21  13   3   54876   17938
 -21  13   2  366451   43557
 -21  13   2  459094   52469
 -21  13   1  419539   45651
 -21  13   1  461573   50429
  21  13   0  666435   54465
 -21  13   0  629856   52625
 -21  13   0  656734   57415
  21  13   1  148448   26585
 -21  13  -1  147484   26672
 -21  13  -1  206772   33520
  21  13   2 1481563   77686
 -21  13  -2 1598327   79726
  21  13   3   66513   14184
 -21  13  -3   68608   13398
  21  13   4  606920   47454
  21  15  -5     710    4969
 -21  15   4  835795   50868
  21  15  -4  305443   32076
 -21  15   3   15708   11540
 -21  15   2  336002   37193
 -21  15   1  132144   26483
 -21  15   0  153733   23135
 -21  15  -1  490519   43974
  21  15   2   19090   12000
 -21  15  -2   27323   12972
  21  15   3   59660   12524
 -21  17   3   68251   14897
 -21  17   2  524535   41057
 -21  17   1  115619   18543
 -21  17   0  925075   56944
 -21  17  -1    6495    5437
 -22   0   9  146407   47081
 -22   0   8  209310   31757
 -22   0   8  244822   55011
 -22   0   7  233877   36193
 -22   0   7  251994   59547
 -22   0   6 2410309  210038
 -22   0   6  732230   72332
 -22   0   5  752131   81908
 -22   0   4  563035   65102
 -22   0   3 3973838  201411
 -22   0   2  701745   92798
 -22   0   1 3260150  181612
 -22   0   0 2714851  230616
 -22   0  -1  265834   61791
 -22   0  -2  201133   72083
 -22   0  -3 3500861  216228
 -22   0  -4   68973   29078
 -22   0  -5 6456231  276834
 -22   0  -6  146654   39648
 -22   2   9   99792   35277
 -22  -2   9   73540   36696
 -22  -2   8   61263   20698
 -22   2   8   76911   24362
 -22   2   8  128179   50436
 -22  -2   8   68725   44241
 -22   2   7  279482   49751
 -22  -2   7  167886   36992
 -22   2   7  377935   89988
 -22   2   6  773541  130682
 -22   2   6  624420   81936
 -22   2   5  517146  100211
 -22  -2   5  359420   52357
 -22   2   5  407226   60804
 -22  -2   4  515187   66988
 -22   2   4  677769   81942
 -22  -2   3  475650   61357
 -22   2   3  557822   72467
 -22  -2   2  328978   59314
 -22   2   2  398804   68156
 -22  -2   1  559724   73697
 -22   2   1  757567   88958
 -22   2   0  110394   45557
 -22  -2   0  134933   51486
 -22   2  -1 2470140  213824
 -22  -2  -1 2523438  219849
 -22   2  -2  194334   56003
 -22  -2  -2  190984   49164
 -22   2  -3 1125553  136669
 -22  -2  -3 1120248  137654
 -22   2  -4   83214   36545
 -22  -2  -4   75547   35498
 -22   2  -5  437574   73136
 -22  -2  -5  483395   76931
 -22   2  -6  258686   56065
 -22  -2  -6  217497   52073
 -22   4   8  131103   33613
 -22   4   8  185640   59573
 -22   4   7   25599   19381
 -22   4   7   77337   47179
 -22  -4   6  158451   27947
 -22   4   6  253128   60296
 -22   4   6  250530   43539
 -22   4   5  610520  110040
 -22   4   5  483468   71919
 -22   4   4  385268   58960
 -22  -4   4  226812   37154
 -22   4   3  388734   55915
 -22  -4   3  263087   37993
 -22  -4   2  587820   75083
 -22   4   2  918561  104085
 -22  -4   1  101610   29222
 -22   4   1  125390   37776
 -22   4   0  164984   68171
 -22  -4   0   96133   64034
 -22   4  -1  819603  114089
 -22  -4  -1  695472  111462
 -22   4  -2  154449   57630
 -22  -4  -2  106292   45717
 -22   4  -3  931006  113741
 -22  -4  -3  880662  112191
 -22   4  -4   42706   31807
 -22  -4  -4   76046   37586
 -22   4  -5   85880   31233
 -22  -4  -5   90783   30673
 -22   4  -6   14067   13654
 -22  -4  -6   53360   20841
 -22   6   8   28387    8887
  22   6  -8   14210    7633
 -22   6   7  964407   80162
 -22   6   7  952115  119190
 -22   6   6   14677   20550
 -22   6   6     606   23878
 -22   6   6     606   13439
 -22   6   5  809571  112000
 -22   6   5  817008   80164
 -22   6   4  154930   23400
 -22   6   4  211248   41745
 -22   6   3   51378   25688
 -22   6   2  215086   43514
 -22   6   1  119810   34181
 -22   6   0   18699   16290
 -22  -6   0     874   15977
 -22   6  -1 4268579  252299
 -22  -6  -1 3387501  226881
 -22   6  -2   10666   20650
 -22  -6  -2   29150   23886
 -22   6  -3 1047549  119222
 -22  -6  -3  809271  104627
 -22   6  -4   78051   26523
 -22  -6  -4   50686   19598
 -22   6  -5     611   14867
 -22  -6  -5     405   12335
 -22   6  -6     108   10921
 -22  -6  -6    2847   16951
 -22   8   8  155752   29474
  22   8  -8  259368   35002
 -22   8   7  340640   38278
  22   8  -7  256185   31992
 -22   8   6  214359   38259
 -22   8   5  247784   45718
 -22   8   4   87590   23950
 -22   8   4  180004   43774
 -22   8   3    7475   15213
 -22   8   2  669180   76209
 -22   8   1 1438333  113673
 -22   8   0   46258   25954
  22   8   1 1524493   82798
 -22  -8  -2   13923   26997
 -22   8  -3  576382   90727
 -22  -8  -3  414010   76899
 -22   8  -4   20419   18324
 -22  -8  -4     115   25456
 -22  -8  -5  170289   40004
 -22  10   7   34499   14305
  22  10  -7   21461   15794
 -22  10   6   51681   18183
 -22  10   5    9570    9204
 -22  10   5    5073   11575
 -22  10   4   19979    6294
 -22  10   4    5240   10809
 -22  10   3  765787   57672
 -22  10   3  938376   78827
 -22  10   2  712897   71186
 -22  10   1  150124   33823
  22  10   0  401940   46774
 -22  10   0  432303   60300
  22  10   1    2290    7714
 -22  10  -1    4321   12153
  22  10   2    2167   10005
 -22  10  -2    2003   11914
  22  10   3   55665   12241
  22  10   4   21468   11549
  22  10   5  823348   48868
 -22  12   6   43189   16477
  22  12  -6   32580   17001
 -22  12   5   41391   13677
 -22  12   5   36866   11646
 -22  12   4   34504   13326
 -22  12   4   16804    8904
 -22  12   4   41470   16169
 -22  12   3   41391   13280
 -22  12   3   58332   16871
 -22  12   2   70988   21324
 -22  12   2   77284   24179
 -22  12   1  146396   24760
 -22  12   1  179231   29923
  22  12   0    7340    9806
 -22  12   0     594    9570
  22  12   1   42920   11638
 -22  12  -1   19638    8966
  22  12   2   64346   14302
 -22  12  -2  134023   24176
  22  12   3    6205   10770
  22  12   4    1807    6983
  22  14  -5   15614   10433
 -22  14   4   50446   12133
 -22  14   3      60    5667
 -22  14   2   93203   20451
 -22  14   1   64913   18999
 -22  14   0  113593   20627
  22  14   1  786329   54808
 -22  14  -1  817224   56117
  22  14   2   28158    8623
 -22  14  -2   27571    9537
  22  14   3   13012    6937
 -22  16   3  127873   19817
 -22  16   2      12    5726
 -22  16   1   24347    8357
 -22  16   0   14816   11118
 -22  16  -1  173364   22272
 -23  -1   8     155   12922
 -23   1   8   35013   14725
 -23   1   8     152   18706
 -23  -1   8     155   28909
 -23  -1   7   51369   17282
 -23   1   7   62372   22675
 -23  -1   7   45594   21451
 -23   1   6   23026   30229
 -23   1   6    9274   15036
 -23  -1   5    7641   10076
 -23   1   5   51781   23441
 -23  -1   4  448421   59340
 -23   1   4  563121   68922
 -23  -1   3     135   10532
 -23   1   3      65   20334
 -23  -1   2   29830   22681
 -23   1   2     876   18737
 -23   1   1  337947   58729
 -23  -1   1  316245   56328
 -23   1   0  999424  143307
 -23  -1   0 1016524  144809
 -23   1  -1  167517   45027
 -23  -1  -1  205682   51187
 -23   1  -2   89267   46038
 -23  -1  -2  155235   58839
 -23   1  -3  239715   48638
 -23  -1  -3  224174   50877
 -23   1  -4     803   21020
 -23  -1  -4    2364   25565
 -23   1  -5  461375   72424
 -23  -1  -5  405941   65770
 -23   1  -6  891032   81938
 -23  -1  -6  838293   78901
 -23   3   8   36833   28126
 -23  -3   8   19631   22636
 -23  -3   7  135037   25163
 -23   3   7  203957   36383
 -23   3   7  224136   55578
 -23  -3   6   28785   11974
 -23   3   6    1193   14740
 -23   3   6    2359   17056
 -23   3   6    1193   13603
 -23  -3   5   28065   14270
 -23   3   5   21427   16661
 -23  -3   4   81577   25618
 -23   3   4   85039   27657
 -23  -3   3   22826   19576
 -23   3   3   15495   20675
 -23  -3   2    2452   11577
 -23   3   2     139   17552
 -23  -3   1   48231   16771
 -23   3   1   18613   17757
 -23  -3   0 1075941  149353
 -23  -3   0  689166   89532
 -23   3  -1  339885   80237
 -23  -3  -1  259565   74176
 -23   3  -2   39082   39070
 -23  -3  -2   27054   36111
 -23   3  -3  289728   67598
 -23  -3  -3  197025   55365
 -23   3  -4     971   20028
 -23  -3  -4    1064   26132
 -23   3  -5  139295   35965
 -23  -3  -5   69092   26275
 -23   3  -6  307494   48610
 -23  -3  -6  326764   49655
 -23   5   8    6673    8909
 -23  -5   8      74   39174
 -23   5   7  705441   66439
 -23   5   7  646892   89101
 -23   5   6    7360   11873
 -23   5   6    4815   36423
 -23   5   6      93   12706
 -23   5   5   40921   22897
 -23   5   4   75556   30857
 -23   5   3  149785   36652
 -23   5   2   28712   21239
 -23   5   1  162252   39279
 -23  -5   0  263515   60134
 -23   5   0  323477   54322
 -23   5  -1  139257   46531
 -23  -5  -1  198346   52402
 -23   5  -2     675   21307
 -23  -5  -2    4834   16375
 -23   5  -3  573440   89924
 -23  -5  -3  500994   83259
 -23   5  -4   21004   21677
 -23  -5  -4   25833   12748
 -23   5  -5  456763   65162
 -23  -5  -5  304614   51027
 -23   7   7  200092   31689
  23   7  -7   71567   18740
 -23   7   6  127446   28369
 -23   7   5  253310   45183
 -23   7   4   51810   10663
 -23   7   4   82974   21573
 -23   7   3  252709   49615
 -23   7   2  800652   84513
 -23   7   1  320017   52690
 -23   7   0  275159   50001
 -23  -7  -1  467932   78659
 -23   7  -1  587569   73619
  23   7   2  528713   49731
 -23  -7  -2  615660   87194
 -23   7  -3  544569   75899
 -23  -7  -3  452416   66435
 -23   7  -4  182011   47599
 -23  -7  -4  263971   51954
 -23   7  -5   27881   16561
 -23  -7  -5   50811   19909
 -23   9   7  354552   37121
  23   9  -7  188383   30319
 -23   9   6     718    7307
 -23   9   5  735236   65468
 -23   9   5  686361   71141
 -23   9   4  226507   34239
 -23   9   4  296714   49927
 -23   9   3  301089   35408
 -23   9   3  363216   49882
 -23   9   2  172605   32285
 -23   9   1 3649204  169658
 -23   9   0 1647936  116081
  23   9   1  436693   42907
 -23   9  -1  487404   58305
  23   9   2 1097550   72692
 -23   9  -2 1267230   97834
  23   9   3  784094   52993
  23   9   4  464443   37311
  23   9   5    5649    5981
 -23  11   6   27838   11099
  23  11  -6   11461   11617
 -23  11   5  538355   49870
 -23  11   4  255573   33844
 -23  11   4  184508   25716
 -23  11   4  240866   36451
 -23  11   3  551504   50562
 -23  11   3  718641   68398
 -23  11   2  512270   48798
 -23  11   2  653449   63984
 -23  11   1   44278   18313
 -23  11   1   36711   18546
 -23  11   0 1178013   87382
  23  11   1  610902   50561
 -23  11  -1  694933   64670
  23  11   2  547443   48962
 -23  11  -2  660579   63547
  23  11   3  715482   48512
 -23  11  -3  955139   65840
  23  11   4  264264   29732
  23  13  -5  129653   20595
 -23  13   4  134556   21245
 -23  13   3  918000   56222
 -23  13   3 1159043   70117
 -23  13   2   72876   17200
 -23  13   2   98062   21059
 -23  13   1   27657   10688
 -23  13   1   50174   15296
 -23  13   0  440063   41938
 -23  13   0  531988   48673
  23  13   1  535473   44155
 -23  13  -1  600049   47659
  23  13   2  472061   39393
 -23  13  -2  554790   43187
 -23  15   3  520092   40432
 -23  15   2   22927   10338
 -23  15   1  314996   32091
 -23  15   0  146876   21933
 -23  15  -1  312358   30777
 -24   0   7  513582   63839
 -24   0   7  753756  112982
 -24   0   6  531025   68299
 -24   0   5  939056   91662
 -24   0   4 1184284  105335
 -24   0   3 1956488  136345
 -24   0   2 1008008   96180
 -24   0   1  204866   44727
 -24   0   0  602760   77279
 -24   0  -1  125899   45181
 -24   0  -2  955999  134694
 -24   0  -3  749316  112017
 -24   0  -4 3919869  218190
 -24   0  -5 2657677  164236
 -24   2   8  149728   27980
 -24  -2   7   84530   18561
 -24   2   7  159681   30380
 -24   2   7  170079   45272
 -24  -2   7  176615   50191
 -24  -2   6  659902   67474
 -24   2   6  782143   76447
 -24  -2   5  154663   32586
 -24   2   5  193809   39449
 -24  -2   4  543228   66738
 -24   2   4  715072   84718
 -24   2   3  349649   55008
 -24  -2   3  215423   38408
 -24  -2   2  472880   66251
 -24   2   2  528825   74638
 -24  -2   1    1227   10593
 -24   2   1     667   20122
 -24  -2   0 1046451   96546
 -24   2   0 1007753   98935
 -24   2  -1   49303   27061
 -24  -2  -1   59957   38418
 -24   2  -2 2193140  176536
 -24  -2  -2 1992777  170212
 -24   2  -3  519399   79480
 -24  -2  -3  590726   81357
 -24   2  -4  636900   82326
 -24  -2  -4  594122   79553
 -24   2  -5    5533   17030
 -24  -2  -5   81433   25536
 -24   4   7   82246   22199
 -24   4   7   77391   32142
 -24  -4   7   25637   24036
 -24   4   6  748194   66911
 -24   4   6  165451   42132
 -24   4   5   17748   21592
 -24   4   4  629260   77959
 -24   4   3  570829   69331
 -24  -4   2  120963   32906
 -24   4   2  211818   52044
 -24  -4   1   19259    9634
 -24   4   1   20365   19891
 -24  -4   0  213605   39358
 -24   4   0  254329   47142
 -24  -4  -1   10391    8112
 -24   4  -1   12348   21451
 -24  -4  -1   23291   21940
 -24   4  -2 1662990  153646
 -24  -4  -2 1689065  154187
 -24   4  -3  183902   49910
 -24  -4  -3  222976   50204
 -24   4  -4  483570   79808
 -24  -4  -4  479017   78069
 -24   4  -5    8463   17933
 -24  -4  -5    4913   12570
 -24   6   7   51178   14826
  24   6  -7   26880   11256
 -24   6   6  199669   36824
 -24   6   5   14667   12953
 -24   6   4  518113   67839
 -24   6   3  529366   72581
 -24   6   2   78814   28588
 -24   6   1   10805   19113
 -24   6   0  712386   80711
 -24  -6  -1  591304   83340
 -24   6  -1  624799   67881
  24   6   2 1012096   64331
 -24  -6  -2 1168563  119305
 -24   6  -3    4690   22274
 -24  -6  -3    5539   28433
 -24   6  -4  698225   87482
 -24  -6  -4  781574   89987
 -24   8   7  133383   22630
  24   8  -7   28551   10741
 -24   8   6  135121   29717
 -24   8   5   96377   22973
 -24   8   5   89776   24297
 -24   8   4   85308   16984
 -24   8   4  106076   24591
 -24   8   3  275667   30714
 -24   8   3  323739   43192
 -24   8   2   42839   19331
 -24   8   1  162822   38281
 -24   8   0 1803077  115920
 -24   8  -1  126857   38126
  24   8   2  461932   43407
 -24   8  -2  605132   66092
  24   8   3     508    8163
  24   8   4  261871   26870
 -24  10   6   44976   10186
  24  10  -6   14799    6819
 -24  10   5   20444   13135
 -24  10   5    5122    8074
 -24  10   4   50366   17155
 -24  10   4   20519    9761
 -24  10   4   23296   13796
 -24  10   3  360058   35666
 -24  10   3  402592   46771
 -24  10   2  383481   39555
 -24  10   2  505433   55298
 -24  10   1   66235   22511
 -24  10   0   22046   13380
 -24  10  -1     577   11005
  24  10   2   11994    8576
 -24  10  -2    1482   10455
  24  10   3     547    4743
 -24  10  -3    4097    6316
 -24  12   4   13817    6345
 -24  12   4    4652    7099
 -24  12   3   21089    7278
 -24  12   3   36752   13600
 -24  12   2  200819   28436
 -24  12   2  248092   35249
 -24  12   1    6265    5360
 -24  12   1    5480   11206
 -24  12   0   37313   14989
 -24  12   0   29387   13294
 -24  12  -1   44224   14937
 -24  12  -1   56260   17890
  24  12   2     518    6183
 -24  12  -2    6004    5057
 -24  14   3   10111    6236
 -24  14   2  101884   17544
 -24  14   1    2627    4447
 -24  14   0     158    6539
 -24  14  -1  765046   47433
 -25  -1   7     586    5965
 -25   1   7    7681   10147
 -25  -1   6   14446   10584
 -25   1   6   18949    9012
 -25  -1   5   16535   12711
 -25   1   5   10712   10144
 -25  -1   4    3976   15542
 -25   1   4    9916   15597
 -25  -1   3   60954   25926
 -25   1   3   63582   26495
 -25  -1   2  169580   40974
 -25   1   2  220803   49594
 -25  -1   1  294925   51780
 -25   1   1  262248   49350
 -25  -1   0     256   10574
 -25   1   0      40   18663
 -25  -1  -1   41538   21574
 -25   1  -1   91721   40785
 -25  -1  -1   39445   25755
 -25   1  -2  114277   55631
 -25  -1  -2  130389   56383
 -25   1  -3  198394   52262
 -25  -1  -3  175363   48221
 -25   1  -4   47128   30173
 -25  -1  -4   57940   34131
 -25   1  -5  374067   59589
 -25  -1  -5  346423   55823
 -25   3   7   27345   13613
 -25  -3   6   64442   18374
 -25   3   6   76773   22114
 -25   3   5     856    9554
 -25  -3   4   41149   15824
 -25   3   4   35167   20188
 -25  -3   3   29122   13217
 -25   3   3     777   12452
 -25  -3   2   47019   17372
 -25   3   2  137627   33728
 -25  -3   1  132343   31842
 -25   3   1   97831   32413
 -25  -3   0     162    9820
 -25   3   0    7182   15546
 -25  -3  -1  741595   99799
 -25  -3  -1  626456   66322
 -25   3  -1  652719   73067
 -25   3  -2  404229   76024
 -25  -3  -2  399901   75414
 -25   3  -3    1884   22065
 -25  -3  -3    5097   13591
 -25   3  -4  104263   34155
 -25  -3  -4  142618   39318
 -25   3  -5   40817   22091
 -25  -3  -5   94424   31676
 -25   5   7  392713   45842
 -25   5   6   95735   24893
 -25   5   5     185   14731
 -25   5   4  164997   34724
 -25   5   3    1616   12637
 -25   5   2  189762   48129
 -25   5   1  347478   56170
 -25   5   0   73446   27705
 -25   5  -1  454951   67668
 -25  -5  -2  886587  104677
 -25   5  -3   69107   32503
 -25  -5  -3  103408   39439
 -25   5  -4  409032   62546
 -25  -5  -4  508960   64590
 -25   7   6   39694   12860
 -25   7   5  124699   25081
 -25   7   5  128447   29175
 -25   7   4  393379   52568
 -25   7   3  224203   25564
 -25   7   3  265606   38599
 -25   7   2  214205   40637
 -25   7   1 1185473   98357
 -25   7   0   10043   14929
 -25   7  -1  186719   40600
 -25   7  -2   76777   22157
  25   7   3  325636   33097
 -25  -7  -3  327513   54126
 -25   7  -3  439147   51717
 -25   7  -4  124893   23083
 -25   9   6  303541   32810
  25   9  -6   43907   13282
 -25   9   5   82844   18246
 -25   9   5   13891   12691
 -25   9   4  481083   39729
 -25   9   4  652467   61230
 -25   9   3  424299   42950
 -25   9   3  524040   60023
 -25   9   2  507490   45206
 -25   9   2  652656   64429
 -25   9   1  221651   36500
 -25   9   0 1168094   87163
 -25   9  -1  695997   65892
 -25   9  -2  102549   26548
 -25   9  -3  932990   70650
 -25  11   4  287792   30388
 -25  11   4  331336   38096
 -25  11   3  377756   35739
 -25  11   3  271374   28401
 -25  11   3  335730   37869
 -25  11   2  151686   21053
 -25  11   2  203713   29084
 -25  11   1  852861   52314
 -25  11   1  910210   62758
 -25  11   0   23943   12566
 -25  11   0   11384    9716
 -25  11  -1  144304   21639
 -25  11  -1  174096   27420
 -25  11  -2  141451   23557
 -25  13   2  534092   39492
 -25  13   1   68996   15097
 -25  13   0     453    5592
 -26   0   6  568901   54928
 -26   0   5  343556   47770
 -26   0   4     253   16723
 -26   0   3  345963   57029
 -26   0   2   60881   21696
 -26   0   1  383514   68499
 -26   0   0   38779   28272
 -26   0  -1  532659   64625
 -26   0  -2  563771   88376
 -26   0  -3  358863   64087
 -26   0  -4 1149697   95053
 -26  -2   6   36788   17453
 -26   2   6   27912   18244
 -26   2   5 1035401   89004
 -26  -2   4   52897   21389
 -26   2   4     826   12961
 -26  -2   3  383500   53524
 -26   2   3  570046   72106
 -26  -2   2   15644   11424
 -26   2   2      82   16402
 -26  -2   1  497491   62915
 -26   2   1  588063   74964
 -26  -2   0    6581   12407
 -26   2   0   15975   17088
 -26  -2  -1  777676   76177
 -26   2  -1  870979   86057
 -26  -2  -2  493403   61414
 -26   2  -2  523977   66340
 -26   2  -3  828085  100905
 -26  -2  -3  844549   97743
 -26   2  -4  257846   55431
 -26  -2  -4  263883   51860
 -26   4   6   12849   11676
 -26   4   5  791317   79412
 -26   4   4   22949   16475
 -26   4   3  303462   51125
 -26   4   2   48540   22454
 -26   4   1  216361   40680
 -26   4   0   35162   23208
 -26  -4  -1 1039664   80105
 -26   4  -1 1407292  106886
 -26  -4  -2  584585   80380
 -26  -4  -2  516422   51764
 -26   4  -2  655216   66905
 -26  -4  -3  704665   80913
 -26   6   6     427    8670
 -26   6   5  395619   46126
 -26   6   5  398076   51593
 -26   6   4   49179   19965
 -26   6   3  342270   36171
 -26   6   3  478892   58543
 -26   6   2   76316   19187
 -26   6   1  255555   47270
 -26   6   0  387834   56085
 -26   6  -1  174260   32772
 -26   6  -2  163329   35848
 -26   6  -3 1303244   83647
 -26   8   5  146287   22089
 -26   8   5    5819    7381
 -26   8   4   86842   24997
 -26   8   3  224894   29631
 -26   8   3  253034   41309
 -26   8   2      18    4357
 -26   8   2    2942   11305
 -26   8   1  144571   33999
 -26   8   0    7202   10048
 -26   8  -1  841032   69138
 -26   8  -2   29825   12414
 -26   8  -3  422834   43245
 -26  10   4   20104    9809
 -26  10   4    7725    9088
 -26  10   3   37663   10145
 -26  10   3   89363   19618
 -26  10   2    3350    6334
 -26  10   2    6909    8100
 -26  10   1  212250   27229
 -26  10   1  250659   35688
 -26  10   0  340362   32222
 -26  10   0  370060   39811
 -26  10  -1   66693   17112
 -26  12   2   71585   14089
 -26  12   1   71290   12989
 -26  12   0      80    4156
 -27   1   6      29    9608
 -27   1   5   46024   16198
 -27  -1   4  600920   62646
 -27   1   4  699257   70686
 -27  -1   3  155521   26487
 -27   1   3  167376   29820
 -27  -1   2   94485   25851
 -27   1   2  123494   33740
 -27  -1   1    1550   15253
 -27   1   1    5197   11038
 -27  -1   0   12038   10278
 -27   1   0    7777   11094
 -27  -1  -1    6858   13570
 -27   1  -1    8371   12808
 -27  -1  -2     618    9882
 -27   1  -2    3388   12494
 -27  -1  -3   94328   20769
 -27   1  -3   24670   10332
 -27   3   6   27536   13081
 -27  -3   5  116062   23086
 -27   3   5  156862   34626
 -27   3   4      65    8358
 -27   3   3  369116   54703
 -27   3   2  175637   36824
 -27  -3   1    9504    9796
 -27   3   1     143   12085
 -27  -3   0   25496   14107
 -27   3   0   55021   21539
 -27  -3  -1   20172   13041
 -27   3  -1   18910   15750
 -27   3  -2  200644   37914
 -27  -3  -2  174099   31456
 -27   3  -3  218575   33436
 -27   5   5  208098   31951
 -27   5   5   58303   19675
 -27   5   4  104839   26722
 -27   5   3  189799   36322
 -27   5   2  147900   31852
 -27   5   1    1916   11626
 -27   5   0  505163   60577
 -27   5  -1     256   16208
 -27   5  -2  480764   51347
 -27   5  -3  436025   48406
 -27   7   5   23576    9919
 -27   7   4  491429   53965
 -27   7   3  101167   16530
 -27   7   3  130650   26235
 -27   7   2  253038   30542
 -27   7   2  336039   45787
 -27   7   1   69939   22742
 -27   7   0  532457   53921
 -27   7  -1     121    6361
 -27   7  -2   23993   13077
 -27   9   4  821583   61451
 -27   9   3  116806   22286
 -27   9   2  232920   24124
 -27   9   2  302012   35001
 -27   9   1  140345   19469
 -27   9   1  185005   27273
 -27   9   0   10631    8902
 -27   9  -1  911887   64421
 -28   0   5    1441    7626
 -28   0   4  531632   52449
 -28   0   3  510185   57297
 -28   0   2  774928   68742
 -28   0   1  118024   24237
 -28   0   0  351793   47936
 -28   0  -1  298988   39881
 -28   0  -2  205465   35458
 -28   2   5   31806   16047
 -28   2   4  465524   54593
 -28   2   3  308383   44000
 -28  -2   2  179527   30639
 -28   2   2  198215   36919
 -28  -2   1   37751   14271
 -28   2   1   50030   20119
 -28  -2   0  374305   46868
 -28   2   0  442306   56518
 -28  -2  -1  234932   34894
 -28   2  -1  316791   46203
 -28   2  -2  222695   34617
 -28   4   5   65033   17052
 -28   4   4  268217   38972
 -28   4   3   26369   14130
 -28   4   2  111076   30547
 -28   4   1   23004   12578
 -28   4   0  388981   52459
 -28   4  -1 1163891   85041
 -28   4  -2  170374   27750
 -28   6   4  274755   37754
 -28   6   3    3576   10229
 -28   6   2  247826   28239
 -28   6   2  421949   50077
 -28   6   1    7769    7859
 -28   6   0  155673   30491
 -28   6  -1  216785   35459
 -28   8   3   10396    8073
 -28   8   2  172555   26790
 -28   8   1   19948    7816
 -28   8   1   51151   16760
 -28   8   0   53977   13523
 -28   8   0   59835   17323
 -29   1   3   86599   23916
 -29   1   2  116271   26166
 -29   1   1   51303   20997
 -29   1   0     244    7461
 -29   3   3  429512   47946
 -29   3   2   20140    6906
 -29   3   1   58821   19655
 -29   3   0   14996    9883
 -29   5   2   11434   10573
 -29   5   1  113776   23702
 -29   5   0  262469   33494

;
_shelx_hkl_checksum              54725
_shelx_fab_file
;
    0    0    1     79.68      0.00
    0    0    2    -46.86      0.00
    0    0    3    -15.33      0.00
    0    0    4     13.30      0.00
    0    0    5      3.28      0.00
    0    0    6     -0.34      0.00
    0    0    7      1.66      0.00
    0    0    8      6.92      0.00
    0    0    9      0.50      0.00
    0    0   10     -2.05      0.00
    0    0   11     -2.20      0.00
    0    2    0    189.76      0.00
    0    2    1    -29.44      0.00
    0    2    2    -57.10      0.00
    0    2    3     -2.49      0.00
    0    2    4     20.27      0.00
    0    2    5      6.97      0.00
    0    2    6     -4.73      0.00
    0    2    7     -5.10      0.00
    0    2    8      3.13      0.00
    0    2    9      3.66      0.00
    0    2   10      2.44      0.00
    0    2   11      1.09      0.00
    0    4    0     36.40      0.00
    0    4    1    -30.80      0.00
    0    4    2    -11.80      0.00
    0    4    3      7.13      0.00
    0    4    4      3.20      0.00
    0    4    5      0.65      0.00
    0    4    6     -5.58      0.00
    0    4    7     -2.84      0.00
    0    4    8     -0.82      0.00
    0    4    9     -0.84      0.00
    0    4   10     -0.66      0.00
    0    4   11      0.84      0.00
    0    6    0    -18.13      0.00
    0    6    1    -10.68      0.00
    0    6    2     -6.01      0.00
    0    6    3      4.31      0.00
    0    6    4     -0.83      0.00
    0    6    5     -0.40      0.00
    0    6    6     -6.94      0.00
    0    6    7      1.50      0.00
    0    6    8      0.91      0.00
    0    6    9     -0.77      0.00
    0    6   10      0.93      0.00
    0    6   11      0.96      0.00
    0    8    0      7.22      0.00
    0    8    1     22.22      0.00
    0    8    2     -2.21      0.00
    0    8    3     -2.46      0.00
    0    8    4     -4.70      0.00
    0    8    5     -1.56      0.00
    0    8    6     -0.22      0.00
    0    8    7      9.79      0.00
    0    8    8      4.65      0.00
    0    8    9     -2.90      0.00
    0    8   10     -2.12      0.00
    0    8   11     -0.53      0.00
    0   10    0      9.27      0.00
    0   10    1     16.30      0.00
    0   10    2     -1.34      0.00
    0   10    3     -5.30      0.00
    0   10    4     -1.03      0.00
    0   10    5     -3.70      0.00
    0   10    6     -2.54      0.00
    0   10    7      3.93      0.00
    0   10    8      2.91      0.00
    0   10    9     -0.06      0.00
    0   10   10      1.53      0.00
    0   12    0     -9.75      0.00
    0   12    1     -9.77      0.00
    0   12    2     -2.04      0.00
    0   12    3      3.08      0.00
    0   12    4     13.83      0.00
    0   12    5     -0.33      0.00
    0   12    6     -4.88      0.00
    0   12    7     -0.76      0.00
    0   12    8     -1.80      0.00
    0   12    9     -2.86      0.00
    0   12   10      0.20      0.00
    0   14    0      3.68      0.00
    0   14    1     -4.33      0.00
    0   14    2      0.86      0.00
    0   14    3     -0.43      0.00
    0   14    4      9.15      0.00
    0   14    5     -1.80      0.00
    0   14    6     -3.46      0.00
    0   14    7      1.17      0.00
    0   14    8     -2.71      0.00
    0   14    9     -1.96      0.00
    0   16    0      6.98      0.00
    0   16    1     -0.10      0.00
    0   16    2     -2.15      0.00
    0   16    3     -5.36      0.00
    0   16    4      0.47      0.00
    0   16    5     -4.57      0.00
    0   16    6     -3.82      0.00
    0   16    7      2.61      0.00
    0   16    8      1.25      0.00
    0   16    9      3.43      0.00
    0   18    0     13.48      0.00
    0   18    1      6.43      0.00
    0   18    2     -3.16      0.00
    0   18    3     -4.71      0.00
    0   18    4     -1.30      0.00
    0   18    5     -2.00      0.00
    0   18    6     -1.84      0.00
    0   18    7      1.92      0.00
    0   18    8      0.41      0.00
    0   20    0     -2.27      0.00
    0   20    1     -2.90      0.00
    0   20    2     -1.39      0.00
    0   20    3      3.53      0.00
    0   20    4      4.75      0.00
    0   20    5      2.09      0.00
    0   20    6     -1.88      0.00
    0   20    7     -2.15      0.00
    0   22    0     -1.80      0.00
    0   22    1     -1.30      0.00
    0   22    2      1.45      0.00
    0   22    3      1.69      0.00
    0   22    4      1.21      0.00
    0   22    5      1.04      0.00
    0   24    0      3.64      0.00
    0   24    1      1.24      0.00
    0   24    2     -0.80      0.00
    0   24    3     -2.89      0.00
   -1    1   11      0.42      0.00
   -1    1   10      1.75      0.00
   -1    1    9      2.34      0.00
   -1    1    8     -1.99      0.00
   -1    1    7     -5.30      0.00
   -1    1    6      5.84      0.00
   -1    1    5    -12.37      0.00
   -1    1    4    -21.22      0.00
   -1    1    3     -6.44      0.00
   -1    1    2     -8.34      0.00
   -1    1    1    -85.88      0.00
    1    1    0    -40.43      0.00
    1    1    1   -114.62      0.00
    1    1    2      0.41      0.00
    1    1    3    -16.09      0.00
    1    1    4     -2.48      0.00
    1    1    5      4.42      0.00
    1    1    6      1.70      0.00
    1    1    7     -3.38      0.00
    1    1    8      3.74      0.00
    1    1    9      0.31      0.00
    1    1   10     -0.33      0.00
    1    1   11      0.21      0.00
   -1    3   11      0.30      0.00
   -1    3   10     -1.23      0.00
   -1    3    9     -2.05      0.00
   -1    3    8     -3.37      0.00
   -1    3    7     -1.63      0.00
   -1    3    6      7.28      0.00
   -1    3    5      2.14      0.00
   -1    3    4     -7.43      0.00
   -1    3    3     -5.97      0.00
   -1    3    2     -3.64      0.00
   -1    3    1     15.25      0.00
    1    3    0     71.18      0.00
    1    3    1    -28.71      0.00
    1    3    2     16.49      0.00
    1    3    3      5.85      0.00
    1    3    4     -0.40      0.00
    1    3    5      0.52      0.00
    1    3    6     -2.04      0.00
    1    3    7     -1.68      0.00
    1    3    8      0.54      0.00
    1    3    9      0.34      0.00
    1    3   10      0.35      0.00
    1    3   11     -0.11      0.00
   -1    5   11      0.65      0.00
   -1    5   10     -1.52      0.00
   -1    5    9     -1.93      0.00
   -1    5    8     -3.58      0.00
   -1    5    7     -0.27      0.00
   -1    5    6      3.41      0.00
   -1    5    5     11.80      0.00
   -1    5    4     10.36      0.00
   -1    5    3      7.63      0.00
   -1    5    2    -21.66      0.00
   -1    5    1     -6.29      0.00
    1    5    0     13.69      0.00
    1    5    1    -22.09      0.00
    1    5    2      6.57      0.00
    1    5    3     23.84      0.00
    1    5    4      8.61      0.00
    1    5    5      5.78      0.00
    1    5    6     -2.25      0.00
    1    5    7     -0.82      0.00
    1    5    8     -2.28      0.00
    1    5    9      1.51      0.00
    1    5   10      2.50      0.00
    1    5   11      1.91      0.00
   -1    7   11     -0.07      0.00
   -1    7   10     -1.70      0.00
   -1    7    9      0.03      0.00
   -1    7    8      1.10      0.00
   -1    7    7      2.06      0.00
   -1    7    6     -3.98      0.00
   -1    7    5     -2.72      0.00
   -1    7    4     -6.53      0.00
   -1    7    3      5.15      0.00
   -1    7    2      1.10      0.00
   -1    7    1     12.10      0.00
    1    7    0      2.50      0.00
    1    7    1     17.87      0.00
    1    7    2      1.23      0.00
    1    7    3      0.15      0.00
    1    7    4    -12.61      0.00
    1    7    5     -1.79      0.00
    1    7    6      1.31      0.00
    1    7    7      5.57      0.00
    1    7    8     -1.89      0.00
    1    7    9     -2.13      0.00
    1    7   10     -0.47      0.00
    1    7   11      1.16      0.00
   -1    9   11     -1.27      0.00
   -1    9   10     -0.70      0.00
   -1    9    9      1.18      0.00
   -1    9    8      3.57      0.00
   -1    9    7     -1.90      0.00
   -1    9    6     -8.19      0.00
   -1    9    5     -2.36      0.00
   -1    9    4      0.93      0.00
   -1    9    3      3.65      0.00
   -1    9    2      4.83      0.00
   -1    9    1     -3.28      0.00
    1    9    0    -29.70      0.00
    1    9    1     -2.59      0.00
    1    9    2    -12.70      0.00
    1    9    3     -0.64      0.00
    1    9    4      0.33      0.00
    1    9    5      0.18      0.00
    1    9    6      0.53      0.00
    1    9    7      4.40      0.00
    1    9    8     -2.04      0.00
    1    9    9     -3.27      0.00
    1    9   10     -0.38      0.00
   -1   11   10     -1.91      0.00
   -1   11    9     -1.13      0.00
   -1   11    8      2.05      0.00
   -1   11    7      0.60      0.00
   -1   11    6     -0.16      0.00
   -1   11    5      1.98      0.00
   -1   11    4      3.31      0.00
   -1   11    3     -7.16      0.00
   -1   11    2      3.30      0.00
   -1   11    1      2.49      0.00
    1   11    0     -1.37      0.00
    1   11    1     10.84      0.00
    1   11    2      2.46      0.00
    1   11    3     -0.58      0.00
    1   11    4      0.67      0.00
    1   11    5     -6.09      0.00
    1   11    6     -0.45      0.00
    1   11    7      3.42      0.00
    1   11    8      0.00      0.00
    1   11    9     -3.09      0.00
    1   11   10     -1.16      0.00
   -1   13   10      3.25      0.00
   -1   13    9      3.77      0.00
   -1   13    8     -1.36      0.00
   -1   13    7     -2.98      0.00
   -1   13    6     -0.94      0.00
   -1   13    5      5.75      0.00
   -1   13    4     11.86      0.00
   -1   13    3     -5.26      0.00
   -1   13    2     -2.78      0.00
   -1   13    1    -12.42      0.00
    1   13    0     -4.59      0.00
    1   13    1      0.08      0.00
    1   13    2      8.83      0.00
    1   13    3      6.06      0.00
    1   13    4      9.49      0.00
    1   13    5     -4.73      0.00
    1   13    6     -3.99      0.00
    1   13    7     -2.17      0.00
    1   13    8      2.44      0.00
    1   13    9      3.13      0.00
    1   13   10      1.52      0.00
   -1   15    9      0.63      0.00
   -1   15    8     -0.77      0.00
   -1   15    7      1.41      0.00
   -1   15    6     -1.95      0.00
   -1   15    5      1.81      0.00
   -1   15    4      5.13      0.00
   -1   15    3     -6.97      0.00
   -1   15    2      0.29      0.00
   -1   15    1      1.88      0.00
    1   15    0      8.31      0.00
    1   15    1     -3.94      0.00
    1   15    2     -0.97      0.00
    1   15    3     -1.48      0.00
    1   15    4      4.23      0.00
    1   15    5     -4.44      0.00
    1   15    6     -0.32      0.00
    1   15    7      2.65      0.00
    1   15    8      1.37      0.00
    1   15    9     -1.10      0.00
   -1   17    8      0.89      0.00
   -1   17    7      2.05      0.00
   -1   17    6     -3.87      0.00
   -1   17    5     -0.74      0.00
   -1   17    4      1.83      0.00
   -1   17    3     -1.61      0.00
   -1   17    2      3.20      0.00
   -1   17    1      6.77      0.00
    1   17    0      5.55      0.00
    1   17    1     -5.47      0.00
    1   17    2     -6.33      0.00
    1   17    3     -2.19      0.00
    1   17    4      3.07      0.00
    1   17    5      0.50      0.00
    1   17    6      3.17      0.00
    1   17    7      3.78      0.00
    1   17    8     -2.15      0.00
   -1   19    7      1.84      0.00
   -1   19    6     -0.85      0.00
   -1   19    5     -0.66      0.00
   -1   19    4      0.01      0.00
   -1   19    3     -0.23      0.00
   -1   19    2     -0.35      0.00
   -1   19    1     -0.21      0.00
    1   19    0     -2.08      0.00
    1   19    1      0.07      0.00
    1   19    2     -0.04      0.00
    1   19    3      1.47      0.00
    1   19    4     -0.17      0.00
    1   19    5     -1.40      0.00
    1   19    6      0.87      0.00
    1   19    7      1.26      0.00
   -1   21    6      2.16      0.00
   -1   21    5      2.82      0.00
   -1   21    4      2.54      0.00
   -1   21    3     -1.36      0.00
   -1   21    2     -4.92      0.00
   -1   21    1     -4.97      0.00
    1   21    0     -4.30      0.00
    1   21    1      0.10      0.00
    1   21    2      2.65      0.00
    1   21    3      4.41      0.00
    1   21    4      1.30      0.00
    1   21    5     -1.78      0.00
    1   21    6     -1.59      0.00
   -1   23    5      0.29      0.00
   -1   23    4      1.12      0.00
   -1   23    3      0.06      0.00
   -1   23    2     -0.35      0.00
   -1   23    1      0.48      0.00
    1   23    0      1.42      0.00
    1   23    1     -0.52      0.00
    1   23    2      0.93      0.00
    1   23    3      1.77      0.00
    1   23    4      0.96      0.00
   -2    0   11     -0.79      0.00
   -2    0   10     -1.71      0.00
   -2    0    9     -0.05      0.00
   -2    0    8     -1.03      0.00
   -2    0    7     -6.43      0.00
   -2    0    6      1.71      0.00
   -2    0    5      6.15      0.00
   -2    0    4     -1.65      0.00
   -2    0    3    -17.65      0.00
   -2    0    2     61.15      0.00
   -2    0    1    249.48      0.00
    2    0    0    151.72      0.00
    2    0    1   -153.56      0.00
    2    0    2     19.43      0.00
    2    0    3     23.96      0.00
    2    0    4     16.49      0.00
    2    0    5     -9.41      0.00
    2    0    6      5.41      0.00
    2    0    7      5.83      0.00
    2    0    8      3.61      0.00
    2    0    9     -5.17      0.00
    2    0   10     -4.96      0.00
    2    0   11     -2.41      0.00
   -2    2   11      0.95      0.00
   -2    2   10      2.20      0.00
   -2    2    9      2.71      0.00
   -2    2    8     -2.14      0.00
   -2    2    7     -6.12      0.00
   -2    2    6      0.90      0.00
   -2    2    5      7.57      0.00
   -2    2    4      3.51      0.00
   -2    2    3    -13.28      0.00
   -2    2    2      2.58      0.00
   -2    2    1     97.51      0.00
    2    2    0     30.74      0.00
    2    2    1   -158.79      0.00
    2    2    2      6.51      0.00
    2    2    3     22.30      0.00
    2    2    4     18.94      0.00
    2    2    5     -6.15      0.00
    2    2    6     -2.01      0.00
    2    2    7      0.38      0.00
    2    2    8      3.53      0.00
    2    2    9      0.83      0.00
    2    2   10      0.82      0.00
    2    2   11      0.18      0.00
   -2    4   11     -0.56      0.00
   -2    4   10     -1.36      0.00
   -2    4    9     -0.37      0.00
   -2    4    8     -1.45      0.00
   -2    4    7      3.43      0.00
   -2    4    6      7.64      0.00
   -2    4    5      6.66      0.00
   -2    4    4     -6.67      0.00
   -2    4    3     -6.76      0.00
   -2    4    2    -15.18      0.00
   -2    4    1     14.88      0.00
    2    4    0     15.06      0.00
    2    4    1    -32.57      0.00
    2    4    2     19.85      0.00
    2    4    3      4.01      0.00
    2    4    4     -9.27      0.00
    2    4    5    -12.85      0.00
    2    4    6     -5.13      0.00
    2    4    7      3.81      0.00
    2    4    8      1.88      0.00
    2    4    9      0.80      0.00
    2    4   10     -0.76      0.00
    2    4   11     -0.82      0.00
   -2    6   11      1.68      0.00
   -2    6   10      2.14      0.00
   -2    6    9      3.91      0.00
   -2    6    8      1.19      0.00
   -2    6    7     -1.95      0.00
   -2    6    6     -1.28      0.00
   -2    6    5      5.08      0.00
   -2    6    4     -5.02      0.00
   -2    6    3     -0.22      0.00
   -2    6    2     -8.57      0.00
   -2    6    1     -6.47      0.00
    2    6    0    -11.80      0.00
    2    6    1     -0.66      0.00
    2    6    2     -5.60      0.00
    2    6    3      4.30      0.00
    2    6    4     -6.29      0.00
    2    6    5     -2.62      0.00
    2    6    6     -1.95      0.00
    2    6    7      3.23      0.00
    2    6    8     -4.71      0.00
    2    6    9      0.85      0.00
    2    6   10      1.34      0.00
    2    6   11     -0.34      0.00
   -2    8   11      0.22      0.00
   -2    8   10      0.56      0.00
   -2    8    9      2.49      0.00
   -2    8    8      3.22      0.00
   -2    8    7     -2.62      0.00
   -2    8    6     -4.13      0.00
   -2    8    5      1.98      0.00
   -2    8    4     -0.56      0.00
   -2    8    3      6.22      0.00
   -2    8    2     12.54      0.00
   -2    8    1     13.67      0.00
    2    8    0     -7.91      0.00
    2    8    1      6.31      0.00
    2    8    2    -14.91      0.00
    2    8    3      4.61      0.00
    2    8    4     -1.63      0.00
    2    8    5      5.63      0.00
    2    8    6      6.76      0.00
    2    8    7      6.12      0.00
    2    8    8     -6.40      0.00
    2    8    9     -2.79      0.00
    2    8   10      0.16      0.00
    2    8   11      0.77      0.00
   -2   10   10      3.38      0.00
   -2   10    9      1.60      0.00
   -2   10    8      2.19      0.00
   -2   10    7     -4.19      0.00
   -2   10    6     -4.11      0.00
   -2   10    5      0.16      0.00
   -2   10    4      0.35      0.00
   -2   10    3     -2.08      0.00
   -2   10    2      9.66      0.00
   -2   10    1      9.18      0.00
    2   10    0     -2.57      0.00
    2   10    1      5.03      0.00
    2   10    2    -10.02      0.00
    2   10    3     -2.19      0.00
    2   10    4     -1.81      0.00
    2   10    5      0.86      0.00
    2   10    6      4.66      0.00
    2   10    7      3.24      0.00
    2   10    8     -3.13      0.00
    2   10    9     -0.50      0.00
    2   10   10      2.13      0.00
   -2   12   10     -1.56      0.00
   -2   12    9     -4.73      0.00
   -2   12    8      1.91      0.00
   -2   12    7     -0.05      0.00
   -2   12    6      2.87      0.00
   -2   12    5      7.51      0.00
   -2   12    4      4.56      0.00
   -2   12    3    -12.19      0.00
   -2   12    2     -2.35      0.00
   -2   12    1     -5.21      0.00
    2   12    0     -2.51      0.00
    2   12    1     -1.47      0.00
    2   12    2      4.34      0.00
    2   12    3      3.37      0.00
    2   12    4      0.85      0.00
    2   12    5     -9.71      0.00
    2   12    6     -1.42      0.00
    2   12    7      1.48      0.00
    2   12    8     -1.01      0.00
    2   12    9      1.15      0.00
    2   12   10     -0.40      0.00
   -2   14    9     -4.25      0.00
   -2   14    8      1.68      0.00
   -2   14    7      0.31      0.00
   -2   14    6      0.77      0.00
   -2   14    5      5.79      0.00
   -2   14    4      2.32      0.00
   -2   14    3    -12.95      0.00
   -2   14    2     -0.63      0.00
   -2   14    1      0.39      0.00
    2   14    0      9.00      0.00
    2   14    1      1.13      0.00
    2   14    2      6.86      0.00
    2   14    3      0.11      0.00
    2   14    4     -0.56      0.00
    2   14    5     -8.27      0.00
    2   14    6      1.83      0.00
    2   14    7      2.73      0.00
    2   14    8     -2.60      0.00
    2   14    9      1.38      0.00
   -2   16    9      0.24      0.00
   -2   16    8      0.88      0.00
   -2   16    7     -3.14      0.00
   -2   16    6     -7.18      0.00
   -2   16    5      0.43      0.00
   -2   16    4      2.79      0.00
   -2   16    3     -1.39      0.00
   -2   16    2      6.45      0.00
   -2   16    1      0.66      0.00
    2   16    0     -4.03      0.00
    2   16    1    -11.53      0.00
    2   16    2     -3.94      0.00
    2   16    3     -0.43      0.00
    2   16    4      3.36      0.00
    2   16    5     -0.60      0.00
    2   16    6      2.47      0.00
    2   16    7      1.94      0.00
    2   16    8     -1.44      0.00
    2   16    9      3.29      0.00
   -2   18    8     -0.64      0.00
   -2   18    7     -1.09      0.00
   -2   18    6     -2.71      0.00
   -2   18    5      2.07      0.00
   -2   18    4      0.39      0.00
   -2   18    3     -1.09      0.00
   -2   18    2      5.66      0.00
   -2   18    1      9.65      0.00
    2   18    0      0.69      0.00
    2   18    1     -5.49      0.00
    2   18    2     -3.79      0.00
    2   18    3     -0.41      0.00
    2   18    4      0.49      0.00
    2   18    5     -0.77      0.00
    2   18    6      1.59      0.00
    2   18    7      2.78      0.00
    2   18    8     -0.99      0.00
   -2   20    7      0.65      0.00
   -2   20    6      2.55      0.00
   -2   20    5      4.35      0.00
   -2   20    4      1.01      0.00
   -2   20    3     -2.46      0.00
   -2   20    2     -5.09      0.00
   -2   20    1      0.63      0.00
    2   20    0     -0.20      0.00
    2   20    1      1.63      0.00
    2   20    2      2.56      0.00
    2   20    3      1.98      0.00
    2   20    4     -0.20      0.00
    2   20    5     -3.15      0.00
    2   20    6     -1.94      0.00
   -2   22    5      0.96      0.00
   -2   22    4     -1.77      0.00
   -2   22    3     -0.76      0.00
   -2   22    2     -2.13      0.00
   -2   22    1     -0.13      0.00
    2   22    0      2.51      0.00
    2   22    1      3.71      0.00
    2   22    2      3.33      0.00
    2   22    3      0.17      0.00
    2   22    4     -1.29      0.00
    2   22    5     -1.50      0.00
   -2   24    3      2.96      0.00
   -2   24    2      3.80      0.00
   -2   24    1      0.85      0.00
    2   24    0     -1.84      0.00
    2   24    1     -5.58      0.00
    2   24    2     -3.01      0.00
    2   24    3     -0.33      0.00
   -3    1   11      0.42      0.00
   -3    1   10      2.65      0.00
   -3    1    9     -1.84      0.00
   -3    1    8     -6.23      0.00
   -3    1    7      3.69      0.00
   -3    1    6      0.18      0.00
   -3    1    5    -14.00      0.00
   -3    1    4      5.79      0.00
   -3    1    3     28.19      0.00
   -3    1    2    -31.02      0.00
   -3    1    1    -90.38      0.00
    3    1    0    -45.76      0.00
    3    1    1    -47.28      0.00
    3    1    2     61.46      0.00
    3    1    3     -0.91      0.00
    3    1    4     19.34      0.00
    3    1    5     -3.05      0.00
    3    1    6     -1.34      0.00
    3    1    7     -1.73      0.00
    3    1    8      1.69      0.00
    3    1    9     -2.82      0.00
    3    1   10      0.52      0.00
    3    1   11      1.56      0.00
   -3    3   11     -0.97      0.00
   -3    3   10     -1.79      0.00
   -3    3    9     -1.99      0.00
   -3    3    8     -1.31      0.00
   -3    3    7      7.82      0.00
   -3    3    6      3.41      0.00
   -3    3    5    -10.82      0.00
   -3    3    4    -13.67      0.00
   -3    3    3      1.36      0.00
   -3    3    2      4.87      0.00
   -3    3    1     19.72      0.00
    3    3    0     18.99      0.00
    3    3    1    -13.14      0.00
    3    3    2     46.96      0.00
    3    3    3     -6.89      0.00
    3    3    4     -6.49      0.00
    3    3    5     -7.30      0.00
    3    3    6      1.05      0.00
    3    3    7      2.58      0.00
    3    3    8      2.22      0.00
    3    3    9     -1.12      0.00
    3    3   10     -2.18      0.00
    3    3   11     -0.28      0.00
   -3    5   11     -0.98      0.00
   -3    5   10     -2.18      0.00
   -3    5    9     -1.80      0.00
   -3    5    8     -0.75      0.00
   -3    5    7      4.77      0.00
   -3    5    6     -0.37      0.00
   -3    5    5     -4.20      0.00
   -3    5    4     -9.43      0.00
   -3    5    3     -5.35      0.00
   -3    5    2     -8.61      0.00
   -3    5    1     10.85      0.00
    3    5    0     -8.20      0.00
    3    5    1    -12.64      0.00
    3    5    2     13.82      0.00
    3    5    3      3.40      0.00
    3    5    4     -5.74      0.00
    3    5    5      3.12      0.00
    3    5    6     -0.06      0.00
    3    5    7      0.10      0.00
    3    5    8      0.39      0.00
    3    5    9      3.65      0.00
    3    5   10      1.56      0.00
    3    5   11      1.07      0.00
   -3    7   11     -0.22      0.00
   -3    7   10     -1.28      0.00
   -3    7    9     -2.09      0.00
   -3    7    8     -2.59      0.00
   -3    7    7      0.71      0.00
   -3    7    6      0.15      0.00
   -3    7    5      0.62      0.00
   -3    7    4     -3.54      0.00
   -3    7    3      3.36      0.00
   -3    7    2     -4.96      0.00
   -3    7    1      4.32      0.00
    3    7    0      7.09      0.00
    3    7    1     22.07      0.00
    3    7    2     -5.22      0.00
    3    7    3     -2.39      0.00
    3    7    4    -11.99      0.00
    3    7    5      5.24      0.00
    3    7    6      1.52      0.00
    3    7    7     -0.35      0.00
    3    7    8     -3.80      0.00
    3    7    9      1.80      0.00
    3    7   10      1.41      0.00
    3    7   11      0.98      0.00
   -3    9   11      0.27      0.00
   -3    9   10      1.13      0.00
   -3    9    9      0.93      0.00
   -3    9    8     -3.37      0.00
   -3    9    7     -7.10      0.00
   -3    9    6     -0.58      0.00
   -3    9    5      6.00      0.00
   -3    9    4      6.47      0.00
   -3    9    3     10.49      0.00
   -3    9    2      0.26      0.00
   -3    9    1    -22.39      0.00
    3    9    0    -24.53      0.00
    3    9    1     -2.26      0.00
    3    9    2     -9.27      0.00
    3    9    3     14.25      0.00
    3    9    4      6.06      0.00
    3    9    5      6.92      0.00
    3    9    6      0.77      0.00
    3    9    7     -4.48      0.00
    3    9    8     -6.93      0.00
    3    9    9      1.84      0.00
    3    9   10      2.53      0.00
   -3   11   10      0.57      0.00
   -3   11    9     -0.13      0.00
   -3   11    8      0.85      0.00
   -3   11    7      0.68      0.00
   -3   11    6      5.67      0.00
   -3   11    5      2.00      0.00
   -3   11    4     -6.37      0.00
   -3   11    3     -8.13      0.00
   -3   11    2      5.42      0.00
   -3   11    1     -0.65      0.00
    3   11    0     10.00      0.00
    3   11    1     10.35      0.00
    3   11    2      0.28      0.00
    3   11    3     -1.08      0.00
    3   11    4     -6.89      0.00
    3   11    5     -5.53      0.00
    3   11    6      3.44      0.00
    3   11    7      2.24      0.00
    3   11    8     -1.85      0.00
    3   11    9     -0.78      0.00
    3   11   10     -0.33      0.00
   -3   13   10      5.07      0.00
   -3   13    9     -0.60      0.00
   -3   13    8      0.09      0.00
   -3   13    7     -0.19      0.00
   -3   13    6      0.73      0.00
   -3   13    5     -0.02      0.00
   -3   13    4     -7.10      0.00
   -3   13    3    -12.17      0.00
   -3   13    2      1.98      0.00
   -3   13    1     -3.43      0.00
    3   13    0      9.30      0.00
    3   13    1      1.39      0.00
    3   13    2      2.41      0.00
    3   13    3     -3.32      0.00
    3   13    4     -0.81      0.00
    3   13    5     -4.14      0.00
    3   13    6      1.95      0.00
    3   13    7      1.85      0.00
    3   13    8      1.69      0.00
    3   13    9      0.54      0.00
   -3   15    9     -6.22      0.00
   -3   15    8     -1.02      0.00
   -3   15    7      0.87      0.00
   -3   15    6      1.70      0.00
   -3   15    5      5.12      0.00
   -3   15    4     -3.41      0.00
   -3   15    3     -6.45      0.00
   -3   15    2      6.48      0.00
   -3   15    1      1.33      0.00
    3   15    0      2.67      0.00
    3   15    1     -4.24      0.00
    3   15    2      3.65      0.00
    3   15    3     -0.13      0.00
    3   15    4     -0.79      0.00
    3   15    5     -5.20      0.00
    3   15    6      1.00      0.00
    3   15    7      1.10      0.00
    3   15    8     -0.78      0.00
    3   15    9     -2.42      0.00
   -3   17    8      0.19      0.00
   -3   17    7     -3.36      0.00
   -3   17    6     -2.10      0.00
   -3   17    5      6.00      0.00
   -3   17    4      2.83      0.00
   -3   17    3      2.01      0.00
   -3   17    2      3.38      0.00
   -3   17    1     -3.08      0.00
    3   17    0     -8.34      0.00
    3   17    1     -7.43      0.00
    3   17    2      1.32      0.00
    3   17    3      5.55      0.00
    3   17    4      4.90      0.00
    3   17    5      1.90      0.00
    3   17    6      2.41      0.00
    3   17    7     -3.08      0.00
    3   17    8     -5.48      0.00
   -3   19    7     -0.04      0.00
   -3   19    6     -1.43      0.00
   -3   19    5      0.17      0.00
   -3   19    4     -1.90      0.00
   -3   19    3     -0.17      0.00
   -3   19    2     -0.78      0.00
   -3   19    1     -0.29      0.00
    3   19    0     -0.85      0.00
    3   19    1      2.20      0.00
    3   19    2      0.72      0.00
    3   19    3      0.23      0.00
    3   19    4     -1.65      0.00
    3   19    5     -0.19      0.00
    3   19    6      1.45      0.00
    3   19    7     -0.77      0.00
   -3   21    6      0.89      0.00
   -3   21    5     -1.39      0.00
   -3   21    4     -4.92      0.00
   -3   21    3     -4.44      0.00
   -3   21    2     -1.94      0.00
   -3   21    1      2.39      0.00
    3   21    0      2.36      0.00
    3   21    1      3.50      0.00
    3   21    2      0.87      0.00
    3   21    3     -3.29      0.00
    3   21    4     -4.96      0.00
    3   21    5     -2.24      0.00
    3   21    6      0.52      0.00
   -3   23    5     -0.39      0.00
   -3   23    4     -0.62      0.00
   -3   23    3      0.16      0.00
   -3   23    2      0.04      0.00
   -3   23    1      0.33      0.00
    3   23    0     -0.29      0.00
    3   23    1      0.62      0.00
    3   23    2      3.04      0.00
    3   23    3      0.49      0.00
    3   23    4     -0.57      0.00
   -4    0   11     -1.39      0.00
   -4    0   10     -3.19      0.00
   -4    0    9     -4.66      0.00
   -4    0    8     -4.82      0.00
   -4    0    7      2.56      0.00
   -4    0    6     14.33      0.00
   -4    0    5      5.18      0.00
   -4    0    4     -4.91      0.00
   -4    0    3      6.13      0.00
   -4    0    2     88.59      0.00
   -4    0    1     57.32      0.00
    4    0    0   -102.91      0.00
    4    0    1    -40.89      0.00
    4    0    2    105.78      0.00
    4    0    3    -12.61      0.00
    4    0    4    -16.78      0.00
    4    0    5    -18.70      0.00
    4    0    6      6.46      0.00
    4    0    7     -0.17      0.00
    4    0    8     -1.48      0.00
    4    0    9     -7.87      0.00
    4    0   10     -0.95      0.00
    4    0   11      1.46      0.00
   -4    2   11      0.83      0.00
   -4    2   10      2.11      0.00
   -4    2    9      0.59      0.00
   -4    2    8     -2.39      0.00
   -4    2    7     -0.83      0.00
   -4    2    6      1.75      0.00
   -4    2    5     -1.45      0.00
   -4    2    4      0.11      0.00
   -4    2    3      6.47      0.00
   -4    2    2     37.27      0.00
   -4    2    1      2.57      0.00
    4    2    0   -111.55      0.00
    4    2    1    -58.96      0.00
    4    2    2     65.13      0.00
    4    2    3     -4.95      0.00
    4    2    4     -1.05      0.00
    4    2    5     -6.90      0.00
    4    2    6      4.06      0.00
    4    2    7     -1.34      0.00
    4    2    8     -0.74      0.00
    4    2    9     -2.78      0.00
    4    2   10      2.79      0.00
    4    2   11      1.69      0.00
   -4    4   11     -0.94      0.00
   -4    4   10     -0.18      0.00
   -4    4    9      1.40      0.00
   -4    4    8      1.79      0.00
   -4    4    7      6.85      0.00
   -4    4    6      1.57      0.00
   -4    4    5     -4.37      0.00
   -4    4    4     -5.28      0.00
   -4    4    3      7.76      0.00
   -4    4    2     11.09      0.00
   -4    4    1     23.44      0.00
    4    4    0     -3.74      0.00
    4    4    1     -0.82      0.00
    4    4    2     18.25      0.00
    4    4    3    -13.50      0.00
    4    4    4    -12.63      0.00
    4    4    5     -0.14      0.00
    4    4    6      7.81      0.00
    4    4    7      7.16      0.00
    4    4    8      1.16      0.00
    4    4    9     -2.39      0.00
    4    4   10     -2.24      0.00
    4    4   11     -1.64      0.00
   -4    6   11      2.18      0.00
   -4    6   10      2.86      0.00
   -4    6    9      4.33      0.00
   -4    6    8     -1.88      0.00
   -4    6    7      0.84      0.00
   -4    6    6     -0.99      0.00
   -4    6    5     -1.59      0.00
   -4    6    4     -5.63      0.00
   -4    6    3      8.86      0.00
   -4    6    2     -2.09      0.00
   -4    6    1      1.72      0.00
    4    6    0     -6.05      0.00
    4    6    1     -4.12      0.00
    4    6    2     -8.94      0.00
    4    6    3      5.69      0.00
    4    6    4     -5.19      0.00
    4    6    5      7.64      0.00
    4    6    6      1.28      0.00
    4    6    7     -0.92      0.00
    4    6    8     -2.79      0.00
    4    6    9      1.67      0.00
    4    6   10     -1.01      0.00
    4    6   11     -1.80      0.00
   -4    8   11      2.40      0.00
   -4    8   10     -0.03      0.00
   -4    8    9     -0.95      0.00
   -4    8    8     -4.62      0.00
   -4    8    7      1.14      0.00
   -4    8    6      4.54      0.00
   -4    8    5      4.00      0.00
   -4    8    4     -1.17      0.00
   -4    8    3      6.97      0.00
   -4    8    2     -1.50      0.00
   -4    8    1     -9.36      0.00
    4    8    0     -8.29      0.00
    4    8    1      7.14      0.00
    4    8    2     -1.70      0.00
    4    8    3     14.52      0.00
    4    8    4     -4.21      0.00
    4    8    5      3.95      0.00
    4    8    6     -3.62      0.00
    4    8    7     -4.73      0.00
    4    8    8     -2.88      0.00
    4    8    9      2.84      0.00
    4    8   10      0.64      0.00
   -4   10   10      1.39      0.00
   -4   10    9     -0.47      0.00
   -4   10    8     -2.50      0.00
   -4   10    7     -1.61      0.00
   -4   10    6      1.10      0.00
   -4   10    5     -0.74      0.00
   -4   10    4     -3.27      0.00
   -4   10    3      0.28      0.00
   -4   10    2      1.31      0.00
   -4   10    1    -10.63      0.00
    4   10    0     -2.64      0.00
    4   10    1      4.03      0.00
    4   10    2     -4.94      0.00
    4   10    3      2.36      0.00
    4   10    4     -1.03      0.00
    4   10    5      4.29      0.00
    4   10    6      1.23      0.00
    4   10    7     -3.83      0.00
    4   10    8     -1.71      0.00
    4   10    9      1.96      0.00
    4   10   10      2.97      0.00
   -4   12   10     -2.59      0.00
   -4   12    9      1.20      0.00
   -4   12    8      2.90      0.00
   -4   12    7      0.31      0.00
   -4   12    6      1.87      0.00
   -4   12    5     -1.91      0.00
   -4   12    4     -6.64      0.00
   -4   12    3     -1.04      0.00
   -4   12    2     14.20      0.00
   -4   12    1     -0.58      0.00
    4   12    0      0.87      0.00
    4   12    1     -5.48      0.00
    4   12    2     -1.20      0.00
    4   12    3     -3.73      0.00
    4   12    4     -2.00      0.00
    4   12    5     -1.28      0.00
    4   12    6      5.56      0.00
    4   12    7     -1.19      0.00
    4   12    8      0.30      0.00
    4   12    9      0.31      0.00
    4   12   10      0.93      0.00
   -4   14    9      2.24      0.00
   -4   14    8      3.10      0.00
   -4   14    7     -0.83      0.00
   -4   14    6      1.67      0.00
   -4   14    5      1.11      0.00
   -4   14    4     -7.81      0.00
   -4   14    3     -4.94      0.00
   -4   14    2     11.68      0.00
   -4   14    1      5.11      0.00
    4   14    0      8.67      0.00
    4   14    1     -2.32      0.00
    4   14    2      2.50      0.00
    4   14    3     -6.52      0.00
    4   14    4     -3.41      0.00
    4   14    5     -1.14      0.00
    4   14    6      8.64      0.00
    4   14    7      0.16      0.00
    4   14    8     -0.86      0.00
    4   14    9     -1.29      0.00
   -4   16    9      0.09      0.00
   -4   16    8      0.97      0.00
   -4   16    7     -3.12      0.00
   -4   16    6      0.51      0.00
   -4   16    5      6.39      0.00
   -4   16    4     -0.54      0.00
   -4   16    3     -0.29      0.00
   -4   16    2      0.64      0.00
   -4   16    1    -10.29      0.00
    4   16    0     -7.35      0.00
    4   16    1     -3.91      0.00
    4   16    2      5.22      0.00
    4   16    3      3.93      0.00
    4   16    4      3.82      0.00
    4   16    5     -0.04      0.00
    4   16    6      0.74      0.00
    4   16    7     -3.35      0.00
    4   16    8     -0.99      0.00
   -4   18    8      0.75      0.00
   -4   18    7     -0.48      0.00
   -4   18    6      3.73      0.00
   -4   18    5      5.66      0.00
   -4   18    4     -2.61      0.00
   -4   18    3     -0.31      0.00
   -4   18    2      3.01      0.00
   -4   18    1     -1.71      0.00
    4   18    0     -5.08      0.00
    4   18    1      3.21      0.00
    4   18    2      3.96      0.00
    4   18    3      2.82      0.00
    4   18    4     -0.40      0.00
    4   18    5     -1.06      0.00
    4   18    6      1.03      0.00
    4   18    7     -0.41      0.00
   -4   20    7     -0.84      0.00
   -4   20    6      0.65      0.00
   -4   20    5     -0.86      0.00
   -4   20    4     -3.37      0.00
   -4   20    3     -1.09      0.00
   -4   20    2      2.35      0.00
   -4   20    1      4.67      0.00
    4   20    0     -2.32      0.00
    4   20    1      0.03      0.00
    4   20    2     -3.64      0.00
    4   20    3     -1.34      0.00
    4   20    4     -0.58      0.00
    4   20    5      0.58      0.00
    4   20    6      1.81      0.00
   -4   22    5     -2.88      0.00
   -4   22    4     -2.04      0.00
   -4   22    3      0.48      0.00
   -4   22    2      0.70      0.00
   -4   22    1      5.37      0.00
    4   22    0      3.37      0.00
    4   22    1      1.94      0.00
    4   22    2     -1.29      0.00
    4   22    3     -2.67      0.00
    4   22    4     -1.08      0.00
    4   22    5      1.21      0.00
   -4   24    3      2.82      0.00
   -4   24    2     -2.60      0.00
   -4   24    1     -4.13      0.00
    4   24    0     -3.78      0.00
    4   24    1     -1.44      0.00
    4   24    2      3.15      0.00
   -5    1   11      1.02      0.00
   -5    1   10      0.11      0.00
   -5    1    9     -2.18      0.00
   -5    1    8      4.23      0.00
   -5    1    7      5.32      0.00
   -5    1    6     -6.83      0.00
   -5    1    5      2.11      0.00
   -5    1    4     25.25      0.00
   -5    1    3     -4.89      0.00
   -5    1    2    -69.25      0.00
   -5    1    1    -10.15      0.00
    5    1    0     39.38      0.00
    5    1    1     44.90      0.00
    5    1    2     51.80      0.00
    5    1    3    -16.50      0.00
    5    1    4     11.12      0.00
    5    1    5    -12.86      0.00
    5    1    6      3.06      0.00
    5    1    7      0.59      0.00
    5    1    8      1.00      0.00
    5    1    9     -0.74      0.00
    5    1   10      4.79      0.00
    5    1   11     -1.91      0.00
   -5    3   11      0.31      0.00
   -5    3   10      0.29      0.00
   -5    3    9     -0.05      0.00
   -5    3    8      2.76      0.00
   -5    3    7      4.08      0.00
   -5    3    6     -8.03      0.00
   -5    3    5     -6.35      0.00
   -5    3    4      3.80      0.00
   -5    3    3      6.43      0.00
   -5    3    2    -11.71      0.00
   -5    3    1     11.81      0.00
    5    3    0      8.89      0.00
    5    3    1     22.72      0.00
    5    3    2     22.62      0.00
    5    3    3    -25.83      0.00
    5    3    4     -3.30      0.00
    5    3    5     -2.75      0.00
    5    3    6      3.32      0.00
    5    3    7      1.17      0.00
    5    3    8     -1.90      0.00
    5    3    9     -4.25      0.00
    5    3   10     -0.25      0.00
    5    3   11     -0.95      0.00
   -5    5   11      0.95      0.00
   -5    5   10      0.59      0.00
   -5    5    9      0.14      0.00
   -5    5    8      0.33      0.00
   -5    5    7     -0.52      0.00
   -5    5    6    -12.82      0.00
   -5    5    5     -8.28      0.00
   -5    5    4     -0.86      0.00
   -5    5    3     11.79      0.00
   -5    5    2      1.24      0.00
   -5    5    1     -2.10      0.00
    5    5    0    -27.31      0.00
    5    5    1     -6.91      0.00
    5    5    2     -4.18      0.00
    5    5    3     -5.35      0.00
    5    5    4      2.86      0.00
    5    5    5      9.20      0.00
    5    5    6     -4.55      0.00
    5    5    7     -1.93      0.00
    5    5    8     -1.59      0.00
    5    5    9      0.75      0.00
    5    5   10      0.71      0.00
    5    5   11      0.25      0.00
   -5    7   11     -1.25      0.00
   -5    7   10     -3.50      0.00
   -5    7    9     -3.01      0.00
   -5    7    8      0.52      0.00
   -5    7    7      6.13      0.00
   -5    7    6     -0.29      0.00
   -5    7    5      0.21      0.00
   -5    7    4     -2.40      0.00
   -5    7    3     -0.67      0.00
   -5    7    2    -10.29      0.00
   -5    7    1     10.48      0.00
    5    7    0     17.65      0.00
    5    7    1     17.88      0.00
    5    7    2    -10.08      0.00
    5    7    3     -4.20      0.00
    5    7    4     -9.69      0.00
    5    7    5      5.66      0.00
    5    7    6     -4.80      0.00
    5    7    7      1.04      0.00
    5    7    8      2.18      0.00
    5    7    9      3.42      0.00
    5    7   10     -1.28      0.00
   -5    9   11     -0.33      0.00
   -5    9   10     -1.49      0.00
   -5    9    9     -1.05      0.00
   -5    9    8     -1.93      0.00
   -5    9    7      2.99      0.00
   -5    9    6      1.98      0.00
   -5    9    5      1.92      0.00
   -5    9    4      2.63      0.00
   -5    9    3      2.73      0.00
   -5    9    2    -14.30      0.00
   -5    9    1    -13.81      0.00
    5    9    0      1.03      0.00
    5    9    1      7.32      0.00
    5    9    2      3.21      0.00
    5    9    3     11.88      0.00
    5    9    4     -0.18      0.00
    5    9    5      4.02      0.00
    5    9    6     -5.03      0.00
    5    9    7     -5.07      0.00
    5    9    8      1.74      0.00
    5    9    9      5.08      0.00
    5    9   10      0.71      0.00
   -5   11   10     -1.59      0.00
   -5   11    9     -1.34      0.00
   -5   11    8      0.06      0.00
   -5   11    7      3.67      0.00
   -5   11    6      1.78      0.00
   -5   11    5     -4.14      0.00
   -5   11    4     -4.11      0.00
   -5   11    3      2.66      0.00
   -5   11    2      4.55      0.00
   -5   11    1      1.59      0.00
    5   11    0     11.93      0.00
    5   11    1      3.01      0.00
    5   11    2      1.95      0.00
    5   11    3     -5.92      0.00
    5   11    4     -7.81      0.00
    5   11    5     -1.83      0.00
    5   11    6      3.89      0.00
    5   11    7     -0.06      0.00
    5   11    8      0.77      0.00
    5   11    9     -0.84      0.00
    5   11   10     -2.64      0.00
   -5   13   10     -0.35      0.00
   -5   13    9     -1.33      0.00
   -5   13    8      0.09      0.00
   -5   13    7     -3.30      0.00
   -5   13    6     -5.63      0.00
   -5   13    5     -7.74      0.00
   -5   13    4     -4.19      0.00
   -5   13    3      6.49      0.00
   -5   13    2      9.74      0.00
   -5   13    1     -2.86      0.00
    5   13    0     -1.03      0.00
    5   13    1    -14.50      0.00
    5   13    2     -3.15      0.00
    5   13    3     -3.42      0.00
    5   13    4      6.72      0.00
    5   13    5      3.75      0.00
    5   13    6      4.82      0.00
    5   13    7     -1.74      0.00
    5   13    8     -2.07      0.00
    5   13    9     -0.18      0.00
   -5   15    9     -4.77      0.00
   -5   15    8      1.34      0.00
   -5   15    7      2.62      0.00
   -5   15    6      4.78      0.00
   -5   15    5     -0.65      0.00
   -5   15    4     -6.48      0.00
   -5   15    3      2.60      0.00
   -5   15    2      6.37      0.00
   -5   15    1     -1.81      0.00
    5   15    0      3.76      0.00
    5   15    1     -0.33      0.00
    5   15    2      4.61      0.00
    5   15    3     -2.94      0.00
    5   15    4     -2.71      0.00
    5   15    5     -4.62      0.00
    5   15    6     -0.10      0.00
    5   15    7     -0.78      0.00
    5   15    8      0.35      0.00
    5   15    9      1.52      0.00
   -5   17    8      0.40      0.00
   -5   17    7     -0.37      0.00
   -5   17    6      4.02      0.00
   -5   17    5      1.83      0.00
   -5   17    4     -4.34      0.00
   -5   17    3     -2.31      0.00
   -5   17    2     -4.26      0.00
   -5   17    1     -5.21      0.00
    5   17    0     -0.37      0.00
    5   17    1      3.79      0.00
    5   17    2      4.20      0.00
    5   17    3      2.40      0.00
    5   17    4     -1.57      0.00
    5   17    5     -1.84      0.00
    5   17    6     -2.41      0.00
    5   17    7     -3.99      0.00
    5   17    8     -0.59      0.00
   -5   19    7     -1.45      0.00
   -5   19    6     -0.26      0.00
   -5   19    5     -1.29      0.00
   -5   19    4     -1.47      0.00
   -5   19    3      1.02      0.00
   -5   19    2     -0.82      0.00
   -5   19    1      2.05      0.00
    5   19    0      0.22      0.00
    5   19    1      2.31      0.00
    5   19    2     -2.69      0.00
    5   19    3     -0.30      0.00
    5   19    4     -1.17      0.00
    5   19    5     -0.13      0.00
    5   19    6     -1.21      0.00
   -5   21    6     -2.44      0.00
   -5   21    5     -2.82      0.00
   -5   21    4     -0.85      0.00
   -5   21    3      3.86      0.00
   -5   21    2      4.30      0.00
   -5   21    1      3.37      0.00
    5   21    0     -3.41      0.00
    5   21    1     -1.78      0.00
    5   21    2     -6.18      0.00
    5   21    3     -4.29      0.00
    5   21    4     -0.14      0.00
    5   21    5      2.17      0.00
   -5   23    4      0.11      0.00
   -5   23    3      1.30      0.00
   -5   23    2     -0.10      0.00
   -5   23    1      0.22      0.00
    5   23    0     -0.45      0.00
    5   23    1      2.63      0.00
    5   23    2      0.74      0.00
    5   23    3     -0.50      0.00
    5   23    4      1.03      0.00
   -6    0   11     -1.24      0.00
   -6    0   10     -3.40      0.00
   -6    0    9     -3.81      0.00
   -6    0    8      0.81      0.00
   -6    0    7     13.91      0.00
   -6    0    6     12.61      0.00
   -6    0    5     -6.72      0.00
   -6    0    4    -15.75      0.00
   -6    0    3      1.41      0.00
   -6    0    2      7.71      0.00
   -6    0    1    -64.62      0.00
    6    0    0    -26.28      0.00
    6    0    1     71.59      0.00
    6    0    2     14.72      0.00
    6    0    3    -73.59      0.00
    6    0    4    -14.51      0.00
    6    0    5     -9.38      0.00
    6    0    6     10.08      0.00
    6    0    7     -0.84      0.00
    6    0    8     -1.73      0.00
    6    0    9     -1.68      0.00
    6    0   10      1.55      0.00
    6    0   11     -0.74      0.00
   -6    2   11      1.55      0.00
   -6    2   10      1.37      0.00
   -6    2    9      0.38      0.00
   -6    2    8     -1.35      0.00
   -6    2    7      0.08      0.00
   -6    2    6     -3.33      0.00
   -6    2    5     -4.68      0.00
   -6    2    4      0.77      0.00
   -6    2    3      8.36      0.00
   -6    2    2     -2.49      0.00
   -6    2    1    -60.75      0.00
    6    2    0    -46.84      0.00
    6    2    1     29.09      0.00
    6    2    2     10.14      0.00
    6    2    3    -35.52      0.00
    6    2    4      8.88      0.00
    6    2    5      1.13      0.00
    6    2    6      4.95      0.00
    6    2    7     -5.17      0.00
    6    2    8     -3.96      0.00
    6    2    9      2.03      0.00
    6    2   10      4.75      0.00
    6    2   11      0.45      0.00
   -6    4   11     -1.37      0.00
   -6    4   10     -0.96      0.00
   -6    4    9      0.00      0.00
   -6    4    8     -0.49      0.00
   -6    4    7     -0.59      0.00
   -6    4    6     -4.37      0.00
   -6    4    5      5.05      0.00
   -6    4    4     12.81      0.00
   -6    4    3     13.21      0.00
   -6    4    2      4.56      0.00
   -6    4    1      5.54      0.00
    6    4    0     -1.27      0.00
    6    4    1     15.90      0.00
    6    4    2      3.88      0.00
    6    4    3    -10.74      0.00
    6    4    4      4.68      0.00
    6    4    5      7.46      0.00
    6    4    6      5.70      0.00
    6    4    7      2.25      0.00
    6    4    8     -3.41      0.00
    6    4    9     -0.83      0.00
    6    4   10     -0.91      0.00
    6    4   11     -0.02      0.00
   -6    6   11     -0.10      0.00
   -6    6   10      1.92      0.00
   -6    6    9      1.50      0.00
   -6    6    8     -0.91      0.00
   -6    6    7     -0.24      0.00
   -6    6    6     -7.16      0.00
   -6    6    5      0.44      0.00
   -6    6    4      6.11      0.00
   -6    6    3     10.01      0.00
   -6    6    2     -7.40      0.00
   -6    6    1     -2.40      0.00
    6    6    0    -13.43      0.00
    6    6    1     -5.03      0.00
    6    6    2     -1.17      0.00
    6    6    3      7.66      0.00
    6    6    4      2.99      0.00
    6    6    5      9.34      0.00
    6    6    6     -4.05      0.00
    6    6    7     -1.09      0.00
    6    6    8     -2.76      0.00
    6    6    9     -0.47      0.00
    6    6   10     -1.89      0.00
   -6    8   11      0.68      0.00
   -6    8   10     -1.76      0.00
   -6    8    9     -2.17      0.00
   -6    8    8      1.51      0.00
   -6    8    7      7.90      0.00
   -6    8    6      0.47      0.00
   -6    8    5     -0.86      0.00
   -6    8    4     -3.85      0.00
   -6    8    3      0.23      0.00
   -6    8    2     -8.24      0.00
   -6    8    1      1.87      0.00
    6    8    0      8.87      0.00
    6    8    1      9.40      0.00
    6    8    2      1.21      0.00
    6    8    3      1.45      0.00
    6    8    4    -10.11      0.00
    6    8    5     -2.21      0.00
    6    8    6     -8.31      0.00
    6    8    7      1.43      0.00
    6    8    8      3.06      0.00
    6    8    9      0.42      0.00
    6    8   10     -4.05      0.00
   -6   10   10     -0.82      0.00
   -6   10    9     -0.98      0.00
   -6   10    8     -0.41      0.00
   -6   10    7      1.88      0.00
   -6   10    6     -1.97      0.00
   -6   10    5     -2.17      0.00
   -6   10    4     -3.45      0.00
   -6   10    3     -1.73      0.00
   -6   10    2     -7.23      0.00
   -6   10    1     -3.12      0.00
    6   10    0     11.66      0.00
    6   10    1      0.97      0.00
    6   10    2     -4.34      0.00
    6   10    3     -2.59      0.00
    6   10    4      0.64      0.00
    6   10    5      2.78      0.00
    6   10    6     -2.51      0.00
    6   10    7     -1.46      0.00
    6   10    8      2.37      0.00
    6   10    9      1.06      0.00
    6   10   10     -1.57      0.00
   -6   12   10      0.67      0.00
   -6   12    9      1.72      0.00
   -6   12    8     -2.21      0.00
   -6   12    7     -1.21      0.00
   -6   12    6     -0.69      0.00
   -6   12    5      0.93      0.00
   -6   12    4      5.12      0.00
   -6   12    3     13.89      0.00
   -6   12    2      5.37      0.00
   -6   12    1    -11.69      0.00
    6   12    0     -3.23      0.00
    6   12    1     -8.41      0.00
    6   12    2      3.10      0.00
    6   12    3      0.37      0.00
    6   12    4      7.11      0.00
    6   12    5      3.10      0.00
    6   12    6     -0.92      0.00
    6   12    7     -6.04      0.00
    6   12    8      0.86      0.00
    6   12    9      1.27      0.00
   -6   14    9      3.10      0.00
   -6   14    8     -1.73      0.00
   -6   14    7     -0.75      0.00
   -6   14    6      0.46      0.00
   -6   14    5     -0.05      0.00
   -6   14    4     -1.23      0.00
   -6   14    3      8.30      0.00
   -6   14    2      5.63      0.00
   -6   14    1     -5.29      0.00
    6   14    0      0.30      0.00
    6   14    1     -4.52      0.00
    6   14    2      4.13      0.00
    6   14    3     -4.27      0.00
    6   14    4      2.01      0.00
    6   14    5      2.90      0.00
    6   14    6      3.89      0.00
    6   14    7     -2.85      0.00
    6   14    8     -0.38      0.00
    6   14    9     -1.45      0.00
   -6   16    9      3.94      0.00
   -6   16    8      2.57      0.00
   -6   16    7      1.55      0.00
   -6   16    6      1.47      0.00
   -6   16    5     -1.25      0.00
   -6   16    4     -6.03      0.00
   -6   16    3      0.25      0.00
   -6   16    2     -2.67      0.00
   -6   16    1     -4.41      0.00
    6   16    0      2.35      0.00
    6   16    1      1.60      0.00
    6   16    2      3.24      0.00
    6   16    3      0.17      0.00
    6   16    4      0.18      0.00
    6   16    5     -1.83      0.00
    6   16    6     -0.98      0.00
    6   16    7     -1.56      0.00
    6   16    8      1.96      0.00
   -6   18    8      1.80      0.00
   -6   18    7      2.07      0.00
   -6   18    6      4.01      0.00
   -6   18    5     -1.34      0.00
   -6   18    4     -5.91      0.00
   -6   18    3      1.32      0.00
   -6   18    2      1.12      0.00
   -6   18    1      0.00      0.00
    6   18    0      5.48      0.00
    6   18    1      9.19      0.00
    6   18    2      0.89      0.00
    6   18    3     -0.47      0.00
    6   18    4     -3.47      0.00
    6   18    5     -1.24      0.00
    6   18    6      0.96      0.00
    6   18    7      0.85      0.00
   -6   20    6     -1.47      0.00
   -6   20    5     -1.33      0.00
   -6   20    4      1.04      0.00
   -6   20    3      4.43      0.00
   -6   20    2      3.05      0.00
   -6   20    1     -4.20      0.00
    6   20    0     -8.25      0.00
    6   20    1     -2.17      0.00
    6   20    2     -3.20      0.00
    6   20    3      4.12      0.00
    6   20    4      3.35      0.00
    6   20    5      2.71      0.00
    6   20    6     -1.53      0.00
   -6   22    5     -0.74      0.00
   -6   22    4      1.67      0.00
   -6   22    3      0.71      0.00
   -6   22    2      1.10      0.00
   -6   22    1      1.29      0.00
    6   22    0     -2.22      0.00
    6   22    1      0.18      0.00
    6   22    2     -1.75      0.00
    6   22    3      0.65      0.00
    6   22    4      1.22      0.00
   -6   24    3     -2.60      0.00
   -6   24    2     -3.22      0.00
   -6   24    1      0.99      0.00
    6   24    0      1.78      0.00
    6   24    1      2.92      0.00
    6   24    2     -0.49      0.00
   -7    1   11      0.29      0.00
   -7    1   10     -0.22      0.00
   -7    1    9      5.12      0.00
   -7    1    8      5.37      0.00
   -7    1    7     -6.40      0.00
   -7    1    6     -7.57      0.00
   -7    1    5      5.02      0.00
   -7    1    4      4.90      0.00
   -7    1    3    -34.76      0.00
   -7    1    2     14.01      0.00
   -7    1    1     77.60      0.00
    7    1    0     39.97      0.00
    7    1    1     13.48      0.00
    7    1    2     -8.21      0.00
    7    1    3    -13.00      0.00
    7    1    4     11.68      0.00
    7    1    5     -6.92      0.00
    7    1    6     12.07      0.00
    7    1    7     -0.53      0.00
    7    1    8      0.50      0.00
    7    1    9      2.99      0.00
    7    1   10     -0.31      0.00
    7    1   11     -2.45      0.00
   -7    3   11      0.87      0.00
   -7    3   10      0.18      0.00
   -7    3    9     -0.43      0.00
   -7    3    8     -0.11      0.00
   -7    3    7     -0.79      0.00
   -7    3    6      0.84      0.00
   -7    3    5      9.01      0.00
   -7    3    4      5.83      0.00
   -7    3    3    -17.30      0.00
   -7    3    2     -7.73      0.00
   -7    3    1     16.63      0.00
    7    3    0      9.72      0.00
    7    3    1     15.17      0.00
    7    3    2    -10.37      0.00
    7    3    3    -13.61      0.00
    7    3    4      4.99      0.00
    7    3    5     -5.35      0.00
    7    3    6      1.50      0.00
    7    3    7     -2.52      0.00
    7    3    8     -2.45      0.00
    7    3    9      0.43      0.00
    7    3   10     -0.54      0.00
    7    3   11     -0.88      0.00
   -7    5   11      2.98      0.00
   -7    5   10      1.66      0.00
   -7    5    9     -1.06      0.00
   -7    5    8     -3.40      0.00
   -7    5    7     -4.22      0.00
   -7    5    6     -3.61      0.00
   -7    5    5     10.01      0.00
   -7    5    4     10.21      0.00
   -7    5    3      2.92      0.00
   -7    5    2    -12.13      0.00
   -7    5    1    -15.29      0.00
    7    5    0    -18.02      0.00
    7    5    1      1.29      0.00
    7    5    2     -4.35      0.00
    7    5    3      9.24      0.00
    7    5    4     10.15      0.00
    7    5    5     -0.59      0.00
    7    5    6     -9.33      0.00
    7    5    7     -3.34      0.00
    7    5    8     -1.51      0.00
    7    5    9      2.17      0.00
    7    5   10      1.16      0.00
   -7    7   11     -0.61      0.00
   -7    7   10     -2.00      0.00
   -7    7    9      1.16      0.00
   -7    7    8      3.16      0.00
   -7    7    7      1.51      0.00
   -7    7    6     -3.71      0.00
   -7    7    5      4.73      0.00
   -7    7    4     -1.35      0.00
   -7    7    3     -3.88      0.00
   -7    7    2     -2.13      0.00
   -7    7    1     20.06      0.00
    7    7    0     15.84      0.00
    7    7    1      3.18      0.00
    7    7    2    -13.68      0.00
    7    7    3     -4.42      0.00
    7    7    4     -5.33      0.00
    7    7    5      2.32      0.00
    7    7    6     -1.65      0.00
    7    7    7      6.84      0.00
    7    7    8      3.94      0.00
    7    7    9     -0.97      0.00
    7    7   10     -2.25      0.00
   -7    9   11      0.28      0.00
   -7    9   10     -1.00      0.00
   -7    9    9      2.73      0.00
   -7    9    8      3.65      0.00
   -7    9    7     -0.28      0.00
   -7    9    6     -9.54      0.00
   -7    9    5     -2.74      0.00
   -7    9    4      0.00      0.00
   -7    9    3      1.57      0.00
   -7    9    2     -2.93      0.00
   -7    9    1      7.81      0.00
    7    9    0      5.62      0.00
    7    9    1     -5.60      0.00
    7    9    2     -6.36      0.00
    7    9    3      0.67      0.00
    7    9    4      2.73      0.00
    7    9    5      5.49      0.00
    7    9    6     -2.12      0.00
    7    9    7      1.03      0.00
    7    9    8      3.87      0.00
    7    9    9     -0.61      0.00
    7    9   10      2.28      0.00
   -7   11   10     -5.74      0.00
   -7   11    9     -1.59      0.00
   -7   11    8      1.28      0.00
   -7   11    7      2.69      0.00
   -7   11    6     -1.65      0.00
   -7   11    5      1.51      0.00
   -7   11    4      2.59      0.00
   -7   11    3      2.61      0.00
   -7   11    2     -2.74      0.00
   -7   11    1      1.08      0.00
    7   11    0      8.06      0.00
    7   11    1      0.64      0.00
    7   11    2      1.87      0.00
    7   11    3     -8.13      0.00
    7   11    4     -3.43      0.00
    7   11    5     -1.46      0.00
    7   11    6      2.45      0.00
    7   11    7      0.60      0.00
    7   11    8      2.42      0.00
    7   11    9     -3.66      0.00
   -7   13   10     -4.96      0.00
   -7   13    9     -0.15      0.00
   -7   13    8     -2.31      0.00
   -7   13    7     -3.29      0.00
   -7   13    6     -3.91      0.00
   -7   13    5      1.39      0.00
   -7   13    4      6.03      0.00
   -7   13    3      5.49      0.00
   -7   13    2     -6.57      0.00
   -7   13    1    -12.71      0.00
    7   13    0     -6.57      0.00
    7   13    1     -8.46      0.00
    7   13    2      7.41      0.00
    7   13    3      4.50      0.00
    7   13    4      9.82      0.00
    7   13    5      0.56      0.00
    7   13    6      0.77      0.00
    7   13    7     -5.55      0.00
    7   13    8     -0.80      0.00
    7   13    9     -0.51      0.00
   -7   15    9      1.18      0.00
   -7   15    8      1.20      0.00
   -7   15    7      3.44      0.00
   -7   15    6      0.79      0.00
   -7   15    5     -1.62      0.00
   -7   15    4      0.75      0.00
   -7   15    3      6.49      0.00
   -7   15    2      0.74      0.00
   -7   15    1     -0.48      0.00
    7   15    0      6.12      0.00
    7   15    1     -0.57      0.00
    7   15    2      2.45      0.00
    7   15    3     -4.75      0.00
    7   15    4     -3.32      0.00
    7   15    5     -3.74      0.00
    7   15    6      1.16      0.00
    7   15    7      0.47      0.00
    7   15    8      2.41      0.00
   -7   17    8      1.21      0.00
   -7   17    7      0.18      0.00
   -7   17    6     -3.75      0.00
   -7   17    5     -5.89      0.00
   -7   17    4     -4.25      0.00
   -7   17    3      1.53      0.00
   -7   17    2      2.20      0.00
   -7   17    1      2.45      0.00
    7   17    0      2.36      0.00
    7   17    1     -2.98      0.00
    7   17    2     -4.35      0.00
    7   17    3     -3.19      0.00
    7   17    4     -3.64      0.00
    7   17    5      0.57      0.00
    7   17    6      0.76      0.00
    7   17    7      1.48      0.00
   -7   19    7     -0.28      0.00
   -7   19    6     -0.33      0.00
   -7   19    5     -0.16      0.00
   -7   19    4      0.89      0.00
   -7   19    3      0.24      0.00
   -7   19    2      0.45      0.00
   -7   19    1     -0.22      0.00
    7   19    0     -1.20      0.00
    7   19    1      0.25      0.00
    7   19    2     -2.66      0.00
    7   19    3      2.99      0.00
    7   19    4     -2.02      0.00
    7   19    5     -1.54      0.00
    7   19    6     -0.24      0.00
   -7   21    6      2.43      0.00
   -7   21    5      2.94      0.00
   -7   21    4      4.07      0.00
   -7   21    3      2.08      0.00
   -7   21    2     -1.39      0.00
   -7   21    1     -5.51      0.00
    7   21    0     -4.40      0.00
    7   21    1      0.93      0.00
    7   21    2     -2.56      0.00
    7   21    3      3.72      0.00
    7   21    4      2.20      0.00
    7   21    5      0.66      0.00
   -7   23    4      1.09      0.00
   -7   23    3      1.77      0.00
   -7   23    2      1.14      0.00
   -7   23    1      0.18      0.00
    7   23    0      0.45      0.00
    7   23    1      1.38      0.00
    7   23    2     -1.30      0.00
    7   23    3      2.18      0.00
   -8    0   11     -0.72      0.00
   -8    0   10     -2.63      0.00
   -8    0    9     -2.22      0.00
   -8    0    8      2.22      0.00
   -8    0    7      9.05      0.00
   -8    0    6     -1.45      0.00
   -8    0    5    -10.14      0.00
   -8    0    4     -0.78      0.00
   -8    0    3      1.36      0.00
   -8    0    2    -26.48      0.00
   -8    0    1    -23.35      0.00
    8    0    0     34.03      0.00
    8    0    1      6.37      0.00
    8    0    2    -59.60      0.00
    8    0    3    -32.00      0.00
    8    0    4     13.32      0.00
    8    0    5      0.96      0.00
    8    0    6     10.85      0.00
    8    0    7     -4.09      0.00
    8    0    8      2.01      0.00
    8    0    9     -0.94      0.00
    8    0   10     -1.77      0.00
   -8    2   11      0.71      0.00
   -8    2   10      0.11      0.00
   -8    2    9     -0.41      0.00
   -8    2    8     -2.13      0.00
   -8    2    7     -1.87      0.00
   -8    2    6     -7.02      0.00
   -8    2    5     -4.06      0.00
   -8    2    4      4.03      0.00
   -8    2    3      3.21      0.00
   -8    2    2    -18.10      0.00
   -8    2    1    -24.29      0.00
    8    2    0      4.68      0.00
    8    2    1     -0.76      0.00
    8    2    2    -31.06      0.00
    8    2    3     -1.82      0.00
    8    2    4     23.08      0.00
    8    2    5      2.05      0.00
    8    2    6      2.09      0.00
    8    2    7     -8.73      0.00
    8    2    8      1.02      0.00
    8    2    9      4.05      0.00
    8    2   10      2.29      0.00
   -8    4   11     -2.82      0.00
   -8    4   10     -3.40      0.00
   -8    4    9     -2.43      0.00
   -8    4    8     -0.74      0.00
   -8    4    7      1.66      0.00
   -8    4    6      3.82      0.00
   -8    4    5     10.54      0.00
   -8    4    4      0.10      0.00
   -8    4    3     -8.44      0.00
   -8    4    2     -5.47      0.00
   -8    4    1      8.97      0.00
    8    4    0     11.65      0.00
    8    4    1     17.36      0.00
    8    4    2     -3.16      0.00
    8    4    3      1.03      0.00
    8    4    4      2.18      0.00
    8    4    5     -2.94      0.00
    8    4    6     -0.25      0.00
    8    4    7      0.37      0.00
    8    4    8      1.92      0.00
    8    4    9      2.90      0.00
    8    4   10     -0.07      0.00
   -8    6   11     -0.81      0.00
   -8    6   10      0.22      0.00
   -8    6    9     -0.02      0.00
   -8    6    8      0.11      0.00
   -8    6    7     -2.68      0.00
   -8    6    6     -4.16      0.00
   -8    6    5      5.80      0.00
   -8    6    4     -1.95      0.00
   -8    6    3     -7.00      0.00
   -8    6    2    -12.88      0.00
   -8    6    1     -2.95      0.00
    8    6    0    -10.77      0.00
    8    6    1      2.73      0.00
    8    6    2     -0.42      0.00
    8    6    3      6.33      0.00
    8    6    4      3.42      0.00
    8    6    5      1.41      0.00
    8    6    6     -5.73      0.00
    8    6    7     -0.42      0.00
    8    6    8     -2.61      0.00
    8    6    9      0.92      0.00
    8    6   10      2.72      0.00
   -8    8   11      0.37      0.00
   -8    8   10     -0.63      0.00
   -8    8    9      1.95      0.00
   -8    8    8      2.46      0.00
   -8    8    7     -0.67      0.00
   -8    8    6     -3.57      0.00
   -8    8    5      4.09      0.00
   -8    8    4     -1.31      0.00
   -8    8    3      3.57      0.00
   -8    8    2      1.03      0.00
   -8    8    1     11.14      0.00
    8    8    0      0.61      0.00
    8    8    1     -2.31      0.00
    8    8    2     -5.16      0.00
    8    8    3     -2.73      0.00
    8    8    4     -3.50      0.00
    8    8    5     -1.35      0.00
    8    8    6     -1.46      0.00
    8    8    7      4.58      0.00
    8    8    8     -1.17      0.00
    8    8    9     -4.03      0.00
    8    8   10     -1.79      0.00
   -8   10   10     -1.59      0.00
   -8   10    9      2.28      0.00
   -8   10    8      0.10      0.00
   -8   10    7     -1.97      0.00
   -8   10    6     -2.88      0.00
   -8   10    5      2.22      0.00
   -8   10    4     -3.12      0.00
   -8   10    3     -0.82      0.00
   -8   10    2     -2.65      0.00
   -8   10    1      9.57      0.00
    8   10    0      4.75      0.00
    8   10    1     -8.43      0.00
    8   10    2     -3.36      0.00
    8   10    3     -1.00      0.00
    8   10    4      4.66      0.00
    8   10    5      0.21      0.00
    8   10    6      0.40      0.00
    8   10    7      1.24      0.00
    8   10    8      0.95      0.00
    8   10    9     -3.11      0.00
   -8   12   10     -1.20      0.00
   -8   12    9     -0.65      0.00
   -8   12    8     -0.24      0.00
   -8   12    7      3.80      0.00
   -8   12    6      4.63      0.00
   -8   12    5      5.59      0.00
   -8   12    4      3.37      0.00
   -8   12    3      1.12      0.00
   -8   12    2    -11.65      0.00
   -8   12    1     -5.11      0.00
    8   12    0      4.22      0.00
    8   12    1     -0.36      0.00
    8   12    2      8.77      0.00
    8   12    3      1.25      0.00
    8   12    4      5.15      0.00
    8   12    5     -6.31      0.00
    8   12    6     -6.41      0.00
    8   12    7     -3.61      0.00
    8   12    8      4.08      0.00
    8   12    9      2.38      0.00
   -8   14    9     -1.27      0.00
   -8   14    8     -0.26      0.00
   -8   14    7      2.28      0.00
   -8   14    6      2.43      0.00
   -8   14    5      0.38      0.00
   -8   14    4     -0.57      0.00
   -8   14    3      0.62      0.00
   -8   14    2     -8.94      0.00
   -8   14    1     -5.03      0.00
    8   14    0      4.77      0.00
    8   14    1      2.76      0.00
    8   14    2      6.70      0.00
    8   14    3     -3.91      0.00
    8   14    4      1.19      0.00
    8   14    5     -1.68      0.00
    8   14    6     -0.24      0.00
    8   14    7     -0.81      0.00
    8   14    8      1.78      0.00
   -8   16    9      3.91      0.00
   -8   16    8      1.27      0.00
   -8   16    7     -2.96      0.00
   -8   16    6     -3.90      0.00
   -8   16    5     -4.53      0.00
   -8   16    4     -0.58      0.00
   -8   16    3      5.07      0.00
   -8   16    2     -0.64      0.00
   -8   16    1     -1.03      0.00
    8   16    0     -0.30      0.00
    8   16    1     -4.29      0.00
    8   16    2     -0.47      0.00
    8   16    3      0.16      0.00
    8   16    4      0.44      0.00
    8   16    5      0.95      0.00
    8   16    6      1.30      0.00
    8   16    7      0.48      0.00
    8   16    8      1.50      0.00
   -8   18    8     -1.25      0.00
   -8   18    7     -2.33      0.00
   -8   18    6     -0.48      0.00
   -8   18    5     -2.77      0.00
   -8   18    4      1.36      0.00
   -8   18    3      5.99      0.00
   -8   18    2      1.33      0.00
   -8   18    1      2.68      0.00
    8   18    0      7.20      0.00
    8   18    1      2.41      0.00
    8   18    2     -2.77      0.00
    8   18    3     -0.26      0.00
    8   18    4     -3.35      0.00
    8   18    5      2.19      0.00
    8   18    6      3.36      0.00
    8   18    7      2.19      0.00
   -8   20    6      1.04      0.00
   -8   20    5      0.37      0.00
   -8   20    4      1.99      0.00
   -8   20    3      0.72      0.00
   -8   20    2     -4.50      0.00
   -8   20    1     -7.03      0.00
    8   20    0     -0.55      0.00
    8   20    1      2.95      0.00
    8   20    2      1.46      0.00
    8   20    3      5.41      0.00
    8   20    4     -0.24      0.00
    8   20    5     -0.61      0.00
   -8   22    5      0.79      0.00
   -8   22    4     -0.46      0.00
   -8   22    3     -3.49      0.00
   -8   22    2     -2.25      0.00
   -8   22    1     -2.03      0.00
    8   22    0      0.69      0.00
    8   22    1      3.04      0.00
    8   22    2      0.88      0.00
    8   22    3      1.96      0.00
    8   22    4     -2.50      0.00
   -8   24    2      1.66      0.00
   -8   24    1      2.15      0.00
    8   24    0     -0.83      0.00
    8   24    1     -3.44      0.00
   -9    1   11      1.95      0.00
   -9    1   10      3.52      0.00
   -9    1    9      4.18      0.00
   -9    1    8     -6.41      0.00
   -9    1    7     -8.15      0.00
   -9    1    6     -2.63      0.00
   -9    1    5      3.40      0.00
   -9    1    4     -9.78      0.00
   -9    1    3      4.86      0.00
   -9    1    2     64.17      0.00
   -9    1    1     14.44      0.00
    9    1    0    -28.85      0.00
    9    1    1    -15.18      0.00
    9    1    2     -0.44      0.00
    9    1    3     12.62      0.00
    9    1    4      8.56      0.00
    9    1    5     -1.09      0.00
    9    1    6      6.02      0.00
    9    1    7     -7.33      0.00
    9    1    8      0.98      0.00
    9    1    9      0.10      0.00
    9    1   10     -2.56      0.00
   -9    3   11     -0.48      0.00
   -9    3   10     -0.69      0.00
   -9    3    9     -0.26      0.00
   -9    3    8      0.72      0.00
   -9    3    7      5.52      0.00
   -9    3    6      6.58      0.00
   -9    3    5      5.03      0.00
   -9    3    4    -14.13      0.00
   -9    3    3    -16.18      0.00
   -9    3    2     12.00      0.00
   -9    3    1      5.29      0.00
    9    3    0      0.57      0.00
    9    3    1      1.91      0.00
    9    3    2     -9.03      0.00
    9    3    3     -1.01      0.00
    9    3    4     -4.48      0.00
    9    3    5     -7.59      0.00
    9    3    6      1.55      0.00
    9    3    7     -0.60      0.00
    9    3    8      1.65      0.00
    9    3    9      0.66      0.00
    9    3   10     -2.75      0.00
   -9    5   11      0.26      0.00
   -9    5   10      0.53      0.00
   -9    5    9     -0.74      0.00
   -9    5    8     -0.85      0.00
   -9    5    7      1.84      0.00
   -9    5    6      5.06      0.00
   -9    5    5      8.19      0.00
   -9    5    4     -6.08      0.00
   -9    5    3     -5.71      0.00
   -9    5    2     -3.45      0.00
   -9    5    1     -0.26      0.00
    9    5    0      0.13      0.00
    9    5    1      4.87      0.00
    9    5    2      1.40      0.00
    9    5    3     10.50      0.00
    9    5    4     -0.51      0.00
    9    5    5     -5.79      0.00
    9    5    6     -4.12      0.00
    9    5    7      1.85      0.00
    9    5    8      0.23      0.00
    9    5    9      2.18      0.00
    9    5   10     -0.42      0.00
   -9    7   11     -1.59      0.00
   -9    7   10     -0.44      0.00
   -9    7    9      0.73      0.00
   -9    7    8     -2.07      0.00
   -9    7    7     -2.62      0.00
   -9    7    6      2.78      0.00
   -9    7    5      7.97      0.00
   -9    7    4     -6.46      0.00
   -9    7    3      0.25      0.00
   -9    7    2      6.20      0.00
   -9    7    1     14.16      0.00
    9    7    0      0.72      0.00
    9    7    1     -4.06      0.00
    9    7    2     -5.09      0.00
    9    7    3      0.32      0.00
    9    7    4     -2.98      0.00
    9    7    5      0.82      0.00
    9    7    6      2.14      0.00
    9    7    7      7.48      0.00
    9    7    8     -1.02      0.00
    9    7    9     -1.27      0.00
    9    7   10     -0.80      0.00
   -9    9   10      0.86      0.00
   -9    9    9      2.41      0.00
   -9    9    8     -3.21      0.00
   -9    9    7     -8.35      0.00
   -9    9    6     -5.93      0.00
   -9    9    5      4.04      0.00
   -9    9    4      1.28      0.00
   -9    9    3      6.15      0.00
   -9    9    2      2.13      0.00
   -9    9    1      0.66      0.00
    9    9    0    -14.86      0.00
    9    9    1    -16.45      0.00
    9    9    2     -1.62      0.00
    9    9    3      8.63      0.00
    9    9    4     11.79      0.00
    9    9    5      3.75      0.00
    9    9    6     -2.80      0.00
    9    9    7     -0.97      0.00
    9    9    8     -2.56      0.00
    9    9    9      1.74      0.00
   -9   11   10     -3.55      0.00
   -9   11    9      1.96      0.00
   -9   11    8      1.13      0.00
   -9   11    7      1.12      0.00
   -9   11    6      1.48      0.00
   -9   11    5      3.93      0.00
   -9   11    4     -2.51      0.00
   -9   11    3     -3.61      0.00
   -9   11    2     -4.05      0.00
   -9   11    1      5.25      0.00
    9   11    0      5.83      0.00
    9   11    1      0.23      0.00
    9   11    2      1.48      0.00
    9   11    3     -7.19      0.00
    9   11    4     -1.54      0.00
    9   11    5     -2.79      0.00
    9   11    6      2.81      0.00
    9   11    7      2.35      0.00
    9   11    8      1.40      0.00
    9   11    9     -1.43      0.00
   -9   13    9      3.94      0.00
   -9   13    8      0.50      0.00
   -9   13    7     -1.03      0.00
   -9   13    6     -2.22      0.00
   -9   13    5      0.44      0.00
   -9   13    4     -2.93      0.00
   -9   13    3     -6.18      0.00
   -9   13    2     -8.61      0.00
   -9   13    1      0.32      0.00
    9   13    0      3.56      0.00
    9   13    1      1.00      0.00
    9   13    2      8.02      0.00
    9   13    3     -1.03      0.00
    9   13    4      2.21      0.00
    9   13    5     -1.85      0.00
    9   13    6      0.65      0.00
    9   13    7     -2.37      0.00
    9   13    8      1.80      0.00
    9   13    9      0.29      0.00
   -9   15    9      1.11      0.00
   -9   15    8     -0.05      0.00
   -9   15    7      0.45      0.00
   -9   15    6     -0.04      0.00
   -9   15    5      2.83      0.00
   -9   15    4      3.96      0.00
   -9   15    3      2.86      0.00
   -9   15    2     -2.61      0.00
   -9   15    1      3.54      0.00
    9   15    0      3.94      0.00
    9   15    1     -1.96      0.00
    9   15    2      2.05      0.00
    9   15    3     -5.89      0.00
    9   15    4     -2.51      0.00
    9   15    5      0.08      0.00
    9   15    6      2.13      0.00
    9   15    7      0.56      0.00
    9   15    8     -0.03      0.00
   -9   17    8     -2.08      0.00
   -9   17    7     -4.49      0.00
   -9   17    6     -3.19      0.00
   -9   17    5      0.14      0.00
   -9   17    4      3.76      0.00
   -9   17    3      5.82      0.00
   -9   17    2     -0.11      0.00
   -9   17    1     -2.98      0.00
    9   17    0     -5.60      0.00
    9   17    1     -8.16      0.00
    9   17    2     -1.23      0.00
    9   17    3     -0.15      0.00
    9   17    4      2.63      0.00
    9   17    5      6.26      0.00
    9   17    6      1.56      0.00
    9   17    7     -2.00      0.00
   -9   19    7      0.16      0.00
   -9   19    6      2.46      0.00
   -9   19    5      1.09      0.00
   -9   19    4      0.19      0.00
   -9   19    3     -1.61      0.00
   -9   19    2     -1.67      0.00
   -9   19    1     -2.15      0.00
    9   19    0      1.07      0.00
    9   19    1     -0.04      0.00
    9   19    2      1.48      0.00
    9   19    3      1.59      0.00
    9   19    4     -3.38      0.00
    9   19    5      0.83      0.00
    9   19    6      2.74      0.00
   -9   21    6      4.12      0.00
   -9   21    5     -0.46      0.00
   -9   21    4     -0.97      0.00
   -9   21    3     -4.70      0.00
   -9   21    2     -3.08      0.00
   -9   21    1     -0.90      0.00
    9   21    0      5.16      0.00
    9   21    1      3.18      0.00
    9   21    2      0.38      0.00
    9   21    3      1.77      0.00
    9   21    4     -2.09      0.00
   -9   23    3      2.02      0.00
   -9   23    2      2.17      0.00
   -9   23    1      0.17      0.00
    9   23    0      0.81      0.00
    9   23    1      0.65      0.00
    9   23    2      0.80      0.00
  -10    0   11     -1.31      0.00
  -10    0   10     -4.87      0.00
  -10    0    9     -2.91      0.00
  -10    0    8      2.12      0.00
  -10    0    7      6.50      0.00
  -10    0    6      1.78      0.00
  -10    0    5     12.06      0.00
  -10    0    4     15.11      0.00
  -10    0    3    -14.85      0.00
  -10    0    2    -18.40      0.00
  -10    0    1      2.16      0.00
   10    0    0     13.00      0.00
   10    0    1    -21.09      0.00
   10    0    2    -13.10      0.00
   10    0    3     14.06      0.00
   10    0    4      7.28      0.00
   10    0    5     -4.52      0.00
   10    0    6     -0.17      0.00
   10    0    7     -2.68      0.00
   10    0    8      3.69      0.00
   10    0    9     -1.64      0.00
   10    0   10     -2.10      0.00
  -10    2   11     -0.02      0.00
  -10    2   10      0.21      0.00
  -10    2    9     -0.10      0.00
  -10    2    8     -1.87      0.00
  -10    2    7     -2.52      0.00
  -10    2    6     -6.11      0.00
  -10    2    5      2.81      0.00
  -10    2    4      8.80      0.00
  -10    2    3     -0.67      0.00
  -10    2    2     -2.14      0.00
  -10    2    1     -4.47      0.00
   10    2    0     -3.16      0.00
   10    2    1    -16.84      0.00
   10    2    2     -1.47      0.00
   10    2    3     23.29      0.00
   10    2    4     13.25      0.00
   10    2    5     -1.37      0.00
   10    2    6     -3.11      0.00
   10    2    7     -5.01      0.00
   10    2    8      2.63      0.00
   10    2    9      1.41      0.00
   10    2   10      1.17      0.00
  -10    4   11     -2.61      0.00
  -10    4   10      0.39      0.00
  -10    4    9      1.39      0.00
  -10    4    8      2.10      0.00
  -10    4    7      3.28      0.00
  -10    4    6      1.28      0.00
  -10    4    5     -4.21      0.00
  -10    4    4    -14.06      0.00
  -10    4    3     -3.29      0.00
  -10    4    2     13.42      0.00
  -10    4    1     13.48      0.00
   10    4    0     11.41      0.00
   10    4    1      4.53      0.00
   10    4    2     -7.16      0.00
   10    4    3     -3.21      0.00
   10    4    4     -8.26      0.00
   10    4    5     -3.74      0.00
   10    4    6      4.06      0.00
   10    4    7      5.91      0.00
   10    4    8      3.62      0.00
   10    4    9     -0.11      0.00
   10    4   10     -2.34      0.00
  -10    6   11     -1.60      0.00
  -10    6   10      1.56      0.00
  -10    6    9      0.54      0.00
  -10    6    8     -0.38      0.00
  -10    6    7     -1.21      0.00
  -10    6    6     -0.22      0.00
  -10    6    5     -3.15      0.00
  -10    6    4    -14.31      0.00
  -10    6    3     -5.17      0.00
  -10    6    2     -0.80      0.00
  -10    6    1     -0.52      0.00
   10    6    0     -4.83      0.00
   10    6    1     -0.86      0.00
   10    6    2     -6.28      0.00
   10    6    3      3.99      0.00
   10    6    4      0.59      0.00
   10    6    5     -1.51      0.00
   10    6    6     -1.41      0.00
   10    6    7     -0.22      0.00
   10    6    8     -1.09      0.00
   10    6    9      3.95      0.00
   10    6   10      3.67      0.00
  -10    8   11     -1.00      0.00
  -10    8   10      1.76      0.00
  -10    8    9     -0.17      0.00
  -10    8    8     -3.10      0.00
  -10    8    7      0.26      0.00
  -10    8    6      7.19      0.00
  -10    8    5      7.61      0.00
  -10    8    4     -1.39      0.00
  -10    8    3      5.50      0.00
  -10    8    2     -0.63      0.00
  -10    8    1     -1.06      0.00
   10    8    0     -6.86      0.00
   10    8    1      0.92      0.00
   10    8    2      0.98      0.00
   10    8    3      4.77      0.00
   10    8    4      0.02      0.00
   10    8    5     -3.07      0.00
   10    8    6     -0.22      0.00
   10    8    7     -0.47      0.00
   10    8    8     -2.14      0.00
   10    8    9     -0.01      0.00
  -10   10   10      1.18      0.00
  -10   10    9      2.16      0.00
  -10   10    8     -2.59      0.00
  -10   10    7     -0.88      0.00
  -10   10    6      2.29      0.00
  -10   10    5      1.48      0.00
  -10   10    4     -4.57      0.00
  -10   10    3      2.94      0.00
  -10   10    2      1.12      0.00
  -10   10    1      3.78      0.00
   10   10    0     -5.53      0.00
   10   10    1     -2.34      0.00
   10   10    2      2.78      0.00
   10   10    3      2.24      0.00
   10   10    4      2.70      0.00
   10   10    5     -2.44      0.00
   10   10    6      1.36      0.00
   10   10    7     -1.00      0.00
   10   10    8     -0.80      0.00
   10   10    9     -2.66      0.00
  -10   12   10      0.17      0.00
  -10   12    9      3.12      0.00
  -10   12    8      2.92      0.00
  -10   12    7      3.72      0.00
  -10   12    6      0.39      0.00
  -10   12    5     -2.64      0.00
  -10   12    4     -4.48      0.00
  -10   12    3     -1.30      0.00
  -10   12    2     -0.01      0.00
  -10   12    1      9.52      0.00
   10   12    0      3.46      0.00
   10   12    1     -1.25      0.00
   10   12    2      0.10      0.00
   10   12    3     -5.41      0.00
   10   12    4     -1.10      0.00
   10   12    5     -7.80      0.00
   10   12    6     -0.49      0.00
   10   12    7      1.14      0.00
   10   12    8      3.55      0.00
   10   12    9     -0.72      0.00
  -10   14    9      0.94      0.00
  -10   14    8      1.25      0.00
  -10   14    7      1.78      0.00
  -10   14    6     -0.49      0.00
  -10   14    5     -3.56      0.00
  -10   14    4     -2.86      0.00
  -10   14    3     -3.29      0.00
  -10   14    2     -3.70      0.00
  -10   14    1      6.84      0.00
   10   14    0      7.98      0.00
   10   14    1      2.64      0.00
   10   14    2     -0.04      0.00
   10   14    3     -7.21      0.00
   10   14    4      0.23      0.00
   10   14    5     -1.06      0.00
   10   14    6      2.90      0.00
   10   14    7      2.18      0.00
   10   14    8      2.04      0.00
  -10   16    8     -3.52      0.00
  -10   16    7     -3.55      0.00
  -10   16    6     -0.51      0.00
  -10   16    5      1.09      0.00
  -10   16    4      4.93      0.00
  -10   16    3      0.54      0.00
  -10   16    2     -5.91      0.00
  -10   16    1     -4.14      0.00
   10   16    0     -3.56      0.00
   10   16    1     -2.51      0.00
   10   16    2      4.25      0.00
   10   16    3      2.09      0.00
   10   16    4      2.66      0.00
   10   16    5      1.96      0.00
   10   16    6     -1.68      0.00
   10   16    7     -1.16      0.00
  -10   18    7     -1.39      0.00
  -10   18    6      2.06      0.00
  -10   18    5      1.98      0.00
  -10   18    4      5.49      0.00
  -10   18    3     -0.05      0.00
  -10   18    2     -1.91      0.00
  -10   18    1      2.66      0.00
   10   18    0      3.14      0.00
   10   18    1     -0.91      0.00
   10   18    2      1.41      0.00
   10   18    3      0.11      0.00
   10   18    4     -1.56      0.00
   10   18    5      3.55      0.00
   10   18    6     -0.10      0.00
  -10   20    6      0.02      0.00
  -10   20    5     -2.74      0.00
  -10   20    4     -0.33      0.00
  -10   20    3     -2.29      0.00
  -10   20    2      1.07      0.00
  -10   20    1      3.37      0.00
   10   20    0      4.48      0.00
   10   20    1     -0.72      0.00
   10   20    2     -1.84      0.00
   10   20    3     -1.02      0.00
   10   20    4     -2.42      0.00
   10   20    5      0.61      0.00
  -10   22    4     -2.35      0.00
  -10   22    3     -3.62      0.00
  -10   22    2      1.68      0.00
  -10   22    1      1.08      0.00
   10   22    0      3.39      0.00
   10   22    1      1.81      0.00
   10   22    2     -0.31      0.00
   10   22    3     -2.00      0.00
  -11    1   11      3.92      0.00
  -11    1   10      2.60      0.00
  -11    1    9     -4.05      0.00
  -11    1    8     -5.72      0.00
  -11    1    7      1.33      0.00
  -11    1    6      0.27      0.00
  -11    1    5     -2.33      0.00
  -11    1    4     -5.93      0.00
  -11    1    3     23.69      0.00
  -11    1    2      4.71      0.00
  -11    1    1    -48.95      0.00
   11    1    0    -11.42      0.00
   11    1    1     15.33      0.00
   11    1    2     13.47      0.00
   11    1    3      3.24      0.00
   11    1    4     -4.24      0.00
   11    1    5     -3.79      0.00
   11    1    6     -2.35      0.00
   11    1    7     -4.23      0.00
   11    1    8      2.87      0.00
   11    1    9     -1.57      0.00
   11    1   10     -0.65      0.00
  -11    3   11     -0.31      0.00
  -11    3   10      0.04      0.00
  -11    3    9     -0.67      0.00
  -11    3    8      4.16      0.00
  -11    3    7      4.95      0.00
  -11    3    6      0.16      0.00
  -11    3    5     -4.27      0.00
  -11    3    4    -11.90      0.00
  -11    3    3      6.79      0.00
  -11    3    2      5.22      0.00
  -11    3    1    -10.86      0.00
   11    3    0      2.38      0.00
   11    3    1      0.86      0.00
   11    3    2     -6.65      0.00
   11    3    3     -5.93      0.00
   11    3    4     -8.43      0.00
   11    3    5     -0.68      0.00
   11    3    6      3.66      0.00
   11    3    7      0.24      0.00
   11    3    8      0.56      0.00
   11    3    9     -1.08      0.00
   11    3   10     -2.77      0.00
  -11    5   11     -0.21      0.00
  -11    5   10      2.69      0.00
  -11    5    9     -0.78      0.00
  -11    5    8      1.38      0.00
  -11    5    7      0.08      0.00
  -11    5    6     -1.12      0.00
  -11    5    5     -4.26      0.00
  -11    5    4     -3.97      0.00
  -11    5    3     14.78      0.00
  -11    5    2      9.28      0.00
  -11    5    1      3.11      0.00
   11    5    0     -3.77      0.00
   11    5    1     -2.89      0.00
   11    5    2     -0.80      0.00
   11    5    3      5.76      0.00
   11    5    4     -0.41      0.00
   11    5    5      2.58      0.00
   11    5    6      2.57      0.00
   11    5    7     -1.09      0.00
   11    5    8     -2.98      0.00
   11    5    9      0.60      0.00
   11    5   10     -3.05      0.00
  -11    7   11     -2.46      0.00
  -11    7   10      0.65      0.00
  -11    7    9     -3.50      0.00
  -11    7    8     -1.51      0.00
  -11    7    7      4.20      0.00
  -11    7    6      7.12      0.00
  -11    7    5     -1.89      0.00
  -11    7    4     -8.03      0.00
  -11    7    3      7.01      0.00
  -11    7    2     -0.24      0.00
  -11    7    1      2.95      0.00
   11    7    0     -2.56      0.00
   11    7    1      5.23      0.00
   11    7    2      2.58      0.00
   11    7    3     -0.77      0.00
   11    7    4     -6.05      0.00
   11    7    5     -1.42      0.00
   11    7    6      4.35      0.00
   11    7    7      2.66      0.00
   11    7    8     -1.36      0.00
   11    7    9     -0.54      0.00
  -11    9   10      1.16      0.00
  -11    9    9     -3.11      0.00
  -11    9    8     -4.81      0.00
  -11    9    7      0.40      0.00
  -11    9    6      3.17      0.00
  -11    9    5      1.14      0.00
  -11    9    4     -3.83      0.00
  -11    9    3      3.03      0.00
  -11    9    2     -8.79      0.00
  -11    9    1     -8.09      0.00
   11    9    0    -13.48      0.00
   11    9    1     -0.11      0.00
   11    9    2      9.58      0.00
   11    9    3     10.57      0.00
   11    9    4      4.35      0.00
   11    9    5     -5.51      0.00
   11    9    6     -3.28      0.00
   11    9    7     -3.95      0.00
   11    9    8      0.57      0.00
   11    9    9      4.13      0.00
  -11   11   10      2.77      0.00
  -11   11    9      0.79      0.00
  -11   11    8     -1.67      0.00
  -11   11    7      1.85      0.00
  -11   11    6      1.77      0.00
  -11   11    5      0.74      0.00
  -11   11    4     -4.33      0.00
  -11   11    3      1.47      0.00
  -11   11    2     -0.62      0.00
  -11   11    1      6.26      0.00
   11   11    0      1.88      0.00
   11   11    1      0.85      0.00
   11   11    2     -0.70      0.00
   11   11    3     -5.41      0.00
   11   11    4     -0.96      0.00
   11   11    5     -2.11      0.00
   11   11    6      5.53      0.00
   11   11    7      2.43      0.00
   11   11    8      2.13      0.00
   11   11    9     -2.99      0.00
  -11   13    9      3.39      0.00
  -11   13    8     -1.72      0.00
  -11   13    7     -4.89      0.00
  -11   13    6     -5.08      0.00
  -11   13    5     -3.09      0.00
  -11   13    4     -3.06      0.00
  -11   13    3      3.61      0.00
  -11   13    2      4.68      0.00
  -11   13    1      6.73      0.00
   11   13    0     -2.89      0.00
   11   13    1     -4.97      0.00
   11   13    2     -1.63      0.00
   11   13    3     -3.18      0.00
   11   13    4      6.04      0.00
   11   13    5      2.66      0.00
   11   13    6      1.70      0.00
   11   13    7     -1.44      0.00
   11   13    8      0.46      0.00
  -11   15    9     -2.03      0.00
  -11   15    8     -0.14      0.00
  -11   15    7     -0.10      0.00
  -11   15    6      3.29      0.00
  -11   15    5      2.86      0.00
  -11   15    4      0.30      0.00
  -11   15    3     -1.13      0.00
  -11   15    2     -0.48      0.00
  -11   15    1      5.27      0.00
   11   15    0     -0.90      0.00
   11   15    1     -0.78      0.00
   11   15    2      0.20      0.00
   11   15    3     -5.51      0.00
   11   15    4      1.56      0.00
   11   15    5      0.57      0.00
   11   15    6     -0.53      0.00
   11   15    7      0.01      0.00
  -11   17    8      0.31      0.00
  -11   17    7      1.13      0.00
  -11   17    6      4.38      0.00
  -11   17    5      1.91      0.00
  -11   17    4      1.02      0.00
  -11   17    3     -2.81      0.00
  -11   17    2     -5.96      0.00
  -11   17    1     -2.19      0.00
   11   17    0     -2.48      0.00
   11   17    1      1.15      0.00
   11   17    2      3.86      0.00
   11   17    3      1.11      0.00
   11   17    4      5.24      0.00
   11   17    5      1.77      0.00
   11   17    6     -4.93      0.00
   11   17    7     -5.06      0.00
  -11   19    7      1.92      0.00
  -11   19    6      2.43      0.00
  -11   19    5     -0.31      0.00
  -11   19    4     -0.43      0.00
  -11   19    3     -1.81      0.00
  -11   19    2     -1.43      0.00
  -11   19    1     -0.84      0.00
   11   19    0      1.41      0.00
   11   19    1      1.01      0.00
   11   19    2      1.08      0.00
   11   19    3     -1.60      0.00
   11   19    4     -0.65      0.00
   11   19    5      0.59      0.00
  -11   21    5     -2.99      0.00
  -11   21    4     -0.83      0.00
  -11   21    3     -0.32      0.00
  -11   21    2      3.70      0.00
  -11   21    1      2.08      0.00
   11   21    0      3.18      0.00
   11   21    1     -2.37      0.00
   11   21    2     -3.48      0.00
   11   21    3     -1.48      0.00
   11   21    4     -0.53      0.00
  -11   23    2      2.62      0.00
  -11   23    1     -0.06      0.00
   11   23    0      3.35      0.00
   11   23    1      0.90      0.00
  -12    0   11     -2.94      0.00
  -12    0   10     -4.85      0.00
  -12    0    9      2.77      0.00
  -12    0    8      9.56      0.00
  -12    0    7      9.34      0.00
  -12    0    6     10.36      0.00
  -12    0    5     18.29      0.00
  -12    0    4    -10.38      0.00
  -12    0    3    -21.84      0.00
  -12    0    2      2.73      0.00
  -12    0    1     14.51      0.00
   12    0    0     18.22      0.00
   12    0    1      3.30      0.00
   12    0    2     10.15      0.00
   12    0    3     -1.18      0.00
   12    0    4    -10.42      0.00
   12    0    5     -8.86      0.00
   12    0    6      1.26      0.00
   12    0    7      4.46      0.00
   12    0    8      3.78      0.00
   12    0    9     -1.79      0.00
   12    0   10     -3.22      0.00
  -12    2   11      1.35      0.00
  -12    2   10      1.45      0.00
  -12    2    9      1.05      0.00
  -12    2    8     -0.04      0.00
  -12    2    7     -3.69      0.00
  -12    2    6     -3.03      0.00
  -12    2    5      8.50      0.00
  -12    2    4      1.39      0.00
  -12    2    3      2.49      0.00
  -12    2    2      4.70      0.00
  -12    2    1     -3.84      0.00
   12    2    0     -0.54      0.00
   12    2    1     -2.12      0.00
   12    2    2     13.27      0.00
   12    2    3     12.35      0.00
   12    2    4      3.99      0.00
   12    2    5     -1.87      0.00
   12    2    6     -2.35      0.00
   12    2    7     -1.91      0.00
   12    2    8      0.08      0.00
   12    2    9      0.16      0.00
   12    2   10      1.15      0.00
  -12    4   11      2.21      0.00
  -12    4   10      4.23      0.00
  -12    4    9      0.09      0.00
  -12    4    8     -0.07      0.00
  -12    4    7     -2.22      0.00
  -12    4    6     -4.06      0.00
  -12    4    5     -2.66      0.00
  -12    4    4      1.03      0.00
  -12    4    3     14.73      0.00
  -12    4    2      5.59      0.00
  -12    4    1     -3.07      0.00
   12    4    0      0.76      0.00
   12    4    1     -3.18      0.00
   12    4    2     -4.65      0.00
   12    4    3     -3.59      0.00
   12    4    4     -3.73      0.00
   12    4    5      3.20      0.00
   12    4    6      5.57      0.00
   12    4    7      3.61      0.00
   12    4    8     -0.73      0.00
   12    4    9     -3.60      0.00
   12    4   10     -3.77      0.00
  -12    6   11      0.19      0.00
  -12    6   10      1.65      0.00
  -12    6    9     -1.43      0.00
  -12    6    8      1.93      0.00
  -12    6    7     -0.97      0.00
  -12    6    6     -4.07      0.00
  -12    6    5     -7.14      0.00
  -12    6    4     -3.01      0.00
  -12    6    3      9.01      0.00
  -12    6    2     -2.32      0.00
  -12    6    1     -4.38      0.00
   12    6    0     -6.53      0.00
   12    6    1     -6.32      0.00
   12    6    2     -2.33      0.00
   12    6    3      5.78      0.00
   12    6    4      0.36      0.00
   12    6    5      1.89      0.00
   12    6    6     -0.53      0.00
   12    6    7     -1.76      0.00
   12    6    8      0.42      0.00
   12    6    9      2.80      0.00
  -12    8   10      0.18      0.00
  -12    8    9     -3.02      0.00
  -12    8    8      4.15      0.00
  -12    8    7      7.85      0.00
  -12    8    6      5.44      0.00
  -12    8    5     -2.48      0.00
  -12    8    4     -2.00      0.00
  -12    8    3      4.13      0.00
  -12    8    2     -5.45      0.00
  -12    8    1      2.91      0.00
   12    8    0      3.79      0.00
   12    8    1      5.71      0.00
   12    8    2      3.64      0.00
   12    8    3      1.53      0.00
   12    8    4     -6.89      0.00
   12    8    5     -3.32      0.00
   12    8    6      0.79      0.00
   12    8    7      1.41      0.00
   12    8    8      2.79      0.00
   12    8    9      0.73      0.00
  -12   10   10      1.38      0.00
  -12   10    9     -1.53      0.00
  -12   10    8      0.83      0.00
  -12   10    7      3.96      0.00
  -12   10    6      0.97      0.00
  -12   10    5     -4.79      0.00
  -12   10    4     -1.47      0.00
  -12   10    3      4.73      0.00
  -12   10    2     -2.90      0.00
  -12   10    1      1.73      0.00
   12   10    0     -0.93      0.00
   12   10    1      1.88      0.00
   12   10    2      1.82      0.00
   12   10    3      0.44      0.00
   12   10    4     -1.21      0.00
   12   10    5     -1.20      0.00
   12   10    6      1.91      0.00
   12   10    7     -1.03      0.00
   12   10    8     -0.03      0.00
   12   10    9     -1.08      0.00
  -12   12    9     -0.41      0.00
  -12   12    8     -1.89      0.00
  -12   12    7     -1.07      0.00
  -12   12    6     -2.88      0.00
  -12   12    5     -1.60      0.00
  -12   12    4      2.93      0.00
  -12   12    3      6.67      0.00
  -12   12    2      2.28      0.00
  -12   12    1      1.28      0.00
   12   12    0     -8.23      0.00
   12   12    1     -7.77      0.00
   12   12    2     -3.50      0.00
   12   12    3     -1.36      0.00
   12   12    4      1.27      0.00
   12   12    5     -1.88      0.00
   12   12    6      2.50      0.00
   12   12    7     -1.00      0.00
   12   12    8     -1.09      0.00
  -12   14    9     -1.72      0.00
  -12   14    8     -1.72      0.00
  -12   14    7     -0.43      0.00
  -12   14    6     -1.78      0.00
  -12   14    5      0.03      0.00
  -12   14    4      1.66      0.00
  -12   14    3      1.47      0.00
  -12   14    2      0.89      0.00
  -12   14    1      5.53      0.00
   12   14    0      0.88      0.00
   12   14    1     -1.59      0.00
   12   14    2     -1.98      0.00
   12   14    3     -2.39      0.00
   12   14    4      3.09      0.00
   12   14    5      0.67      0.00
   12   14    6      3.29      0.00
   12   14    7      0.71      0.00
   12   14    8     -3.46      0.00
  -12   16    8     -0.50      0.00
  -12   16    7      1.34      0.00
  -12   16    6      1.50      0.00
  -12   16    5      1.11      0.00
  -12   16    4     -1.00      0.00
  -12   16    3     -4.26      0.00
  -12   16    2     -4.28      0.00
  -12   16    1     -0.07      0.00
   12   16    0      0.40      0.00
   12   16    1      3.08      0.00
   12   16    2      3.92      0.00
   12   16    3     -0.30      0.00
   12   16    4      1.85      0.00
   12   16    5     -2.83      0.00
   12   16    6     -3.77      0.00
   12   16    7      2.33      0.00
  -12   18    7      2.30      0.00
  -12   18    6      2.52      0.00
  -12   18    5      0.95      0.00
  -12   18    4     -2.04      0.00
  -12   18    3     -3.92      0.00
  -12   18    2      1.33      0.00
  -12   18    1      3.23      0.00
   12   18    0      1.68      0.00
   12   18    1      1.47      0.00
   12   18    2      1.62      0.00
   12   18    3     -2.82      0.00
   12   18    4     -0.22      0.00
   12   18    5     -0.10      0.00
   12   18    6     -1.99      0.00
  -12   20    6     -1.67      0.00
  -12   20    5     -0.96      0.00
  -12   20    4      1.10      0.00
  -12   20    3      2.98      0.00
  -12   20    2      6.00      0.00
  -12   20    1      0.93      0.00
   12   20    0     -2.95      0.00
   12   20    1     -7.13      0.00
   12   20    2     -3.14      0.00
   12   20    3     -0.11      0.00
   12   20    4      3.18      0.00
  -12   22    3      1.59      0.00
  -12   22    2      2.20      0.00
  -12   22    1     -1.64      0.00
   12   22    0      0.69      0.00
   12   22    1     -2.05      0.00
   12   22    2     -0.38      0.00
  -13    1   11      1.47      0.00
  -13    1   10     -3.89      0.00
  -13    1    9     -2.49      0.00
  -13    1    8      0.45      0.00
  -13    1    7     -2.14      0.00
  -13    1    6     -6.42      0.00
  -13    1    5     -7.19      0.00
  -13    1    4      0.71      0.00
  -13    1    3      3.86      0.00
  -13    1    2    -28.87      0.00
  -13    1    1    -13.00      0.00
   13    1    0     29.56      0.00
   13    1    1      4.85      0.00
   13    1    2     -7.21      0.00
   13    1    3     -9.97      0.00
   13    1    4     -2.13      0.00
   13    1    5     -1.02      0.00
   13    1    6      2.09      0.00
   13    1    7      0.85      0.00
   13    1    8      1.43      0.00
   13    1    9     -1.72      0.00
  -13    3   11     -1.62      0.00
  -13    3   10     -5.02      0.00
  -13    3    9     -0.50      0.00
  -13    3    8      3.01      0.00
  -13    3    7     -0.34      0.00
  -13    3    6      1.87      0.00
  -13    3    5     -0.30      0.00
  -13    3    4      0.81      0.00
  -13    3    3      2.95      0.00
  -13    3    2    -12.88      0.00
  -13    3    1     -5.59      0.00
   13    3    0     10.63      0.00
   13    3    1     -3.98      0.00
   13    3    2     -5.48      0.00
   13    3    3     -4.96      0.00
   13    3    4     -0.60      0.00
   13    3    5      2.86      0.00
   13    3    6      0.97      0.00
   13    3    7     -1.66      0.00
   13    3    8      1.50      0.00
   13    3    9      0.02      0.00
  -13    5   11      1.62      0.00
  -13    5   10     -1.17      0.00
  -13    5    9     -2.28      0.00
  -13    5    8     -0.92      0.00
  -13    5    7     -4.15      0.00
  -13    5    6     -0.80      0.00
  -13    5    5     -0.32      0.00
  -13    5    4     11.17      0.00
  -13    5    3     12.16      0.00
  -13    5    2     -2.80      0.00
  -13    5    1     -6.17      0.00
   13    5    0     -6.49      0.00
   13    5    1     -1.25      0.00
   13    5    2      5.18      0.00
   13    5    3      7.88      0.00
   13    5    4      4.74      0.00
   13    5    5      4.37      0.00
   13    5    6     -3.58      0.00
   13    5    7     -6.41      0.00
   13    5    8     -0.37      0.00
   13    5    9      0.54      0.00
  -13    7   10     -0.02      0.00
  -13    7    9     -0.86      0.00
  -13    7    8      4.86      0.00
  -13    7    7      4.04      0.00
  -13    7    6     -0.83      0.00
  -13    7    5     -8.21      0.00
  -13    7    4      1.68      0.00
  -13    7    3      1.86      0.00
  -13    7    2     -5.64      0.00
  -13    7    1      3.41      0.00
   13    7    0      3.47      0.00
   13    7    1      8.85      0.00
   13    7    2     -1.88      0.00
   13    7    3     -6.37      0.00
   13    7    4     -7.42      0.00
   13    7    5      2.27      0.00
   13    7    6      3.74      0.00
   13    7    7      1.07      0.00
   13    7    8      0.57      0.00
   13    7    9     -5.15      0.00
  -13    9   10      0.15      0.00
  -13    9    9     -1.09      0.00
  -13    9    8      3.40      0.00
  -13    9    7      0.86      0.00
  -13    9    6     -5.39      0.00
  -13    9    5     -8.28      0.00
  -13    9    4     -1.60      0.00
  -13    9    3      0.00      0.00
  -13    9    2     -6.05      0.00
  -13    9    1      1.46      0.00
   13    9    0     -3.27      0.00
   13    9    1      6.08      0.00
   13    9    2      3.18      0.00
   13    9    3      1.21      0.00
   13    9    4     -4.37      0.00
   13    9    5     -2.17      0.00
   13    9    6     -0.41      0.00
   13    9    7     -2.15      0.00
   13    9    8      0.93      0.00
   13    9    9     -0.92      0.00
  -13   11   10      0.18      0.00
  -13   11    9     -3.18      0.00
  -13   11    8      0.75      0.00
  -13   11    7      1.89      0.00
  -13   11    6     -0.26      0.00
  -13   11    5      0.25      0.00
  -13   11    4      1.57      0.00
  -13   11    3      1.64      0.00
  -13   11    2     -3.42      0.00
  -13   11    1      4.59      0.00
   13   11    0     -0.58      0.00
   13   11    1      3.94      0.00
   13   11    2      0.68      0.00
   13   11    3     -1.92      0.00
   13   11    4     -2.36      0.00
   13   11    5      0.36      0.00
   13   11    6      5.38      0.00
   13   11    7      1.80      0.00
   13   11    8     -0.23      0.00
  -13   13    9     -2.98      0.00
  -13   13    8     -3.43      0.00
  -13   13    7     -2.08      0.00
  -13   13    6     -0.81      0.00
  -13   13    5      1.29      0.00
  -13   13    4      5.50      0.00
  -13   13    3      6.20      0.00
  -13   13    2     -0.95      0.00
  -13   13    1     -2.84      0.00
   13   13    0    -10.41      0.00
   13   13    1     -2.70      0.00
   13   13    2      1.84      0.00
   13   13    3      6.88      0.00
   13   13    4      9.77      0.00
   13   13    5      0.50      0.00
   13   13    6     -2.29      0.00
   13   13    7     -4.38      0.00
   13   13    8     -1.76      0.00
  -13   15    8      0.36      0.00
  -13   15    7      2.32      0.00
  -13   15    6      2.67      0.00
  -13   15    5     -1.80      0.00
  -13   15    4     -1.29      0.00
  -13   15    3     -1.15      0.00
  -13   15    2      1.34      0.00
  -13   15    1      2.54      0.00
   13   15    0     -3.10      0.00
   13   15    1      1.25      0.00
   13   15    2     -2.54      0.00
   13   15    3     -2.14      0.00
   13   15    4      1.81      0.00
   13   15    5     -3.36      0.00
   13   15    6      0.05      0.00
   13   15    7      1.13      0.00
  -13   17    7      2.48      0.00
  -13   17    6     -0.61      0.00
  -13   17    5     -5.07      0.00
  -13   17    4     -2.43      0.00
  -13   17    3     -2.58      0.00
  -13   17    2      1.88      0.00
  -13   17    1      5.44      0.00
   13   17    0      1.93      0.00
   13   17    1      2.52      0.00
   13   17    2     -2.10      0.00
   13   17    3     -0.61      0.00
   13   17    4      1.23      0.00
   13   17    5     -4.49      0.00
   13   17    6     -2.06      0.00
  -13   19    6     -0.60      0.00
  -13   19    5     -1.11      0.00
  -13   19    4      0.67      0.00
  -13   19    3     -0.94      0.00
  -13   19    2     -2.15      0.00
  -13   19    1     -0.55      0.00
   13   19    0      1.03      0.00
   13   19    1      0.79      0.00
   13   19    2     -0.28      0.00
   13   19    3      0.55      0.00
   13   19    4     -1.02      0.00
   13   19    5     -4.73      0.00
  -13   21    4      1.79      0.00
  -13   21    3      1.10      0.00
  -13   21    2     -1.28      0.00
  -13   21    1     -2.41      0.00
   13   21    0     -1.34      0.00
   13   21    1     -4.76      0.00
   13   21    2     -0.63      0.00
   13   21    3      2.25      0.00
  -14    0   10      2.88      0.00
  -14    0    9      8.72      0.00
  -14    0    8      4.62      0.00
  -14    0    7      5.31      0.00
  -14    0    6     11.90      0.00
  -14    0    5     -0.57      0.00
  -14    0    4    -21.16      0.00
  -14    0    3      4.58      0.00
  -14    0    2     16.40      0.00
  -14    0    1     17.26      0.00
   14    0    0     10.47      0.00
   14    0    1     -4.51      0.00
   14    0    2     -4.16      0.00
   14    0    3    -13.13      0.00
   14    0    4     -6.83      0.00
   14    0    5      0.05      0.00
   14    0    6      8.05      0.00
   14    0    7      3.91      0.00
   14    0    8      1.61      0.00
   14    0    9     -4.28      0.00
  -14    2   10      3.37      0.00
  -14    2    9      1.99      0.00
  -14    2    8     -3.32      0.00
  -14    2    7     -4.66      0.00
  -14    2    6      2.34      0.00
  -14    2    5      1.19      0.00
  -14    2    4     -4.48      0.00
  -14    2    3      8.60      0.00
  -14    2    2      2.30      0.00
  -14    2    1      1.31      0.00
   14    2    0      0.69      0.00
   14    2    1     -3.24      0.00
   14    2    2      5.83      0.00
   14    2    3      5.01      0.00
   14    2    4      3.97      0.00
   14    2    5     -1.08      0.00
   14    2    6     -1.64      0.00
   14    2    7     -3.67      0.00
   14    2    8     -0.58      0.00
   14    2    9      0.14      0.00
  -14    4   10      0.42      0.00
  -14    4    9     -2.37      0.00
  -14    4    8     -0.59      0.00
  -14    4    7     -1.42      0.00
  -14    4    6      3.96      0.00
  -14    4    5      4.62      0.00
  -14    4    4      5.80      0.00
  -14    4    3      0.02      0.00
  -14    4    2    -15.13      0.00
  -14    4    1     -2.95      0.00
   14    4    0      4.16      0.00
   14    4    1      2.47      0.00
   14    4    2      0.85      0.00
   14    4    3      0.26      0.00
   14    4    4     -1.87      0.00
   14    4    5     -0.67      0.00
   14    4    6      0.46      0.00
   14    4    7      1.03      0.00
   14    4    8     -0.61      0.00
   14    4    9     -2.94      0.00
  -14    6   10     -2.24      0.00
  -14    6    9      0.06      0.00
  -14    6    8      2.23      0.00
  -14    6    7     -5.54      0.00
  -14    6    6     -2.70      0.00
  -14    6    5     -0.31      0.00
  -14    6    4      7.40      0.00
  -14    6    3      1.87      0.00
  -14    6    2    -10.42      0.00
  -14    6    1     -2.48      0.00
   14    6    0     -5.73      0.00
   14    6    1      0.31      0.00
   14    6    2      2.86      0.00
   14    6    3      5.04      0.00
   14    6    4      0.86      0.00
   14    6    5      1.66      0.00
   14    6    6     -3.16      0.00
   14    6    7     -2.33      0.00
   14    6    8     -0.19      0.00
   14    6    9      1.84      0.00
  -14    8   10     -2.30      0.00
  -14    8    9      2.38      0.00
  -14    8    8      5.34      0.00
  -14    8    7     -2.39      0.00
  -14    8    6     -4.68      0.00
  -14    8    5     -2.04      0.00
  -14    8    4      5.69      0.00
  -14    8    3      2.72      0.00
  -14    8    2     -0.11      0.00
  -14    8    1     10.00      0.00
   14    8    0      0.74      0.00
   14    8    1      3.51      0.00
   14    8    2     -2.36      0.00
   14    8    3     -6.24      0.00
   14    8    4     -6.12      0.00
   14    8    5      3.68      0.00
   14    8    6      4.54      0.00
   14    8    7      3.17      0.00
   14    8    8      1.92      0.00
  -14   10   10     -1.11      0.00
  -14   10    9      0.96      0.00
  -14   10    8      3.10      0.00
  -14   10    7      0.39      0.00
  -14   10    6     -4.83      0.00
  -14   10    5     -0.65      0.00
  -14   10    4      4.16      0.00
  -14   10    3      0.69      0.00
  -14   10    2     -1.82      0.00
  -14   10    1      5.19      0.00
   14   10    0     -3.13      0.00
   14   10    1      1.38      0.00
   14   10    2     -1.09      0.00
   14   10    3     -0.86      0.00
   14   10    4      1.05      0.00
   14   10    5      4.23      0.00
   14   10    6      2.24      0.00
   14   10    7     -1.72      0.00
   14   10    8      0.94      0.00
  -14   12    9     -4.27      0.00
  -14   12    8     -1.57      0.00
  -14   12    7      1.22      0.00
  -14   12    6     -0.11      0.00
  -14   12    5      4.18      0.00
  -14   12    4      1.96      0.00
  -14   12    3     -2.32      0.00
  -14   12    2     -6.54      0.00
  -14   12    1     -4.70      0.00
   14   12    0     -9.22      0.00
   14   12    1      0.96      0.00
   14   12    2      3.74      0.00
   14   12    3      3.16      0.00
   14   12    4      0.40      0.00
   14   12    5     -2.24      0.00
   14   12    6     -1.39      0.00
   14   12    7     -2.95      0.00
   14   12    8      3.14      0.00
  -14   14    8      0.44      0.00
  -14   14    7      1.33      0.00
  -14   14    6      0.62      0.00
  -14   14    5      3.40      0.00
  -14   14    4      0.66      0.00
  -14   14    3     -1.15      0.00
  -14   14    2     -1.72      0.00
  -14   14    1      2.60      0.00
   14   14    0     -1.26      0.00
   14   14    1      3.18      0.00
   14   14    2      1.59      0.00
   14   14    3      0.78      0.00
   14   14    4     -0.36      0.00
   14   14    5     -2.37      0.00
   14   14    6      1.17      0.00
   14   14    7     -2.05      0.00
  -14   16    8      2.48      0.00
  -14   16    7     -0.25      0.00
  -14   16    6     -2.16      0.00
  -14   16    5     -1.92      0.00
  -14   16    4     -0.45      0.00
  -14   16    3      1.22      0.00
  -14   16    2      0.74      0.00
  -14   16    1      2.94      0.00
   14   16    0     -0.34      0.00
   14   16    1      0.53      0.00
   14   16    2     -2.85      0.00
   14   16    3     -0.45      0.00
   14   16    4      0.46      0.00
   14   16    5     -3.08      0.00
   14   16    6      0.96      0.00
  -14   18    6     -0.13      0.00
  -14   18    5     -1.83      0.00
  -14   18    4     -1.35      0.00
  -14   18    3      1.67      0.00
  -14   18    2      2.57      0.00
  -14   18    1      2.17      0.00
   14   18    0      0.77      0.00
   14   18    1      0.92      0.00
   14   18    2     -2.94      0.00
   14   18    3     -2.17      0.00
   14   18    4      0.35      0.00
   14   18    5      0.45      0.00
  -14   20    5      2.03      0.00
  -14   20    4      1.87      0.00
  -14   20    3      1.84      0.00
  -14   20    2     -0.12      0.00
  -14   20    1     -3.40      0.00
   14   20    0     -4.70      0.00
   14   20    1     -2.13      0.00
   14   20    2      2.40      0.00
   14   20    3      4.19      0.00
   14   20    4      4.41      0.00
  -14   22    2     -2.29      0.00
   14   22    0     -1.09      0.00
   14   22    1      1.24      0.00
  -15    1   10     -4.00      0.00
  -15    1    9      0.00      0.00
  -15    1    8     -3.57      0.00
  -15    1    7     -5.36      0.00
  -15    1    6     -6.96      0.00
  -15    1    5      0.02      0.00
  -15    1    4      4.42      0.00
  -15    1    3     -2.13      0.00
  -15    1    2     -7.45      0.00
  -15    1    1     22.98      0.00
   15    1    0      3.78      0.00
   15    1    1    -20.92      0.00
   15    1    2     -6.55      0.00
   15    1    3      1.98      0.00
   15    1    4      5.21      0.00
   15    1    5      2.32      0.00
   15    1    6      1.74      0.00
   15    1    7     -3.42      0.00
   15    1    8     -0.36      0.00
   15    1    9      0.52      0.00
  -15    3   10     -4.69      0.00
  -15    3    9      1.98      0.00
  -15    3    8      1.62      0.00
  -15    3    7      4.44      0.00
  -15    3    6      4.59      0.00
  -15    3    5      0.24      0.00
  -15    3    4     -2.89      0.00
  -15    3    3     -7.00      0.00
  -15    3    2     -8.71      0.00
  -15    3    1     12.11      0.00
   15    3    0      4.65      0.00
   15    3    1     -4.69      0.00
   15    3    2     -0.34      0.00
   15    3    3     -1.44      0.00
   15    3    4     -0.22      0.00
   15    3    5     -0.05      0.00
   15    3    6     -0.78      0.00
   15    3    7      1.10      0.00
   15    3    8      3.44      0.00
   15    3    9     -0.48      0.00
  -15    5   10     -1.71      0.00
  -15    5    9      0.21      0.00
  -15    5    8     -0.72      0.00
  -15    5    7     -0.41      0.00
  -15    5    6      1.34      0.00
  -15    5    5      2.46      0.00
  -15    5    4      3.26      0.00
  -15    5    3     -4.41      0.00
  -15    5    2     -6.26      0.00
  -15    5    1      1.92      0.00
   15    5    0      2.01      0.00
   15    5    1      5.61      0.00
   15    5    2      4.34      0.00
   15    5    3      2.49      0.00
   15    5    4     -0.41      0.00
   15    5    5     -1.86      0.00
   15    5    6     -6.99      0.00
   15    5    7     -0.21      0.00
   15    5    8      2.93      0.00
   15    5    9      0.05      0.00
  -15    7   10      1.91      0.00
  -15    7    9      2.74      0.00
  -15    7    8      2.99      0.00
  -15    7    7     -1.68      0.00
  -15    7    6     -2.21      0.00
  -15    7    5      1.97      0.00
  -15    7    4      4.23      0.00
  -15    7    3     -5.16      0.00
  -15    7    2     -1.52      0.00
  -15    7    1      4.53      0.00
   15    7    0      3.05      0.00
   15    7    1      1.55      0.00
   15    7    2     -8.74      0.00
   15    7    3     -4.85      0.00
   15    7    4     -1.07      0.00
   15    7    5      5.34      0.00
   15    7    6      0.29      0.00
   15    7    7      2.59      0.00
   15    7    8     -1.04      0.00
  -15    9   10      1.34      0.00
  -15    9    9      1.63      0.00
  -15    9    8     -0.64      0.00
  -15    9    7     -8.57      0.00
  -15    9    6     -6.88      0.00
  -15    9    5     -0.29      0.00
  -15    9    4      5.05      0.00
  -15    9    3      1.97      0.00
  -15    9    2      3.18      0.00
  -15    9    1     -0.01      0.00
   15    9    0     -6.21      0.00
   15    9    1     -0.78      0.00
   15    9    2     -3.77      0.00
   15    9    3      1.87      0.00
   15    9    4      2.01      0.00
   15    9    5      3.36      0.00
   15    9    6     -4.05      0.00
   15    9    7     -4.35      0.00
   15    9    8     -3.45      0.00
  -15   11    9     -0.13      0.00
  -15   11    8      2.68      0.00
  -15   11    7     -0.76      0.00
  -15   11    6      0.35      0.00
  -15   11    5      2.82      0.00
  -15   11    4      0.10      0.00
  -15   11    3     -4.11      0.00
  -15   11    2     -0.34      0.00
  -15   11    1      4.33      0.00
   15   11    0      2.93      0.00
   15   11    1      7.79      0.00
   15   11    2     -1.17      0.00
   15   11    3     -4.65      0.00
   15   11    4     -5.67      0.00
   15   11    5      0.33      0.00
   15   11    6      2.93      0.00
   15   11    7      1.30      0.00
   15   11    8     -1.58      0.00
  -15   13    8      3.25      0.00
  -15   13    7      2.13      0.00
  -15   13    6     -0.84      0.00
  -15   13    5      3.40      0.00
  -15   13    4      1.77      0.00
  -15   13    3     -3.58      0.00
  -15   13    2     -3.47      0.00
  -15   13    1     -1.59      0.00
   15   13    0     -1.05      0.00
   15   13    1      5.64      0.00
   15   13    2      3.78      0.00
   15   13    3      6.24      0.00
   15   13    4      1.23      0.00
   15   13    5     -3.86      0.00
   15   13    6     -3.45      0.00
   15   13    7     -3.14      0.00
  -15   15    8      1.70      0.00
  -15   15    7      1.95      0.00
  -15   15    6     -2.32      0.00
  -15   15    5      1.06      0.00
  -15   15    4      0.47      0.00
  -15   15    3     -1.79      0.00
  -15   15    2      0.67      0.00
  -15   15    1     -1.56      0.00
   15   15    0     -1.74      0.00
   15   15    1      0.78      0.00
   15   15    2     -3.18      0.00
   15   15    3      0.51      0.00
   15   15    4     -2.11      0.00
   15   15    5     -2.08      0.00
   15   15    6      3.04      0.00
  -15   17    7     -3.22      0.00
  -15   17    6     -5.60      0.00
  -15   17    5     -0.37      0.00
  -15   17    4      2.64      0.00
  -15   17    3      2.78      0.00
  -15   17    2      6.94      0.00
  -15   17    1      1.57      0.00
   15   17    0     -3.95      0.00
   15   17    1     -4.12      0.00
   15   17    2     -3.83      0.00
   15   17    3      2.33      0.00
   15   17    4     -0.06      0.00
   15   17    5      0.47      0.00
  -15   19    5     -0.23      0.00
  -15   19    4     -0.36      0.00
  -15   19    3     -3.11      0.00
  -15   19    2     -0.75      0.00
  -15   19    1      0.40      0.00
   15   19    0     -0.18      0.00
   15   19    1      0.34      0.00
   15   19    2      1.50      0.00
   15   19    3      1.05      0.00
   15   19    4     -4.78      0.00
  -15   21    3     -3.80      0.00
  -15   21    2     -2.47      0.00
  -15   21    1      0.33      0.00
   15   21    0      0.01      0.00
   15   21    1     -0.02      0.00
   15   21    2      2.96      0.00
  -16    0   10      3.46      0.00
  -16    0    9     -0.31      0.00
  -16    0    8     -0.96      0.00
  -16    0    7      8.18      0.00
  -16    0    6      5.38      0.00
  -16    0    5     -7.68      0.00
  -16    0    4     -1.88      0.00
  -16    0    3     12.14      0.00
  -16    0    2     -2.30      0.00
  -16    0    1     -2.48      0.00
   16    0    0    -10.86      0.00
   16    0    1     -4.27      0.00
   16    0    2      0.15      0.00
   16    0    3     -4.71      0.00
   16    0    4      2.92      0.00
   16    0    5      1.96      0.00
   16    0    6      4.69      0.00
   16    0    7      0.56      0.00
   16    0    8      2.84      0.00
   16    0    9     -4.83      0.00
  -16    2   10      2.48      0.00
  -16    2    9     -1.15      0.00
  -16    2    8     -3.35      0.00
  -16    2    7     -0.77      0.00
  -16    2    6     -0.87      0.00
  -16    2    5     -5.06      0.00
  -16    2    4      1.72      0.00
  -16    2    3      7.88      0.00
  -16    2    2     -1.26      0.00
  -16    2    1     -0.10      0.00
   16    2    0    -10.14      0.00
   16    2    1     -4.26      0.00
   16    2    2      5.18      0.00
   16    2    3      3.53      0.00
   16    2    4      2.97      0.00
   16    2    5     -2.72      0.00
   16    2    6     -2.94      0.00
   16    2    7     -4.32      0.00
   16    2    8      1.41      0.00
   16    2    9      0.58      0.00
  -16    4   10     -1.51      0.00
  -16    4    9      0.98      0.00
  -16    4    8      2.33      0.00
  -16    4    7      1.57      0.00
  -16    4    6      4.10      0.00
  -16    4    5     -0.51      0.00
  -16    4    4     -2.45      0.00
  -16    4    3    -10.27      0.00
  -16    4    2     -2.42      0.00
  -16    4    1     11.17      0.00
   16    4    0      4.88      0.00
   16    4    1      0.90      0.00
   16    4    2     -1.45      0.00
   16    4    3     -4.33      0.00
   16    4    4     -6.86      0.00
   16    4    5     -1.89      0.00
   16    4    6      2.54      0.00
   16    4    7      3.14      0.00
   16    4    8      0.61      0.00
   16    4    9     -2.13      0.00
  -16    6   10     -2.50      0.00
  -16    6    9      1.94      0.00
  -16    6    8     -2.13      0.00
  -16    6    7     -4.78      0.00
  -16    6    6      2.63      0.00
  -16    6    5      0.88      0.00
  -16    6    4      2.59      0.00
  -16    6    3     -7.32      0.00
  -16    6    2     -0.85      0.00
  -16    6    1      2.04      0.00
   16    6    0     -2.13      0.00
   16    6    1      1.76      0.00
   16    6    2      0.45      0.00
   16    6    3      3.94      0.00
   16    6    4      0.46      0.00
   16    6    5      1.10      0.00
   16    6    6     -4.35      0.00
   16    6    7     -2.49      0.00
   16    6    8     -1.21      0.00
  -16    8   10     -2.10      0.00
  -16    8    9      1.07      0.00
  -16    8    8     -5.10      0.00
  -16    8    7     -7.06      0.00
  -16    8    6      3.10      0.00
  -16    8    5      5.77      0.00
  -16    8    4      4.19      0.00
  -16    8    3     -4.05      0.00
  -16    8    2      1.22      0.00
  -16    8    1     -0.15      0.00
   16    8    0     -2.35      0.00
   16    8    1      2.86      0.00
   16    8    2     -6.05      0.00
   16    8    3     -2.75      0.00
   16    8    4     -0.74      0.00
   16    8    5      4.74      0.00
   16    8    6     -0.56      0.00
   16    8    7      1.29      0.00
   16    8    8      0.58      0.00
  -16   10    9      1.93      0.00
  -16   10    8     -0.30      0.00
  -16   10    7     -3.77      0.00
  -16   10    6      0.79      0.00
  -16   10    5      5.70      0.00
  -16   10    4      0.86      0.00
  -16   10    3     -2.00      0.00
  -16   10    2      0.98      0.00
  -16   10    1     -1.03      0.00
   16   10    0     -3.40      0.00
   16   10    1      1.97      0.00
   16   10    2     -4.04      0.00
   16   10    3      3.07      0.00
   16   10    4      5.16      0.00
   16   10    5      4.80      0.00
   16   10    6     -2.74      0.00
   16   10    7     -1.27      0.00
   16   10    8     -0.25      0.00
  -16   12    9     -0.64      0.00
  -16   12    8      1.88      0.00
  -16   12    7      0.01      0.00
  -16   12    6      0.35      0.00
  -16   12    5      0.11      0.00
  -16   12    4     -6.15      0.00
  -16   12    3     -3.04      0.00
  -16   12    2     -1.12      0.00
  -16   12    1     -1.08      0.00
   16   12    0     -0.37      0.00
   16   12    1      6.37      0.00
   16   12    2     -0.59      0.00
   16   12    3     -0.36      0.00
   16   12    4     -2.64      0.00
   16   12    5     -2.00      0.00
   16   12    6     -0.90      0.00
   16   12    7      2.84      0.00
  -16   14    8      2.85      0.00
  -16   14    7      0.74      0.00
  -16   14    6      1.82      0.00
  -16   14    5     -0.05      0.00
  -16   14    4     -4.20      0.00
  -16   14    3     -1.00      0.00
  -16   14    2      2.83      0.00
  -16   14    1      4.05      0.00
   16   14    0      1.31      0.00
   16   14    1      4.25      0.00
   16   14    2     -2.03      0.00
   16   14    3     -2.57      0.00
   16   14    4     -4.23      0.00
   16   14    5     -0.82      0.00
   16   14    6      2.59      0.00
  -16   16    7     -1.91      0.00
  -16   16    6      0.06      0.00
  -16   16    5      1.98      0.00
  -16   16    4      2.47      0.00
  -16   16    3     -0.38      0.00
  -16   16    2     -0.72      0.00
  -16   16    1     -1.10      0.00
   16   16    0     -4.80      0.00
   16   16    1     -2.41      0.00
   16   16    2     -1.14      0.00
   16   16    3      3.61      0.00
   16   16    4      0.66      0.00
   16   16    5     -0.36      0.00
  -16   18    6      1.30      0.00
  -16   18    5      2.54      0.00
  -16   18    4      3.33      0.00
  -16   18    3      0.53      0.00
  -16   18    2     -0.83      0.00
  -16   18    1     -0.71      0.00
   16   18    0     -0.91      0.00
   16   18    1     -0.41      0.00
   16   18    2     -1.80      0.00
   16   18    3      0.18      0.00
   16   18    4      0.10      0.00
  -16   20    4     -0.25      0.00
  -16   20    3      0.41      0.00
  -16   20    2      0.45      0.00
  -16   20    1     -0.70      0.00
   16   20    0      0.42      0.00
   16   20    1      2.64      0.00
   16   20    2      1.80      0.00
  -17    1   10      0.22      0.00
  -17    1    9      0.76      0.00
  -17    1    8     -1.18      0.00
  -17    1    7     -2.51      0.00
  -17    1    6      1.61      0.00
  -17    1    5      7.28      0.00
  -17    1    4      2.32      0.00
  -17    1    3      1.92      0.00
  -17    1    2      7.46      0.00
  -17    1    1      6.84      0.00
   17    1    0    -21.07      0.00
   17    1    1     -1.54      0.00
   17    1    2     10.19      0.00
   17    1    3      4.55      0.00
   17    1    4      0.54      0.00
   17    1    5     -1.72      0.00
   17    1    6     -3.21      0.00
   17    1    7     -3.79      0.00
   17    1    8      2.84      0.00
  -17    3   10      1.72      0.00
  -17    3    9      3.27      0.00
  -17    3    8      4.00      0.00
  -17    3    7      2.60      0.00
  -17    3    6      0.63      0.00
  -17    3    5     -3.28      0.00
  -17    3    4     -4.64      0.00
  -17    3    3     -1.98      0.00
  -17    3    2      4.22      0.00
  -17    3    1      7.66      0.00
   17    3    0     -7.89      0.00
   17    3    1      1.86      0.00
   17    3    2      0.55      0.00
   17    3    3     -1.62      0.00
   17    3    4     -0.02      0.00
   17    3    5      1.09      0.00
   17    3    6      1.72      0.00
   17    3    7      2.37      0.00
   17    3    8      1.43      0.00
  -17    5   10      3.11      0.00
  -17    5    9      2.40      0.00
  -17    5    8      0.57      0.00
  -17    5    7     -3.49      0.00
  -17    5    6     -0.75      0.00
  -17    5    5     -3.79      0.00
  -17    5    4     -4.50      0.00
  -17    5    3     -1.26      0.00
  -17    5    2      5.01      0.00
  -17    5    1      5.56      0.00
   17    5    0     -1.83      0.00
   17    5    1     -0.15      0.00
   17    5    2     -4.86      0.00
   17    5    3     -1.58      0.00
   17    5    4     -1.16      0.00
   17    5    5     -1.80      0.00
   17    5    6     -1.89      0.00
   17    5    7      2.46      0.00
   17    5    8     -0.46      0.00
  -17    7    9      2.62      0.00
  -17    7    8      1.22      0.00
  -17    7    7     -0.51      0.00
  -17    7    6      7.00      0.00
  -17    7    5      3.97      0.00
  -17    7    4     -3.14      0.00
  -17    7    3     -4.63      0.00
  -17    7    2      0.94      0.00
  -17    7    1      0.86      0.00
   17    7    0     -0.18      0.00
   17    7    1     -2.74      0.00
   17    7    2     -5.44      0.00
   17    7    3      2.62      0.00
   17    7    4      2.26      0.00
   17    7    5      1.86      0.00
   17    7    6      0.42      0.00
   17    7    7      4.12      0.00
   17    7    8     -0.88      0.00
  -17    9    9     -0.28      0.00
  -17    9    8     -4.68      0.00
  -17    9    7     -2.71      0.00
  -17    9    6      4.52      0.00
  -17    9    5      4.29      0.00
  -17    9    4      2.22      0.00
  -17    9    3      2.09      0.00
  -17    9    2     -0.05      0.00
  -17    9    1     -6.71      0.00
   17    9    0     -4.18      0.00
   17    9    1     -0.15      0.00
   17    9    2      2.21      0.00
   17    9    3      9.69      0.00
   17    9    4      3.98      0.00
   17    9    5     -1.89      0.00
   17    9    6     -7.13      0.00
   17    9    7     -3.93      0.00
  -17   11    9      2.55      0.00
  -17   11    8     -0.34      0.00
  -17   11    7      1.38      0.00
  -17   11    6      4.23      0.00
  -17   11    5      1.85      0.00
  -17   11    4     -4.53      0.00
  -17   11    3     -0.93      0.00
  -17   11    2      2.90      0.00
  -17   11    1      2.70      0.00
   17   11    0      4.35      0.00
   17   11    1      2.10      0.00
   17   11    2     -6.60      0.00
   17   11    3     -6.34      0.00
   17   11    4     -5.96      0.00
   17   11    5      0.80      0.00
   17   11    6      3.37      0.00
   17   11    7      1.43      0.00
  -17   13    8      3.07      0.00
  -17   13    7     -2.56      0.00
  -17   13    6     -1.84      0.00
  -17   13    5      2.06      0.00
  -17   13    4     -4.60      0.00
  -17   13    3      0.24      0.00
  -17   13    2      3.30      0.00
  -17   13    1      2.68      0.00
   17   13    0      0.78      0.00
   17   13    1     -0.61      0.00
   17   13    2     -2.26      0.00
   17   13    3      1.15      0.00
   17   13    4     -1.04      0.00
   17   13    5     -0.11      0.00
   17   13    6     -0.66      0.00
  -17   15    7     -2.08      0.00
  -17   15    6     -0.08      0.00
  -17   15    5      4.08      0.00
  -17   15    4     -3.49      0.00
  -17   15    3     -0.73      0.00
  -17   15    2     -1.60      0.00
  -17   15    1     -3.29      0.00
   17   15    0     -0.35      0.00
   17   15    1      0.96      0.00
   17   15    2     -0.47      0.00
   17   15    3      0.27      0.00
   17   15    4     -2.54      0.00
   17   15    5      1.21      0.00
  -17   17    6      0.22      0.00
  -17   17    5      2.67      0.00
  -17   17    4     -1.32      0.00
  -17   17    3      2.38      0.00
  -17   17    2      1.47      0.00
  -17   17    1     -5.50      0.00
   17   17    0     -3.93      0.00
   17   17    1      0.35      0.00
   17   17    2      2.81      0.00
   17   17    3      5.01      0.00
   17   17    4      2.53      0.00
  -17   19    4     -3.13      0.00
  -17   19    3     -1.96      0.00
  -17   19    2      0.51      0.00
  -17   19    1     -1.56      0.00
   17   19    0     -0.17      0.00
   17   19    1      2.73      0.00
   17   19    2      2.26      0.00
  -18    0   10     -3.72      0.00
  -18    0    9     -4.52      0.00
  -18    0    8      4.65      0.00
  -18    0    7      5.57      0.00
  -18    0    6     -1.76      0.00
  -18    0    5     -3.38      0.00
  -18    0    4     -0.49      0.00
  -18    0    3     -7.54      0.00
  -18    0    2    -17.85      0.00
  -18    0    1     -4.49      0.00
   18    0    0     -3.01      0.00
   18    0    1     15.90      0.00
   18    0    2      0.29      0.00
   18    0    3      1.56      0.00
   18    0    4      0.65      0.00
   18    0    5     -0.20      0.00
   18    0    6      3.17      0.00
   18    0    7      4.00      0.00
   18    0    8      4.99      0.00
  -18    2   10      0.21      0.00
  -18    2    9     -1.51      0.00
  -18    2    8     -0.41      0.00
  -18    2    7     -2.74      0.00
  -18    2    6     -3.96      0.00
  -18    2    5     -1.48      0.00
  -18    2    4      3.57      0.00
  -18    2    3      2.41      0.00
  -18    2    2     -4.62      0.00
  -18    2    1     -3.41      0.00
   18    2    0    -10.15      0.00
   18    2    1      6.88      0.00
   18    2    2     -0.03      0.00
   18    2    3      2.17      0.00
   18    2    4      0.36      0.00
   18    2    5     -1.86      0.00
   18    2    6     -2.76      0.00
   18    2    7     -2.07      0.00
   18    2    8      2.67      0.00
  -18    4   10      1.35      0.00
  -18    4    9      1.56      0.00
  -18    4    8     -1.10      0.00
  -18    4    7     -1.17      0.00
  -18    4    6      1.61      0.00
  -18    4    5      0.00      0.00
  -18    4    4     -0.45      0.00
  -18    4    3      1.87      0.00
  -18    4    2      8.09      0.00
  -18    4    1      4.90      0.00
   18    4    0     -3.78      0.00
   18    4    1      0.90      0.00
   18    4    2     -4.50      0.00
   18    4    3     -5.34      0.00
   18    4    4     -3.18      0.00
   18    4    5      4.14      0.00
   18    4    6      4.63      0.00
   18    4    7      3.43      0.00
   18    4    8      1.02      0.00
  -18    6    9     -0.37      0.00
  -18    6    8     -3.80      0.00
  -18    6    7      0.33      0.00
  -18    6    6      1.81      0.00
  -18    6    5     -1.72      0.00
  -18    6    4      0.11      0.00
  -18    6    3      1.01      0.00
  -18    6    2      6.59      0.00
  -18    6    1     -1.47      0.00
   18    6    0     -2.13      0.00
   18    6    1     -0.21      0.00
   18    6    2      2.62      0.00
   18    6    3      5.45      0.00
   18    6    4      1.90      0.00
   18    6    5      0.79      0.00
   18    6    6     -4.50      0.00
   18    6    7     -1.61      0.00
   18    6    8     -0.60      0.00
  -18    8    9     -3.34      0.00
  -18    8    8     -4.95      0.00
  -18    8    7      2.85      0.00
  -18    8    6      6.60      0.00
  -18    8    5     -2.18      0.00
  -18    8    4     -5.95      0.00
  -18    8    3     -5.78      0.00
  -18    8    2     -0.21      0.00
  -18    8    1     -2.46      0.00
   18    8    0      5.05      0.00
   18    8    1      0.65      0.00
   18    8    2     -2.07      0.00
   18    8    3     -0.23      0.00
   18    8    4     -4.24      0.00
   18    8    5     -3.26      0.00
   18    8    6     -3.13      0.00
   18    8    7      3.39      0.00
  -18   10    9      0.72      0.00
  -18   10    8     -1.35      0.00
  -18   10    7     -0.01      0.00
  -18   10    6      4.60      0.00
  -18   10    5     -1.66      0.00
  -18   10    4     -4.18      0.00
  -18   10    3     -1.16      0.00
  -18   10    2     -0.63      0.00
  -18   10    1     -2.26      0.00
   18   10    0      2.79      0.00
   18   10    1     -2.40      0.00
   18   10    2     -1.88      0.00
   18   10    3      6.21      0.00
   18   10    4      2.90      0.00
   18   10    5     -0.77      0.00
   18   10    6     -3.81      0.00
   18   10    7     -0.75      0.00
  -18   12    8     -1.28      0.00
  -18   12    7     -2.86      0.00
  -18   12    6     -1.57      0.00
  -18   12    5     -4.40      0.00
  -18   12    4     -0.81      0.00
  -18   12    3      4.50      0.00
  -18   12    2      0.41      0.00
  -18   12    1     -2.05      0.00
   18   12    0      2.03      0.00
   18   12    1     -0.83      0.00
   18   12    2     -3.73      0.00
   18   12    3      1.68      0.00
   18   12    4      0.04      0.00
   18   12    5      1.30      0.00
   18   12    6      1.60      0.00
  -18   14    7      1.50      0.00
  -18   14    6     -0.03      0.00
  -18   14    5     -4.54      0.00
  -18   14    4     -1.79      0.00
  -18   14    3      4.10      0.00
  -18   14    2      4.46      0.00
  -18   14    1      0.27      0.00
   18   14    0      1.03      0.00
   18   14    1      0.26      0.00
   18   14    2     -4.09      0.00
   18   14    3     -1.16      0.00
   18   14    4     -0.80      0.00
   18   14    5      4.01      0.00
  -18   16    6      2.52      0.00
  -18   16    5     -0.02      0.00
  -18   16    4     -2.66      0.00
  -18   16    3     -4.07      0.00
  -18   16    2     -0.75      0.00
  -18   16    1     -3.14      0.00
   18   16    0     -1.88      0.00
   18   16    1      2.65      0.00
   18   16    2      3.16      0.00
   18   16    3      3.39      0.00
   18   16    4     -1.61      0.00
  -18   18    4      0.80      0.00
  -18   18    3     -2.93      0.00
  -18   18    2     -0.63      0.00
  -18   18    1     -0.39      0.00
   18   18    0      0.77      0.00
   18   18    1      1.43      0.00
   18   18    2     -1.20      0.00
   18   18    3     -1.95      0.00
  -18   20    2      1.95      0.00
  -18   20    1      0.62      0.00
  -19    1   10      5.52      0.00
  -19    1    9      1.58      0.00
  -19    1    8      1.06      0.00
  -19    1    7     -0.40      0.00
  -19    1    6      5.43      0.00
  -19    1    5     -0.04      0.00
  -19    1    4      0.14      0.00
  -19    1    3      4.91      0.00
  -19    1    2      2.64      0.00
  -19    1    1     -5.13      0.00
   19    1    0     -3.18      0.00
   19    1    1     18.43      0.00
   19    1    2     -0.86      0.00
   19    1    3     -5.56      0.00
   19    1    4     -4.01      0.00
   19    1    5     -3.11      0.00
   19    1    6     -0.89      0.00
   19    1    7      1.13      0.00
   19    1    8      2.13      0.00
  -19    3   10      3.43      0.00
  -19    3    9     -0.69      0.00
  -19    3    8      1.12      0.00
  -19    3    7     -2.10      0.00
  -19    3    6      1.11      0.00
  -19    3    5     -3.55      0.00
  -19    3    4      0.78      0.00
  -19    3    3      0.66      0.00
  -19    3    2      0.84      0.00
  -19    3    1     -5.77      0.00
   19    3    0     -3.80      0.00
   19    3    1      8.41      0.00
   19    3    2     -1.45      0.00
   19    3    3      3.04      0.00
   19    3    4      3.59      0.00
   19    3    5      2.55      0.00
   19    3    6      1.34      0.00
   19    3    7      0.89      0.00
   19    3    8      0.00      0.00
  -19    5    9     -1.95      0.00
  -19    5    8     -3.59      0.00
  -19    5    7     -5.77      0.00
  -19    5    6      0.10      0.00
  -19    5    5     -6.37      0.00
  -19    5    4      1.98      0.00
  -19    5    3      2.73      0.00
  -19    5    2      4.13      0.00
  -19    5    1     -5.77      0.00
   19    5    0     -5.92      0.00
   19    5    1     -3.16      0.00
   19    5    2     -3.14      0.00
   19    5    3      3.72      0.00
   19    5    4      0.59      0.00
   19    5    5     -0.34      0.00
   19    5    6     -1.77      0.00
   19    5    7     -1.67      0.00
  -19    7    9      1.89      0.00
  -19    7    8      1.48      0.00
  -19    7    7      2.87      0.00
  -19    7    6      6.93      0.00
  -19    7    5     -5.01      0.00
  -19    7    4     -2.71      0.00
  -19    7    3     -2.49      0.00
  -19    7    2      1.54      0.00
  -19    7    1     -0.98      0.00
   19    7    0      3.20      0.00
   19    7    1     -0.76      0.00
   19    7    2      0.93      0.00
   19    7    3      2.23      0.00
   19    7    4     -2.47      0.00
   19    7    5      1.61      0.00
   19    7    6      3.83      0.00
   19    7    7      4.86      0.00
  -19    9    9      0.59      0.00
  -19    9    8      0.63      0.00
  -19    9    7      2.96      0.00
  -19    9    6      2.36      0.00
  -19    9    5     -3.01      0.00
  -19    9    4      0.72      0.00
  -19    9    3      1.60      0.00
  -19    9    2     -0.60      0.00
  -19    9    1     -1.89      0.00
   19    9    0      4.37      0.00
   19    9    2      7.86      0.00
   19    9    3      6.73      0.00
   19    9    4     -2.08      0.00
   19    9    5     -2.43      0.00
   19    9    6     -3.14      0.00
  -19   11    8      1.14      0.00
  -19   11    7      4.99      0.00
  -19   11    6      3.68      0.00
  -19   11    5     -2.10      0.00
  -19   11    4     -2.36      0.00
  -19   11    3      2.54      0.00
  -19   11    2      0.05      0.00
  -19   11    1      0.02      0.00
   19   11    0      1.81      0.00
   19   11    1     -2.79      0.00
   19   11    2     -2.94      0.00
   19   11    3     -2.62      0.00
   19   11    4     -3.18      0.00
   19   11    5      2.63      0.00
   19   11    6      2.52      0.00
  -19   13    7     -3.16      0.00
  -19   13    6      2.05      0.00
  -19   13    5     -0.66      0.00
  -19   13    4     -0.45      0.00
  -19   13    3      5.78      0.00
  -19   13    2      0.81      0.00
  -19   13    1     -1.69      0.00
   19   13    0     -4.56      0.00
   19   13    1     -4.04      0.00
   19   13    2      0.08      0.00
   19   13    3      4.74      0.00
   19   13    4      3.05      0.00
   19   13    5      1.64      0.00
  -19   15    6      2.31      0.00
  -19   15    5     -1.16      0.00
  -19   15    4     -0.31      0.00
  -19   15    3      2.28      0.00
  -19   15    2     -3.41      0.00
  -19   15    1     -0.53      0.00
   19   15    0      2.77      0.00
   19   15    1      2.70      0.00
   19   15    2     -0.61      0.00
   19   15    3     -1.64      0.00
   19   15    4     -3.04      0.00
  -19   17    5     -5.98      0.00
  -19   17    4     -1.76      0.00
  -19   17    3      2.57      0.00
  -19   17    2     -1.04      0.00
  -19   17    1      0.19      0.00
   19   17    0      4.72      0.00
   19   17    1      4.05      0.00
   19   17    2      1.83      0.00
  -19   19    3     -0.65      0.00
  -19   19    2     -1.07      0.00
  -19   19    1     -0.88      0.00
   19   19    0      3.08      0.00
  -20    0    9     -1.68      0.00
  -20    0    8      3.05      0.00
  -20    0    7     -5.21      0.00
  -20    0    6     -2.10      0.00
  -20    0    5     -0.98      0.00
  -20    0    4     -6.57      0.00
  -20    0    3    -12.29      0.00
  -20    0    2     -2.55      0.00
  -20    0    1      7.17      0.00
   20    0    0     11.00      0.00
   20    0    1      9.69      0.00
   20    0    2     -9.13      0.00
   20    0    3      3.45      0.00
   20    0    4     -0.78      0.00
   20    0    5      5.17      0.00
   20    0    6      4.51      0.00
   20    0    7      5.19      0.00
  -20    2    9     -1.23      0.00
  -20    2    8     -0.08      0.00
  -20    2    7     -5.76      0.00
  -20    2    6     -0.39      0.00
  -20    2    5      0.96      0.00
  -20    2    4      1.80      0.00
  -20    2    3     -0.82      0.00
  -20    2    2      0.29      0.00
  -20    2    1     -1.60      0.00
   20    2    0      0.53      0.00
   20    2    1      3.98      0.00
   20    2    2     -8.33      0.00
   20    2    3      3.48      0.00
   20    2    4     -0.51      0.00
   20    2    5      0.36      0.00
   20    2    6     -3.24      0.00
   20    2    7     -1.29      0.00
  -20    4    9     -3.77      0.00
  -20    4    8     -0.05      0.00
  -20    4    7      0.18      0.00
  -20    4    6      6.05      0.00
  -20    4    5      2.41      0.00
  -20    4    4      2.96      0.00
  -20    4    3      1.79      0.00
  -20    4    2      0.24      0.00
  -20    4    1     -4.44      0.00
   20    4    0      1.75      0.00
   20    4    1      5.28      0.00
   20    4    2     -3.89      0.00
   20    4    3     -0.43      0.00
   20    4    4     -0.35      0.00
   20    4    5      2.36      0.00
   20    4    6      1.88      0.00
   20    4    7      3.45      0.00
  -20    6    9     -3.52      0.00
  -20    6    8      2.07      0.00
  -20    6    7      0.05      0.00
  -20    6    6      1.16      0.00
  -20    6    5      0.08      0.00
  -20    6    4      4.40      0.00
  -20    6    3      4.89      0.00
  -20    6    2      2.17      0.00
  -20    6    1     -4.74      0.00
   20    6    0      0.21      0.00
   20    6    1      1.62      0.00
   20    6    2      4.75      0.00
   20    6    3      4.50      0.00
   20    6    4      1.86      0.00
   20    6    5     -0.79      0.00
   20    6    6     -2.69      0.00
   20    6    7     -0.49      0.00
  -20    8    8      1.17      0.00
  -20    8    7      1.70      0.00
  -20    8    6     -1.78      0.00
  -20    8    5     -6.78      0.00
  -20    8    4     -2.32      0.00
  -20    8    3      0.99      0.00
  -20    8    2      2.74      0.00
  -20    8    1      2.39      0.00
   20    8    0      4.07      0.00
   20    8    1     -3.94      0.00
   20    8    2     -1.44      0.00
   20    8    3     -7.03      0.00
   20    8    4     -8.03      0.00
   20    8    5     -2.28      0.00
   20    8    6      3.00      0.00
  -20   10    8     -0.61      0.00
  -20   10    7      1.43      0.00
  -20   10    6     -1.38      0.00
  -20   10    5     -5.29      0.00
  -20   10    4     -0.42      0.00
  -20   10    3      1.47      0.00
  -20   10    2      0.74      0.00
  -20   10    1      3.10      0.00
   20   10    0      1.48      0.00
   20   10    1     -5.98      0.00
   20   10    2      1.62      0.00
   20   10    3      0.31      0.00
   20   10    4     -2.58      0.00
   20   10    5     -0.51      0.00
   20   10    6      0.44      0.00
  -20   12    7     -2.28      0.00
  -20   12    6     -4.21      0.00
  -20   12    5     -0.97      0.00
  -20   12    4      4.19      0.00
  -20   12    3      1.93      0.00
  -20   12    2     -4.64      0.00
  -20   12    1     -1.02      0.00
   20   12    0      1.11      0.00
   20   12    1     -1.67      0.00
   20   12    2      3.51      0.00
   20   12    3      2.80      0.00
   20   12    4     -1.35      0.00
   20   12    5     -0.22      0.00
  -20   14    6     -4.71      0.00
  -20   14    5     -2.62      0.00
  -20   14    4      1.25      0.00
  -20   14    3      3.01      0.00
  -20   14    2     -0.96      0.00
  -20   14    1     -0.41      0.00
   20   14    0      1.56      0.00
   20   14    1     -0.46      0.00
   20   14    2     -0.19      0.00
   20   14    3      1.85      0.00
   20   14    4      1.52      0.00
  -20   16    5     -1.51      0.00
  -20   16    4     -2.36      0.00
  -20   16    3     -0.62      0.00
  -20   16    2      1.03      0.00
  -20   16    1     -0.55      0.00
   20   16    0      1.40      0.00
   20   16    1      2.23      0.00
   20   16    2     -0.05      0.00
   20   16    3      0.12      0.00
  -20   18    3     -0.39      0.00
  -20   18    2      2.98      0.00
  -20   18    1      1.12      0.00
   20   18    0      0.24      0.00
  -21    1    9     -0.21      0.00
  -21    1    8      1.14      0.00
  -21    1    7      0.73      0.00
  -21    1    6      0.51      0.00
  -21    1    5     -2.50      0.00
  -21    1    4      3.78      0.00
  -21    1    3      4.70      0.00
  -21    1    2     -0.66      0.00
  -21    1    1      0.16      0.00
   21    1    0      5.00      0.00
   21    1    1      2.62      0.00
   21    1    2    -16.17      0.00
   21    1    3     -0.05      0.00
   21    1    4     -2.86      0.00
   21    1    5      1.35      0.00
   21    1    6     -0.20      0.00
   21    1    7     -0.10      0.00
  -21    3    9     -2.56      0.00
  -21    3    8      0.10      0.00
  -21    3    7      0.15      0.00
  -21    3    6      3.45      0.00
  -21    3    5     -0.18      0.00
  -21    3    4      0.25      0.00
  -21    3    3     -2.38      0.00
  -21    3    2     -4.25      0.00
  -21    3    1     -3.11      0.00
   21    3    0      6.20      0.00
   21    3    1      5.01      0.00
   21    3    2     -2.84      0.00
   21    3    3      6.62      0.00
   21    3    4      0.86      0.00
   21    3    5      2.40      0.00
   21    3    6     -0.35      0.00
   21    3    7      0.84      0.00
  -21    5    9     -4.33      0.00
  -21    5    8     -3.11      0.00
  -21    5    7     -1.32      0.00
  -21    5    6      1.26      0.00
  -21    5    5     -2.73      0.00
  -21    5    4      2.12      0.00
  -21    5    3      0.17      0.00
  -21    5    2     -2.47      0.00
  -21    5    1     -6.83      0.00
   21    5    0      1.59      0.00
   21    5    1     -0.81      0.00
   21    5    2      1.03      0.00
   21    5    3      1.58      0.00
   21    5    4     -2.98      0.00
   21    5    5     -1.01      0.00
   21    5    6     -3.61      0.00
  -21    7    8      1.83      0.00
  -21    7    7      3.49      0.00
  -21    7    6      2.01      0.00
  -21    7    5     -5.08      0.00
  -21    7    4      0.39      0.00
  -21    7    3     -0.01      0.00
  -21    7    2      0.22      0.00
  -21    7    1     -0.88      0.00
   21    7    0      4.60      0.00
   21    7    1     -2.05      0.00
   21    7    2      1.16      0.00
   21    7    3     -4.36      0.00
   21    7    4     -2.07      0.00
   21    7    5      4.07      0.00
   21    7    6      4.01      0.00
  -21    9    8      1.43      0.00
  -21    9    7     -2.15      0.00
  -21    9    6     -3.39      0.00
  -21    9    5     -3.50      0.00
  -21    9    4      3.99      0.00
  -21    9    3      4.27      0.00
  -21    9    2      1.17      0.00
  -21    9    1      0.44      0.00
   21    9    0      1.54      0.00
   21    9    1     -1.30      0.00
   21    9    2      5.89      0.00
   21    9    3     -0.04      0.00
   21    9    4      1.02      0.00
   21    9    5      0.88      0.00
   21    9    6     -0.29      0.00
  -21   11    7      2.79      0.00
  -21   11    6      0.08      0.00
  -21   11    5     -1.43      0.00
  -21   11    4      1.83      0.00
  -21   11    3      0.32      0.00
  -21   11    2     -2.90      0.00
  -21   11    1      0.22      0.00
   21   11    0      0.93      0.00
   21   11    1     -0.41      0.00
   21   11    2      1.45      0.00
   21   11    3     -2.75      0.00
   21   11    4     -0.60      0.00
   21   11    5      1.59      0.00
  -21   13    6      2.38      0.00
  -21   13    5      2.30      0.00
  -21   13    4      5.02      0.00
  -21   13    3      0.02      0.00
  -21   13    2     -3.40      0.00
  -21   13    1     -1.58      0.00
   21   13    0     -1.80      0.00
   21   13    1      1.04      0.00
   21   13    2      3.10      0.00
   21   13    3      3.58      0.00
   21   13    4      0.88      0.00
  -21   15    5      3.33      0.00
  -21   15    4      7.09      0.00
  -21   15    3     -0.46      0.00
  -21   15    2     -1.11      0.00
  -21   15    1      2.42      0.00
   21   15    0      1.88      0.00
   21   15    1      0.89      0.00
   21   15    2     -3.40      0.00
   21   15    3     -4.03      0.00
  -21   17    3      1.27      0.00
  -21   17    2      3.11      0.00
  -21   17    1      4.48      0.00
   21   17    0      0.97      0.00
   21   17    1     -1.66      0.00
  -22    0    9     -1.56      0.00
  -22    0    8     -5.63      0.00
  -22    0    7     -4.21      0.00
  -22    0    6      7.14      0.00
  -22    0    5      0.74      0.00
  -22    0    4     -6.14      0.00
  -22    0    3     -0.27      0.00
  -22    0    2      3.22      0.00
  -22    0    1      5.23      0.00
   22    0    0      4.14      0.00
   22    0    1     -3.31      0.00
   22    0    2     -2.86      0.00
   22    0    3      7.17      0.00
   22    0    4      3.75      0.00
   22    0    5      4.40      0.00
   22    0    6     -0.54      0.00
  -22    2    9      0.27      0.00
  -22    2    8     -1.59      0.00
  -22    2    7     -2.54      0.00
  -22    2    6      3.84      0.00
  -22    2    5     -1.08      0.00
  -22    2    4     -0.04      0.00
  -22    2    3      3.26      0.00
  -22    2    2      1.67      0.00
  -22    2    1     -0.34      0.00
   22    2    0     -0.02      0.00
   22    2    1     -6.29      0.00
   22    2    2     -4.19      0.00
   22    2    3      5.13      0.00
   22    2    4     -0.09      0.00
   22    2    5     -1.52      0.00
   22    2    6     -6.21      0.00
  -22    4    8      4.24      0.00
  -22    4    7      2.50      0.00
  -22    4    6      4.43      0.00
  -22    4    5     -4.65      0.00
  -22    4    4     -1.17      0.00
  -22    4    3     -3.35      0.00
  -22    4    2     -3.06      0.00
  -22    4    1      0.90      0.00
   22    4    0      8.66      0.00
   22    4    1      0.59      0.00
   22    4    2     -2.32      0.00
   22    4    3     -0.31      0.00
   22    4    4     -3.63      0.00
   22    4    5     -0.88      0.00
   22    4    6      0.27      0.00
  -22    6    8      4.65      0.00
  -22    6    7     -1.71      0.00
  -22    6    6      2.80      0.00
  -22    6    5     -2.01      0.00
  -22    6    4      4.36      0.00
  -22    6    3      0.29      0.00
  -22    6    2     -1.86      0.00
  -22    6    1     -2.24      0.00
   22    6    0      3.09      0.00
   22    6    1     -1.53      0.00
   22    6    2      1.61      0.00
   22    6    3      1.98      0.00
   22    6    4      2.13      0.00
   22    6    5      0.79      0.00
   22    6    6     -2.10      0.00
  -22    8    8      0.85      0.00
  -22    8    7     -4.20      0.00
  -22    8    6     -0.64      0.00
  -22    8    5     -0.66      0.00
  -22    8    4      4.89      0.00
  -22    8    3      1.15      0.00
  -22    8    2     -0.17      0.00
  -22    8    1     -1.06      0.00
   22    8    0     -0.78      0.00
   22    8    1     -4.46      0.00
   22    8    2     -3.09      0.00
   22    8    3     -7.62      0.00
   22    8    4     -0.21      0.00
   22    8    5      4.73      0.00
  -22   10    7      0.12      0.00
  -22   10    6     -0.23      0.00
  -22   10    5      2.31      0.00
  -22   10    4      4.27      0.00
  -22   10    3      1.11      0.00
  -22   10    2      0.74      0.00
  -22   10    1      0.61      0.00
   22   10    0     -3.72      0.00
   22   10    1     -3.25      0.00
   22   10    2     -0.07      0.00
   22   10    3     -4.78      0.00
   22   10    4      1.49      0.00
   22   10    5      4.88      0.00
  -22   12    6     -3.42      0.00
  -22   12    5      1.94      0.00
  -22   12    4      0.70      0.00
  -22   12    3     -1.56      0.00
  -22   12    2     -1.85      0.00
  -22   12    1      1.85      0.00
   22   12    0     -0.45      0.00
   22   12    1      2.77      0.00
   22   12    2      2.94      0.00
   22   12    3     -3.27      0.00
   22   12    4     -2.97      0.00
  -22   14    5     -0.74      0.00
  -22   14    4     -3.09      0.00
  -22   14    3     -1.14      0.00
  -22   14    2     -0.31      0.00
  -22   14    1      2.53      0.00
   22   14    0      0.50      0.00
   22   14    1      0.69      0.00
   22   14    2     -0.10      0.00
   22   14    3      1.12      0.00
  -22   16    3     -0.40      0.00
  -22   16    2     -0.69      0.00
  -22   16    1     -2.61      0.00
   22   16    0     -1.47      0.00
   22   16    1     -0.88      0.00
  -23    1    8      2.34      0.00
  -23    1    7      0.71      0.00
  -23    1    6     -2.73      0.00
  -23    1    5      1.13      0.00
  -23    1    4      2.49      0.00
  -23    1    3     -0.56      0.00
  -23    1    2     -1.26      0.00
  -23    1    1     -2.38      0.00
   23    1    0     -2.74      0.00
   23    1    1     -7.66      0.00
   23    1    2     -3.76      0.00
   23    1    3      5.72      0.00
   23    1    4     -1.10      0.00
   23    1    5     -0.11      0.00
   23    1    6     -2.40      0.00
  -23    3    8      1.70      0.00
  -23    3    7      2.79      0.00
  -23    3    6      2.49      0.00
  -23    3    5     -0.35      0.00
  -23    3    4     -0.67      0.00
  -23    3    3     -2.70      0.00
  -23    3    2     -0.94      0.00
  -23    3    1      2.71      0.00
   23    3    0      4.46      0.00
   23    3    1     -2.49      0.00
   23    3    2     -0.63      0.00
   23    3    3      2.86      0.00
   23    3    4      0.62      0.00
   23    3    5      1.51      0.00
   23    3    6      0.08      0.00
  -23    5    8      0.45      0.00
  -23    5    7     -0.12      0.00
  -23    5    6     -0.46      0.00
  -23    5    5     -2.64      0.00
  -23    5    4      2.43      0.00
  -23    5    3     -0.43      0.00
  -23    5    2     -0.85      0.00
  -23    5    1      1.56      0.00
   23    5    0      2.78      0.00
   23    5    1     -3.01      0.00
   23    5    2     -0.27      0.00
   23    5    3     -2.87      0.00
   23    5    4     -0.82      0.00
   23    5    5     -1.43      0.00
  -23    7    7      2.83      0.00
  -23    7    6      1.02      0.00
  -23    7    5     -2.26      0.00
  -23    7    4      3.05      0.00
  -23    7    3     -2.65      0.00
  -23    7    2     -2.77      0.00
  -23    7    1      0.09      0.00
   23    7    0      1.05      0.00
   23    7    1     -2.02      0.00
   23    7    2      0.84      0.00
   23    7    3     -2.91      0.00
   23    7    4      2.61      0.00
   23    7    5      0.84      0.00
  -23    9    7     -4.13      0.00
  -23    9    6     -2.62      0.00
  -23    9    5     -1.51      0.00
  -23    9    4      4.72      0.00
  -23    9    3     -0.52      0.00
  -23    9    2     -2.57      0.00
  -23    9    1     -2.53      0.00
   23    9    0     -3.08      0.00
   23    9    1     -0.81      0.00
   23    9    2      3.44      0.00
   23    9    3      2.48      0.00
   23    9    4      4.92      0.00
   23    9    5     -2.53      0.00
  -23   11    6     -0.32      0.00
  -23   11    5      1.33      0.00
  -23   11    4     -0.50      0.00
  -23   11    3     -4.42      0.00
  -23   11    2     -2.18      0.00
  -23   11    1      1.84      0.00
   23   11    0      2.41      0.00
   23   11    1      1.28      0.00
   23   11    2     -1.86      0.00
   23   11    3     -2.20      0.00
   23   11    4      0.84      0.00
  -23   13    5      7.73      0.00
  -23   13    4     -0.26      0.00
  -23   13    3     -3.32      0.00
  -23   13    2     -0.70      0.00
  -23   13    1      0.53      0.00
   23   13    0      0.75      0.00
   23   13    1     -0.14      0.00
   23   13    2     -2.10      0.00
  -23   15    3     -0.79      0.00
  -23   15    2      1.22      0.00
  -23   15    1     -0.98      0.00
   23   15    0     -0.28      0.00
   23   15    1     -0.31      0.00
  -24    0    7      6.74      0.00
  -24    0    6      5.27      0.00
  -24    0    5     -2.59      0.00
  -24    0    4     -2.53      0.00
  -24    0    3      0.59      0.00
  -24    0    2     -3.16      0.00
  -24    0    1      2.41      0.00
   24    0    0      1.75      0.00
   24    0    1      3.91      0.00
   24    0    2      4.05      0.00
   24    0    3      7.48      0.00
   24    0    4     -1.19      0.00
   24    0    5     -4.83      0.00
  -24    2    8     -1.40      0.00
  -24    2    7      2.08      0.00
  -24    2    6     -0.73      0.00
  -24    2    5     -2.35      0.00
  -24    2    4      1.52      0.00
  -24    2    3      3.25      0.00
  -24    2    2     -0.65      0.00
  -24    2    1     -0.19      0.00
   24    2    0     -3.26      0.00
   24    2    1     -2.34      0.00
   24    2    2      1.74      0.00
   24    2    3      4.60      0.00
   24    2    4     -2.87      0.00
   24    2    5     -6.22      0.00
  -24    4    7     -0.93      0.00
  -24    4    6     -4.20      0.00
  -24    4    5     -4.09      0.00
  -24    4    4     -0.78      0.00
  -24    4    3     -2.88      0.00
  -24    4    2      1.12      0.00
  -24    4    1      4.09      0.00
   24    4    0      2.73      0.00
   24    4    1     -2.88      0.00
   24    4    2     -0.18      0.00
   24    4    3     -1.60      0.00
   24    4    4     -3.38      0.00
   24    4    5     -1.31      0.00
  -24    6    7     -2.53      0.00
  -24    6    6     -1.72      0.00
  -24    6    5     -2.03      0.00
  -24    6    4      2.48      0.00
  -24    6    3     -2.66      0.00
  -24    6    2      1.28      0.00
  -24    6    1      0.94      0.00
   24    6    0      0.49      0.00
   24    6    1     -5.14      0.00
   24    6    2      0.73      0.00
   24    6    3      2.01      0.00
   24    6    4      3.48      0.00
  -24    8    7     -2.98      0.00
  -24    8    6      2.21      0.00
  -24    8    5      0.33      0.00
  -24    8    4      0.70      0.00
  -24    8    3     -4.92      0.00
  -24    8    2     -0.75      0.00
  -24    8    1     -0.07      0.00
   24    8    0      3.04      0.00
   24    8    1     -0.13      0.00
   24    8    2      0.41      0.00
   24    8    3      0.29      0.00
   24    8    4      4.32      0.00
  -24   10    6      6.38      0.00
  -24   10    5      3.97      0.00
  -24   10    4      0.47      0.00
  -24   10    3     -2.41      0.00
  -24   10    2      0.03      0.00
  -24   10    1     -2.09      0.00
   24   10    0     -0.75      0.00
   24   10    1     -0.22      0.00
   24   10    2     -0.99      0.00
   24   10    3      1.60      0.00
  -24   12    4     -1.65      0.00
  -24   12    3      0.79      0.00
  -24   12    2      1.75      0.00
  -24   12    1     -0.79      0.00
   24   12    0     -0.16      0.00
   24   12    1      1.59      0.00
   24   12    2     -1.80      0.00
  -24   14    3      0.98      0.00
  -24   14    2      2.17      0.00
  -24   14    1      1.51      0.00
   24   14    0      0.87      0.00
   24   14    1     -0.13      0.00
  -25    1    7     -3.59      0.00
  -25    1    6     -1.36      0.00
  -25    1    5      1.65      0.00
  -25    1    4     -4.25      0.00
  -25    1    3      0.93      0.00
  -25    1    2     -1.29      0.00
  -25    1    1     -2.31      0.00
   25    1    0     -0.64      0.00
   25    1    1      0.07      0.00
   25    1    2      3.13      0.00
   25    1    3      0.29      0.00
   25    1    4     -3.18      0.00
   25    1    5     -0.59      0.00
  -25    3    7      0.34      0.00
  -25    3    6      1.06      0.00
  -25    3    5      0.35      0.00
  -25    3    4     -1.03      0.00
  -25    3    3      0.90      0.00
  -25    3    2      1.81      0.00
  -25    3    1      0.48      0.00
   25    3    0     -0.17      0.00
   25    3    1     -3.00      0.00
   25    3    2      0.47      0.00
   25    3    3      1.19      0.00
   25    3    4      1.22      0.00
   25    3    5      1.47      0.00
  -25    5    7     -2.13      0.00
  -25    5    6     -0.27      0.00
  -25    5    5     -0.65      0.00
  -25    5    4      2.70      0.00
  -25    5    3      0.62      0.00
  -25    5    2      4.03      0.00
  -25    5    1     -0.27      0.00
   25    5    0     -1.30      0.00
   25    5    1     -2.90      0.00
   25    5    2      1.43      0.00
   25    5    3      1.14      0.00
   25    5    4      1.17      0.00
  -25    7    6      2.96      0.00
  -25    7    5      1.20      0.00
  -25    7    4      1.70      0.00
  -25    7    3     -5.22      0.00
  -25    7    2      1.71      0.00
  -25    7    1     -0.95      0.00
   25    7    0      1.34      0.00
   25    7    1      0.22      0.00
   25    7    2      2.30      0.00
   25    7    3      0.20      0.00
   25    7    4     -0.72      0.00
  -25    9    6     -2.37      0.00
  -25    9    5     -1.09      0.00
  -25    9    4      1.54      0.00
  -25    9    3     -3.85      0.00
  -25    9    2      1.44      0.00
  -25    9    1     -1.87      0.00
   25    9    0      0.36      0.00
   25    9    1     -0.35      0.00
   25    9    2      2.54      0.00
   25    9    3      2.41      0.00
  -25   11    4     -3.73      0.00
  -25   11    3     -2.74      0.00
  -25   11    2      2.61      0.00
  -25   11    1      2.68      0.00
   25   11    0      3.32      0.00
   25   11    1     -1.36      0.00
   25   11    2     -1.12      0.00
  -25   13    2      0.06      0.00
  -25   13    1     -0.95      0.00
   25   13    0     -1.74      0.00
  -26    0    6     -2.10      0.00
  -26    0    5     -1.20      0.00
  -26    0    4     -0.18      0.00
  -26    0    3     -3.00      0.00
  -26    0    2     -0.44      0.00
  -26    0    1      4.67      0.00
   26    0    0      5.56      0.00
   26    0    1      1.90      0.00
   26    0    2      1.02      0.00
   26    0    3     -0.80      0.00
   26    0    4     -5.89      0.00
  -26    2    6     -1.90      0.00
  -26    2    5      0.60      0.00
  -26    2    4      2.25      0.00
  -26    2    3      0.84      0.00
  -26    2    2      0.53      0.00
  -26    2    1     -0.58      0.00
   26    2    0     -0.53      0.00
   26    2    1     -0.54      0.00
   26    2    2      2.09      0.00
   26    2    3     -0.31      0.00
   26    2    4     -4.23      0.00
  -26    4    6     -0.15      0.00
  -26    4    5      1.39      0.00
  -26    4    4      0.20      0.00
  -26    4    3     -1.06      0.00
  -26    4    2      1.10      0.00
  -26    4    1     -1.58      0.00
   26    4    0     -0.40      0.00
   26    4    1     -0.43      0.00
   26    4    2      2.51      0.00
   26    4    3     -2.29      0.00
  -26    6    6     -0.96      0.00
  -26    6    5      0.01      0.00
  -26    6    4      2.08      0.00
  -26    6    3      0.17      0.00
  -26    6    2      3.36      0.00
  -26    6    1     -2.23      0.00
   26    6    0     -2.31      0.00
   26    6    1     -4.50      0.00
   26    6    2      1.90      0.00
   26    6    3      0.11      0.00
  -26    8    5     -4.64      0.00
  -26    8    4     -1.69      0.00
  -26    8    3     -2.02      0.00
  -26    8    2      4.62      0.00
  -26    8    1      2.31      0.00
   26    8    0      5.41      0.00
   26    8    1      0.84      0.00
   26    8    2      3.36      0.00
   26    8    3      0.11      0.00
  -26   10    4     -0.85      0.00
  -26   10    3     -1.43      0.00
  -26   10    2      2.01      0.00
  -26   10    1     -1.11      0.00
   26   10    0      2.18      0.00
   26   10    1     -1.67      0.00
  -26   12    2      0.19      0.00
  -26   12    1     -2.23      0.00
   26   12    0      1.54      0.00
  -27    1    6      1.88      0.00
  -27    1    5     -3.00      0.00
  -27    1    4     -0.71      0.00
  -27    1    3      5.04      0.00
  -27    1    2     -0.19      0.00
  -27    1    1     -0.18      0.00
   27    1    0     -0.03      0.00
   27    1    1      0.81      0.00
   27    1    2     -2.44      0.00
   27    1    3     -1.05      0.00
  -27    3    6      0.79      0.00
  -27    3    5     -1.02      0.00
  -27    3    4      0.41      0.00
  -27    3    3      1.40      0.00
  -27    3    2     -0.92      0.00
  -27    3    1     -1.38      0.00
   27    3    0      0.05      0.00
   27    3    1     -0.79      0.00
   27    3    2     -0.74      0.00
   27    3    3      0.90      0.00
  -27    5    5     -0.80      0.00
  -27    5    4      0.94      0.00
  -27    5    3      0.26      0.00
  -27    5    2      0.54      0.00
  -27    5    1     -3.11      0.00
   27    5    0      1.73      0.00
   27    5    1      1.55      0.00
   27    5    2      3.25      0.00
   27    5    3      1.31      0.00
  -27    7    5      2.41      0.00
  -27    7    4     -0.01      0.00
  -27    7    3     -1.70      0.00
  -27    7    2      1.93      0.00
  -27    7    1     -3.08      0.00
   27    7    0      2.89      0.00
   27    7    1     -0.21      0.00
   27    7    2      0.53      0.00
  -27    9    4      1.80      0.00
  -27    9    3      1.35      0.00
  -27    9    2      4.01      0.00
  -27    9    1     -3.26      0.00
   27    9    0     -0.30      0.00
   27    9    1     -3.53      0.00
  -28    0    5      2.50      0.00
  -28    0    4     -2.23      0.00
  -28    0    3     -2.12      0.00
  -28    0    2      0.36      0.00
  -28    0    1      2.23      0.00
   28    0    0      0.71      0.00
   28    0    1     -2.25      0.00
   28    0    2     -2.09      0.00
  -28    2    5      1.92      0.00
  -28    2    4      0.10      0.00
  -28    2    3      0.62      0.00
  -28    2    2     -0.20      0.00
  -28    2    1     -1.28      0.00
   28    2    0     -0.57      0.00
   28    2    1     -0.64      0.00
   28    2    2      0.01      0.00
  -28    4    5      0.68      0.00
  -28    4    4     -0.92      0.00
  -28    4    3     -1.12      0.00
  -28    4    2     -1.25      0.00
  -28    4    1     -2.17      0.00
   28    4    0      1.83      0.00
   28    4    1      1.93      0.00
   28    4    2      0.85      0.00
  -28    6    4      1.35      0.00
  -28    6    3      0.25      0.00
  -28    6    2      0.66      0.00
  -28    6    1     -3.91      0.00
   28    6    0     -1.75      0.00
   28    6    1     -2.87      0.00
  -28    8    3      0.04      0.00
  -28    8    2      2.88      0.00
  -28    8    1     -0.34      0.00
   28    8    0      3.12      0.00
  -29    1    3      1.98      0.00
  -29    1    2     -1.63      0.00
  -29    1    1     -2.09      0.00
   29    1    0      0.26      0.00
  -29    3    3     -1.15      0.00
  -29    3    2     -1.17      0.00
  -29    3    1      0.58      0.00
   29    3    0      2.18      0.00
  -29    5    2     -0.80      0.00
  -29    5    1      1.25      0.00
   29    5    0      4.88      0.00
   29    7    0      2.93      0.00
   29    9    0     -1.25      0.00
   28   10    0      0.99      0.00
   27   11    0      1.30      0.00
   29   11    0      1.32      0.00
   28   12    0      2.25      0.00
   27   13    0     -2.81      0.00
   26   14    0      1.77      0.00
   28   14    0      1.02      0.00
   25   15    0      1.16      0.00
   27   15    0      1.28      0.00
   24   16    0      0.56      0.00
   26   16    0      1.51      0.00
   23   17    0     -3.35      0.00
   25   17    0      0.43      0.00
   22   18    0     -2.05      0.00
   24   18    0      1.84      0.00
   21   19    0      2.08      0.00
   23   19    0      1.16      0.00
   18   20    0      0.39      0.00
   20   20    0     -3.00      0.00
   22   20    0     -2.00      0.00
   17   21    0      0.15      0.00
   19   21    0     -2.26      0.00
   21   21    0     -0.84      0.00
   16   22    0      2.65      0.00
   18   22    0      2.79      0.00
   13   23    0      3.03      0.00
   15   23    0     -1.60      0.00
   17   23    0     -1.37      0.00
   10   24    0     -4.23      0.00
   12   24    0      0.84      0.00
   14   24    0     -0.50      0.00
   16   24    0     -1.93      0.00
   29    1    1     -2.07      0.00
   29    3    1     -1.96      0.00
   29    5    1      0.96      0.00
  -29    7    1     -1.26      0.00
   29    7    1     -1.68      0.00
   28    8    1     -0.16      0.00
  -29    9    1     -4.21      0.00
   19    9    1      2.49      0.00
   29    9    1     -3.42      0.00
  -28   10    1     -1.87      0.00
   28   10    1     -2.67      0.00
  -29   11    1     -1.46      0.00
  -27   11    1      0.04      0.00
   27   11    1     -1.11      0.00
   29   11    1     -0.09      0.00
  -28   12    1     -0.77      0.00
   26   12    1     -0.46      0.00
   28   12    1      0.29      0.00
  -27   13    1     -2.13      0.00
   25   13    1     -4.75      0.00
   27   13    1     -2.44      0.00
  -28   14    1      1.10      0.00
  -26   14    1      1.28      0.00
   26   14    1     -0.36      0.00
  -27   15    1      0.86      0.00
  -25   15    1     -1.55      0.00
   25   15    1     -0.11      0.00
  -26   16    1      0.96      0.00
  -24   16    1     -3.14      0.00
   24   16    1      0.46      0.00
   26   16    1      0.46      0.00
  -25   17    1     -0.76      0.00
  -23   17    1     -1.44      0.00
   23   17    1     -2.08      0.00
   25   17    1     -0.31      0.00
  -24   18    1     -2.75      0.00
  -22   18    1     -3.30      0.00
   20   18    1     -0.94      0.00
   22   18    1     -1.59      0.00
   24   18    1      1.43      0.00
  -23   19    1     -0.81      0.00
  -21   19    1      1.07      0.00
   19   19    1      3.79      0.00
   21   19    1      2.74      0.00
   23   19    1      2.23      0.00
  -22   20    1     -2.48      0.00
  -20   20    1     -1.03      0.00
   18   20    1     -1.40      0.00
   20   20    1     -3.38      0.00
   22   20    1     -0.11      0.00
  -21   21    1     -1.59      0.00
  -19   21    1     -0.95      0.00
  -17   21    1      2.21      0.00
   17   21    1      0.23      0.00
   19   21    1     -1.63      0.00
  -18   22    1      0.98      0.00
  -16   22    1     -0.54      0.00
  -14   22    1     -2.58      0.00
   16   22    1      5.33      0.00
   18   22    1      1.51      0.00
  -17   23    1     -0.07      0.00
  -15   23    1      1.99      0.00
  -13   23    1      2.32      0.00
   13   23    1     -3.88      0.00
   15   23    1     -3.03      0.00
   17   23    1      0.35      0.00
  -16   24    1     -2.15      0.00
  -14   24    1      0.85      0.00
  -12   24    1     -2.79      0.00
  -10   24    1     -4.19      0.00
   10   24    1     -2.69      0.00
   12   24    1      0.85      0.00
   14   24    1     -0.95      0.00
   29    1    2      0.77      0.00
   29    3    2     -0.55      0.00
   29    5    2      0.88      0.00
   28    6    2     -0.02      0.00
  -29    7    2     -1.40      0.00
   29    7    2     -0.88      0.00
   28    8    2      1.62      0.00
  -29    9    2     -0.78      0.00
   27    9    2     -0.23      0.00
   29    9    2      0.22      0.00
  -28   10    2      0.48      0.00
   26   10    2      1.72      0.00
   28   10    2      1.11      0.00
  -29   11    2      0.55      0.00
  -27   11    2      3.99      0.00
   27   11    2      1.06      0.00
  -28   12    2     -0.86      0.00
   26   12    2      1.56      0.00
   28   12    2      2.18      0.00
  -27   13    2     -0.95      0.00
   25   13    2     -1.52      0.00
   27   13    2      1.66      0.00
  -28   14    2      1.06      0.00
  -26   14    2      1.13      0.00
   24   14    2     -1.09      0.00
   26   14    2      1.50      0.00
  -27   15    2     -1.61      0.00
  -25   15    2     -1.22      0.00
   23   15    2     -3.42      0.00
   25   15    2     -0.62      0.00
  -26   16    2     -2.43      0.00
  -24   16    2     -4.10      0.00
   22   16    2     -1.49      0.00
   24   16    2      1.81      0.00
  -25   17    2      0.52      0.00
  -23   17    2      3.36      0.00
   21   17    2     -2.52      0.00
   23   17    2     -0.98      0.00
  -24   18    2     -2.74      0.00
  -22   18    2      1.64      0.00
   20   18    2     -4.77      0.00
   22   18    2     -3.73      0.00
  -23   19    2      0.54      0.00
  -21   19    2      0.03      0.00
   19   19    2      1.74      0.00
   21   19    2      1.57      0.00
  -22   20    2      0.59      0.00
  -20   20    2      0.72      0.00
   18   20    2     -3.13      0.00
   20   20    2     -1.80      0.00
  -21   21    2     -0.10      0.00
  -19   21    2      1.63      0.00
  -17   21    2      2.31      0.00
   17   21    2     -1.79      0.00
   19   21    2     -2.73      0.00
  -18   22    2      0.19      0.00
  -16   22    2     -0.52      0.00
   14   22    2      4.47      0.00
   16   22    2      3.24      0.00
   18   22    2     -1.10      0.00
  -17   23    2      1.16      0.00
  -15   23    2      1.47      0.00
  -13   23    2      0.84      0.00
   11   23    2     -0.72      0.00
   13   23    2     -1.42      0.00
   15   23    2      0.93      0.00
  -16   24    2      0.69      0.00
  -14   24    2      0.82      0.00
  -12   24    2     -2.99      0.00
  -10   24    2     -1.22      0.00
    8   24    2     -5.21      0.00
   10   24    2      0.17      0.00
   12   24    2      2.30      0.00
   14   24    2     -0.16      0.00
   28    0    3     -0.89      0.00
   29    1    3      2.73      0.00
   28    2    3      0.35      0.00
   29    3    3      1.02      0.00
   28    4    3     -1.07      0.00
  -29    5    3     -0.95      0.00
   29    5    3      0.52      0.00
   28    6    3     -0.72      0.00
  -29    7    3     -0.45      0.00
   27    7    3     -2.81      0.00
   29    7    3     -0.95      0.00
   28    8    3     -1.90      0.00
  -29    9    3      1.94      0.00
   27    9    3     -2.91      0.00
  -28   10    3     -0.88      0.00
   26   10    3      3.25      0.00
   28   10    3      0.19      0.00
  -29   11    3      1.53      0.00
  -27   11    3      1.97      0.00
   25   11    3     -0.25      0.00
   27   11    3     -2.92      0.00
  -28   12    3     -0.58      0.00
  -26   12    3      1.41      0.00
   24   12    3     -0.75      0.00
   26   12    3      2.36      0.00
  -27   13    3      0.78      0.00
  -25   13    3      0.58      0.00
   23   13    3     -0.13      0.00
   25   13    3      1.78      0.00
  -26   14    3      2.32      0.00
   24   14    3      2.27      0.00
   26   14    3      1.26      0.00
  -27   15    3      0.27      0.00
  -25   15    3      2.46      0.00
   23   15    3     -3.36      0.00
   25   15    3     -1.53      0.00
  -26   16    3     -0.74      0.00
  -24   16    3     -1.25      0.00
   22   16    3      2.60      0.00
   24   16    3      4.48      0.00
  -25   17    3      2.26      0.00
  -23   17    3      0.91      0.00
   19   17    3      2.52      0.00
   21   17    3      0.95      0.00
   23   17    3      2.68      0.00
  -24   18    3      0.35      0.00
  -22   18    3      1.15      0.00
   20   18    3     -4.93      0.00
   22   18    3     -2.22      0.00
  -23   19    3     -1.30      0.00
  -21   19    3     -1.83      0.00
   17   19    3     -0.55      0.00
   19   19    3      1.10      0.00
   21   19    3      2.01      0.00
  -22   20    3     -1.04      0.00
  -20   20    3      0.27      0.00
  -18   20    3      2.25      0.00
   16   20    3      1.34      0.00
   18   20    3      0.20      0.00
   20   20    3      2.25      0.00
  -19   21    3      1.39      0.00
  -17   21    3     -0.07      0.00
   15   21    3     -0.50      0.00
   17   21    3     -5.34      0.00
  -18   22    3      1.48      0.00
  -16   22    3     -0.58      0.00
  -14   22    3     -0.33      0.00
   12   22    3     -0.95      0.00
   14   22    3      1.79      0.00
   16   22    3     -0.63      0.00
  -17   23    3      0.87      0.00
  -15   23    3     -0.48      0.00
  -13   23    3      1.01      0.00
  -11   23    3      1.88      0.00
    9   23    3      3.08      0.00
   11   23    3      1.71      0.00
   13   23    3      0.66      0.00
   15   23    3     -0.45      0.00
  -14   24    3     -0.53      0.00
  -12   24    3     -3.14      0.00
  -10   24    3     -0.75      0.00
   -8   24    3     -0.13      0.00
    4   24    3      1.36      0.00
    6   24    3     -3.17      0.00
    8   24    3     -1.76      0.00
   10   24    3      2.41      0.00
   12   24    3      0.91      0.00
   28    0    4      0.70      0.00
  -29    1    4      3.92      0.00
   27    1    4     -0.21      0.00
   29    1    4     -0.75      0.00
   28    2    4      0.41      0.00
  -29    3    4      0.75      0.00
   27    3    4      1.86      0.00
   29    3    4     -0.34      0.00
   26    4    4     -1.88      0.00
   28    4    4     -0.97      0.00
  -29    5    4     -0.33      0.00
   27    5    4      1.19      0.00
   29    5    4      0.10      0.00
   26    6    4      0.84      0.00
   28    6    4      0.11      0.00
  -29    7    4     -0.56      0.00
   27    7    4     -0.95      0.00
  -28    8    4      0.07      0.00
   26    8    4     -1.83      0.00
   28    8    4     -1.49      0.00
  -29    9    4      1.17      0.00
   25    9    4     -2.09      0.00
   27    9    4     -1.77      0.00
  -28   10    4      0.36      0.00
   24   10    4      6.31      0.00
   26   10    4      1.10      0.00
  -29   11    4      0.99      0.00
  -27   11    4     -0.02      0.00
   25   11    4     -2.90      0.00
  -28   12    4      0.91      0.00
  -26   12    4      1.15      0.00
   24   12    4      0.49      0.00
   26   12    4      0.16      0.00
  -27   13    4      0.11      0.00
  -25   13    4     -3.79      0.00
   23   13    4      0.29      0.00
   25   13    4      1.35      0.00
  -26   14    4     -0.33      0.00
  -24   14    4     -5.13      0.00
   22   14    4      1.13      0.00
   24   14    4      0.65      0.00
  -25   15    4     -2.57      0.00
  -23   15    4      0.82      0.00
   21   15    4     -4.67      0.00
   23   15    4     -3.27      0.00
  -24   16    4     -3.49      0.00
  -22   16    4     -1.69      0.00
   20   16    4     -1.79      0.00
   22   16    4      2.21      0.00
  -23   17    4     -0.56      0.00
  -21   17    4      4.00      0.00
   19   17    4      1.47      0.00
   21   17    4      1.26      0.00
  -22   18    4      0.99      0.00
  -20   18    4      0.80      0.00
   18   18    4     -3.73      0.00
   20   18    4     -5.06      0.00
  -21   19    4      0.60      0.00
  -19   19    4     -1.44      0.00
   17   19    4     -2.26      0.00
   19   19    4      0.83      0.00
  -20   20    4      2.00      0.00
  -18   20    4      1.28      0.00
   16   20    4      2.13      0.00
   18   20    4      2.31      0.00
  -19   21    4      1.79      0.00
  -17   21    4     -2.24      0.00
  -15   21    4     -2.80      0.00
   13   21    4      0.58      0.00
   15   21    4     -4.24      0.00
   17   21    4     -3.46      0.00
  -18   22    4      0.72      0.00
  -16   22    4     -1.86      0.00
  -14   22    4      0.52      0.00
  -12   22    4      0.19      0.00
   10   22    4     -4.51      0.00
   12   22    4     -0.77      0.00
   14   22    4      0.36      0.00
  -15   23    4     -0.95      0.00
  -13   23    4      1.07      0.00
  -11   23    4      1.78      0.00
   -9   23    4      1.87      0.00
    7   23    4      2.48      0.00
    9   23    4      2.23      0.00
   11   23    4      0.79      0.00
   13   23    4     -0.34      0.00
  -14   24    4     -2.33      0.00
  -12   24    4     -1.90      0.00
  -10   24    4      1.05      0.00
   -8   24    4     -1.82      0.00
   -6   24    4     -1.30      0.00
   -4   24    4      2.27      0.00
   -2   24    4     -0.41      0.00
    0   24    4     -1.81      0.00
    2   24    4      1.62      0.00
    4   24    4      1.19      0.00
    6   24    4     -1.43      0.00
    8   24    4      0.16      0.00
   10   24    4      1.82      0.00
   26    0    5      0.61      0.00
   28    0    5      3.57      0.00
  -29    1    5     -2.62      0.00
   27    1    5      2.65      0.00
   26    2    5     -0.90      0.00
   28    2    5      1.00      0.00
  -29    3    5     -0.75      0.00
   27    3    5      2.06      0.00
   26    4    5      0.75      0.00
   28    4    5     -0.28      0.00
  -29    5    5     -0.56      0.00
   25    5    5     -1.41      0.00
   27    5    5     -0.70      0.00
  -28    6    5      1.06      0.00
   24    6    5     -0.31      0.00
   26    6    5     -0.61      0.00
  -29    7    5      1.21      0.00
   25    7    5     -1.72      0.00
   27    7    5      0.21      0.00
  -28    8    5     -2.24      0.00
   24    8    5     -0.27      0.00
   26    8    5     -2.61      0.00
  -29    9    5      1.77      0.00
  -27    9    5      1.60      0.00
   25    9    5     -3.83      0.00
  -28   10    5      0.03      0.00
  -26   10    5     -1.42      0.00
   24   10    5      0.85      0.00
   26   10    5     -1.35      0.00
  -27   11    5     -2.18      0.00
  -25   11    5     -1.80      0.00
   23   11    5     -0.30      0.00
   25   11    5     -0.71      0.00
  -28   12    5      1.35      0.00
  -26   12    5     -1.49      0.00
  -24   12    5     -0.73      0.00
   22   12    5     -0.89      0.00
   24   12    5     -0.95      0.00
  -27   13    5     -1.84      0.00
  -25   13    5      2.49      0.00
   21   13    5     -1.39      0.00
   23   13    5     -0.16      0.00
  -26   14    5     -2.85      0.00
  -24   14    5     -4.26      0.00
   20   14    5      3.01      0.00
   22   14    5      0.37      0.00
  -25   15    5      1.97      0.00
  -23   15    5      8.76      0.00
   19   15    5      1.11      0.00
   21   15    5      0.24      0.00
  -24   16    5      0.20      0.00
  -22   16    5      2.46      0.00
   18   16    5     -1.58      0.00
   20   16    5     -0.48      0.00
  -23   17    5      2.52      0.00
  -21   17    5     -2.81      0.00
   17   17    5      2.95      0.00
   19   17    5      1.32      0.00
  -22   18    5      3.68      0.00
  -20   18    5      1.86      0.00
  -18   18    5      3.03      0.00
   16   18    5      1.77      0.00
   18   18    5     -1.50      0.00
  -21   19    5     -0.51      0.00
  -19   19    5     -2.49      0.00
  -17   19    5     -0.83      0.00
   15   19    5     -2.80      0.00
   17   19    5      0.74      0.00
  -20   20    5      0.02      0.00
  -18   20    5     -0.21      0.00
  -16   20    5      0.93      0.00
   12   20    5      2.64      0.00
   14   20    5      1.93      0.00
   16   20    5      1.71      0.00
  -17   21    5     -2.83      0.00
  -15   21    5      0.03      0.00
  -13   21    5      1.52      0.00
    9   21    5      0.00      0.00
   11   21    5      2.02      0.00
   13   21    5     -0.87      0.00
   15   21    5     -2.43      0.00
  -16   22    5     -0.22      0.00
  -14   22    5      2.20      0.00
  -12   22    5      0.91      0.00
  -10   22    5     -1.22      0.00
    6   22    5      0.81      0.00
    8   22    5     -2.70      0.00
   10   22    5     -1.45      0.00
   12   22    5      0.95      0.00
  -13   23    5      1.21      0.00
  -11   23    5     -0.38      0.00
   -9   23    5     -0.39      0.00
   -7   23    5      1.10      0.00
   -5   23    5     -0.30      0.00
    1   23    5     -1.40      0.00
    3   23    5     -1.54      0.00
    5   23    5     -0.17      0.00
    7   23    5      0.40      0.00
    9   23    5      0.08      0.00
   11   23    5     -0.46      0.00
  -12   24    5      1.24      0.00
  -10   24    5      0.73      0.00
   -8   24    5     -1.91      0.00
   -6   24    5      0.65      0.00
   -4   24    5      2.39      0.00
   -2   24    5     -0.22      0.00
    0   24    5      0.37      0.00
    2   24    5      3.01      0.00
    4   24    5      1.36      0.00
    6   24    5     -0.85      0.00
    8   24    5      1.08      0.00
  -28    0    6     -0.72      0.00
   24    0    6      1.11      0.00
   26    0    6      4.62      0.00
  -29    1    6     -0.85      0.00
   25    1    6      3.67      0.00
  -28    2    6      0.53      0.00
   24    2    6     -2.68      0.00
   26    2    6      1.06      0.00
  -29    3    6     -0.95      0.00
   25    3    6      3.58      0.00
  -28    4    6      2.45      0.00
   24    4    6      2.45      0.00
   26    4    6      2.72      0.00
  -29    5    6     -2.13      0.00
  -27    5    6     -0.64      0.00
   23    5    6     -2.86      0.00
   25    5    6     -0.50      0.00
  -28    6    6      0.12      0.00
   24    6    6     -1.36      0.00
   26    6    6     -0.19      0.00
  -29    7    6      1.70      0.00
  -27    7    6      3.35      0.00
   23    7    6      0.71      0.00
   25    7    6      1.13      0.00
  -28    8    6     -3.63      0.00
  -26    8    6     -0.56      0.00
   22    8    6      2.11      0.00
   24    8    6     -1.12      0.00
  -27    9    6     -1.53      0.00
   23    9    6     -2.84      0.00
  -28   10    6     -0.02      0.00
  -26   10    6      4.61      0.00
   22   10    6     -0.16      0.00
   24   10    6     -1.82      0.00
  -27   11    6     -1.63      0.00
  -25   11    6     -0.15      0.00
   21   11    6      3.25      0.00
   23   11    6      2.92      0.00
  -26   12    6     -1.35      0.00
  -24   12    6     -0.55      0.00
   20   12    6     -0.24      0.00
   22   12    6     -1.11      0.00
  -25   13    6      4.57      0.00
  -23   13    6      2.62      0.00
   19   13    6     -4.30      0.00
   21   13    6     -4.66      0.00
  -24   14    6     -2.35      0.00
  -22   14    6     -4.27      0.00
   18   14    6      3.32      0.00
   20   14    6      0.26      0.00
  -23   15    6      1.81      0.00
  -21   15    6      0.51      0.00
   17   15    6      4.13      0.00
   19   15    6      2.09      0.00
   21   15    6     -0.16      0.00
  -22   16    6     -0.25      0.00
  -20   16    6     -1.68      0.00
   16   16    6     -0.01      0.00
   18   16    6     -2.88      0.00
   20   16    6     -2.12      0.00
  -21   17    6     -5.78      0.00
  -19   17    6     -1.27      0.00
   15   17    6      1.95      0.00
   17   17    6     -0.83      0.00
   19   17    6     -0.50      0.00
  -20   18    6      1.23      0.00
  -18   18    6      3.39      0.00
   14   18    6      3.80      0.00
   16   18    6      2.63      0.00
  -19   19    6     -0.68      0.00
  -17   19    6     -0.66      0.00
  -15   19    6     -1.99      0.00
   11   19    6     -0.95      0.00
   13   19    6     -0.87      0.00
   15   19    6      1.26      0.00
  -18   20    6     -0.23      0.00
  -16   20    6      0.68      0.00
  -14   20    6      0.83      0.00
    8   20    6     -4.34      0.00
   10   20    6     -3.12      0.00
   12   20    6     -2.27      0.00
   14   20    6     -0.21      0.00
  -17   21    6     -1.86      0.00
  -15   21    6      0.71      0.00
  -13   21    6     -1.67      0.00
  -11   21    6     -2.48      0.00
    5   21    6      1.92      0.00
    7   21    6      1.07      0.00
    9   21    6      3.14      0.00
   11   21    6      2.02      0.00
   13   21    6     -0.65      0.00
  -14   22    6      1.96      0.00
  -12   22    6      0.14      0.00
  -10   22    6      0.27      0.00
   -8   22    6      1.76      0.00
   -6   22    6     -0.66      0.00
   -4   22    6      0.70      0.00
   -2   22    6      3.41      0.00
    0   22    6      0.72      0.00
    2   22    6      0.87      0.00
    4   22    6      3.02      0.00
    6   22    6      0.25      0.00
    8   22    6     -1.32      0.00
   10   22    6      0.95      0.00
  -11   23    6     -1.35      0.00
   -9   23    6      1.32      0.00
   -7   23    6      0.51      0.00
   -5   23    6     -1.54      0.00
   -3   23    6     -0.58      0.00
   -1   23    6     -0.09      0.00
    1   23    6     -1.48      0.00
    3   23    6     -1.44      0.00
    5   23    6     -1.18      0.00
    7   23    6     -0.91      0.00
   -8   24    6     -1.29      0.00
   -6   24    6      1.55      0.00
   -4   24    6      1.55      0.00
   -2   24    6     -0.08      0.00
    0   24    6      1.68      0.00
    2   24    6      2.43      0.00
    4   24    6     -0.31      0.00
  -28    0    7     -1.46      0.00
  -26    0    7      4.69      0.00
   22    0    7      2.17      0.00
   24    0    7      3.92      0.00
  -29    1    7      1.90      0.00
  -27    1    7     -1.36      0.00
   23    1    7      1.35      0.00
   25    1    7      0.54      0.00
  -28    2    7      0.28      0.00
  -26    2    7      0.78      0.00
   22    2    7     -2.40      0.00
   24    2    7     -0.15      0.00
  -29    3    7      0.24      0.00
  -27    3    7      0.85      0.00
   23    3    7      3.00      0.00
   25    3    7      0.99      0.00
  -28    4    7      1.60      0.00
  -26    4    7     -2.57      0.00
   22    4    7      3.12      0.00
   24    4    7      2.66      0.00
  -27    5    7      0.71      0.00
   21    5    7     -2.83      0.00
   23    5    7     -0.77      0.00
  -28    6    7      0.30      0.00
  -26    6    7     -2.34      0.00
   22    6    7     -1.20      0.00
   24    6    7     -0.95      0.00
  -27    7    7      3.12      0.00
  -25    7    7      1.46      0.00
   21    7    7      1.73      0.00
   23    7    7      0.59      0.00
  -26    8    7     -0.38      0.00
   20    8    7      3.28      0.00
   22    8    7     -0.51      0.00
  -27    9    7     -2.64      0.00
  -25    9    7     -3.25      0.00
   19    9    7      1.79      0.00
   21    9    7      0.07      0.00
   23    9    7     -3.42      0.00
  -26   10    7      4.53      0.00
  -24   10    7      2.11      0.00
   20   10    7     -2.29      0.00
   22   10    7     -3.32      0.00
  -25   11    7     -1.20      0.00
  -23   11    7     -0.70      0.00
   19   11    7      4.55      0.00
   21   11    7      5.31      0.00
  -24   12    7     -2.34      0.00
  -22   12    7     -2.67      0.00
   18   12    7      2.26      0.00
   20   12    7     -0.63      0.00
  -25   13    7      1.20      0.00
  -23   13    7      2.92      0.00
  -21   13    7      2.16      0.00
   17   13    7     -4.00      0.00
   19   13    7     -5.92      0.00
  -24   14    7     -1.64      0.00
  -22   14    7     -1.16      0.00
  -20   14    7      1.81      0.00
   16   14    7      0.72      0.00
   18   14    7      1.00      0.00
  -23   15    7      2.03      0.00
  -21   15    7     -0.39      0.00
  -19   15    7     -3.32      0.00
   15   15    7      3.21      0.00
   17   15    7      3.21      0.00
  -22   16    7     -0.41      0.00
  -20   16    7      2.12      0.00
  -18   16    7      2.21      0.00
   14   16    7      1.35      0.00
   16   16    7     -2.86      0.00
  -21   17    7     -2.03      0.00
  -19   17    7     -0.79      0.00
  -17   17    7     -2.87      0.00
   13   17    7     -1.49      0.00
   15   17    7     -1.86      0.00
  -18   18    7      2.37      0.00
  -16   18    7      0.42      0.00
  -14   18    7      0.47      0.00
   10   18    7     -1.09      0.00
   12   18    7      2.97      0.00
   14   18    7      4.30      0.00
  -17   19    7     -0.85      0.00
  -15   19    7     -1.69      0.00
  -13   19    7      0.38      0.00
    5   19    7     -0.22      0.00
    7   19    7      4.71      0.00
    9   19    7      3.85      0.00
   11   19    7      1.05      0.00
   13   19    7      2.09      0.00
  -16   20    7      1.08      0.00
  -14   20    7      0.19      0.00
  -12   20    7     -0.39      0.00
  -10   20    7      0.25      0.00
   -8   20    7     -3.03      0.00
   -6   20    7     -4.40      0.00
    2   20    7     -0.39      0.00
    4   20    7     -1.96      0.00
    6   20    7     -6.02      0.00
    8   20    7     -5.15      0.00
   10   20    7     -4.56      0.00
   12   20    7     -2.14      0.00
  -13   21    7     -1.71      0.00
  -11   21    7      0.51      0.00
   -9   21    7      2.51      0.00
   -7   21    7     -2.13      0.00
   -5   21    7     -3.09      0.00
   -3   21    7      1.42      0.00
   -1   21    7     -0.92      0.00
    1   21    7     -2.65      0.00
    3   21    7      0.73      0.00
    5   21    7      1.76      0.00
    7   21    7      2.54      0.00
    9   21    7      2.56      0.00
  -10   22    7      1.00      0.00
   -8   22    7      0.46      0.00
   -6   22    7     -1.36      0.00
   -4   22    7      0.69      0.00
   -2   22    7      1.33      0.00
    0   22    7     -0.99      0.00
    2   22    7      0.86      0.00
    4   22    7      1.05      0.00
    6   22    7     -1.19      0.00
   -7   23    7     -2.14      0.00
   -5   23    7     -2.13      0.00
   -3   23    7     -0.23      0.00
   -1   23    7     -1.16      0.00
    1   23    7     -1.88      0.00
    3   23    7     -1.30      0.00
  -28    0    8      1.91      0.00
  -26    0    8      1.32      0.00
  -24    0    8     -4.45      0.00
   20    0    8     -0.71      0.00
   22    0    8     -0.96      0.00
  -27    1    8     -2.84      0.00
  -25    1    8      0.85      0.00
   21    1    8     -1.76      0.00
   23    1    8     -0.51      0.00
  -28    2    8      1.51      0.00
  -26    2    8     -0.15      0.00
   20    2    8     -1.33      0.00
   22    2    8     -1.88      0.00
  -27    3    8     -0.86      0.00
  -25    3    8      1.06      0.00
   21    3    8     -0.14      0.00
  -26    4    8     -2.81      0.00
  -24    4    8      1.42      0.00
   20    4    8      0.69      0.00
   22    4    8      0.06      0.00
  -27    5    8     -1.78      0.00
  -25    5    8     -0.74      0.00
   19    5    8     -2.30      0.00
   21    5    8     -1.36      0.00
  -26    6    8     -2.24      0.00
  -24    6    8      0.58      0.00
   20    6    8     -0.56      0.00
   22    6    8     -0.48      0.00
  -25    7    8      2.70      0.00
  -23    7    8      3.96      0.00
   19    7    8     -0.82      0.00
   21    7    8     -1.29      0.00
  -26    8    8     -2.13      0.00
  -24    8    8     -1.75      0.00
   18    8    8      1.59      0.00
   20    8    8     -0.21      0.00
  -25    9    8     -1.54      0.00
  -23    9    8     -0.91      0.00
   17    9    8     -0.46      0.00
   19    9    8      0.86      0.00
  -24   10    8      2.27      0.00
  -22   10    8      0.89      0.00
   18   10    8     -2.13      0.00
   20   10    8     -2.54      0.00
  -23   11    8      1.37      0.00
  -21   11    8      3.34      0.00
   17   11    8      0.99      0.00
   19   11    8      3.25      0.00
  -24   12    8     -0.89      0.00
  -22   12    8     -1.80      0.00
  -20   12    8     -3.71      0.00
   16   12    8      4.80      0.00
   18   12    8      0.28      0.00
  -23   13    8      0.73      0.00
  -21   13    8     -2.32      0.00
  -19   13    8     -2.17      0.00
   15   13    8     -1.10      0.00
   17   13    8     -2.66      0.00
  -22   14    8      2.23      0.00
  -20   14    8      0.96      0.00
  -18   14    8      0.42      0.00
   14   14    8     -1.84      0.00
   16   14    8      1.54      0.00
  -21   15    8     -3.93      0.00
  -19   15    8     -0.80      0.00
  -17   15    8      2.07      0.00
   11   15    8     -0.65      0.00
   13   15    8      1.10      0.00
   15   15    8      2.79      0.00
  -20   16    8      1.40      0.00
  -18   16    8      0.55      0.00
  -16   16    8      0.72      0.00
   10   16    8      3.15      0.00
   12   16    8      2.61      0.00
   14   16    8     -0.82      0.00
  -17   17    8     -1.86      0.00
  -15   17    8      0.05      0.00
  -13   17    8      4.37      0.00
    7   17    8      0.59      0.00
    9   17    8     -6.15      0.00
   11   17    8     -5.48      0.00
   13   17    8     -2.28      0.00
  -16   18    8     -0.16      0.00
  -14   18    8      1.57      0.00
  -12   18    8      0.42      0.00
  -10   18    8     -4.62      0.00
    4   18    8     -0.97      0.00
    6   18    8      2.40      0.00
    8   18    8      0.37      0.00
   10   18    8      0.46      0.00
   12   18    8      2.64      0.00
  -15   19    8     -0.76      0.00
  -13   19    8      1.69      0.00
  -11   19    8      1.56      0.00
   -9   19    8      1.08      0.00
   -7   19    8      1.72      0.00
   -5   19    8      2.76      0.00
   -3   19    8      3.62      0.00
   -1   19    8      0.57      0.00
    1   19    8     -0.80      0.00
    3   19    8     -0.06      0.00
    5   19    8      2.70      0.00
    7   19    8      3.90      0.00
    9   19    8      0.80      0.00
  -12   20    8      0.80      0.00
  -10   20    8     -1.07      0.00
   -8   20    8     -3.39      0.00
   -6   20    8     -1.37      0.00
   -4   20    8      3.77      0.00
   -2   20    8      1.51      0.00
    0   20    8     -0.97      0.00
    2   20    8     -1.17      0.00
    4   20    8     -2.92      0.00
    6   20    8     -2.49      0.00
    8   20    8     -2.41      0.00
   -9   21    8      0.65      0.00
   -7   21    8     -1.26      0.00
   -5   21    8      1.62      0.00
   -3   21    8      2.44      0.00
   -1   21    8     -1.74      0.00
    1   21    8     -0.12      0.00
    3   21    8      2.54      0.00
    5   21    8      1.49      0.00
  -26    0    9     -2.42      0.00
  -24    0    9     -3.33      0.00
   18    0    9     -6.50      0.00
   20    0    9     -5.34      0.00
  -25    1    9      2.40      0.00
  -23    1    9      0.51      0.00
   17    1    9      1.17      0.00
   19    1    9     -3.14      0.00
  -26    2    9      0.02      0.00
  -24    2    9      0.86      0.00
   18    2    9     -0.60      0.00
   20    2    9     -0.83      0.00
  -25    3    9      1.02      0.00
  -23    3    9     -0.09      0.00
   17    3    9     -2.38      0.00
   19    3    9     -2.59      0.00
  -24    4    9      2.47      0.00
  -22    4    9     -1.08      0.00
   18    4    9     -1.72      0.00
   20    4    9     -1.61      0.00
  -25    5    9     -0.40      0.00
  -23    5    9     -1.82      0.00
   17    5    9     -0.49      0.00
   19    5    9      0.95      0.00
  -24    6    9      3.75      0.00
  -22    6    9      0.51      0.00
   16    6    9      2.45      0.00
   18    6    9      1.77      0.00
  -23    7    9     -0.81      0.00
  -21    7    9     -0.34      0.00
   15    7    9     -4.99      0.00
   17    7    9     -1.70      0.00
   19    7    9     -0.56      0.00
  -24    8    9     -0.02      0.00
  -22    8    9     -1.94      0.00
  -20    8    9     -3.69      0.00
   14    8    9     -0.82      0.00
   16    8    9      1.19      0.00
   18    8    9      1.02      0.00
  -23    9    9     -0.47      0.00
  -21    9    9      0.73      0.00
   15    9    9      0.00      0.00
   17    9    9      2.36      0.00
  -22   10    9     -0.90      0.00
  -20   10    9      0.41      0.00
   14   10    9     -0.85      0.00
   16   10    9     -0.92      0.00
  -21   11    9      0.45      0.00
  -19   11    9      0.79      0.00
   13   11    9     -4.27      0.00
   15   11    9     -1.32      0.00
  -20   12    9     -0.53      0.00
  -18   12    9      0.81      0.00
   12   12    9      0.22      0.00
   14   12    9      3.66      0.00
   16   12    9      0.51      0.00
  -19   13    9      1.69      0.00
  -17   13    9      4.30      0.00
  -15   13    9     -0.71      0.00
   11   13    9     -1.87      0.00
   13   13    9     -0.48      0.00
   15   13    9      0.65      0.00
  -18   14    9      1.44      0.00
  -16   14    9     -0.33      0.00
  -14   14    9     -4.82      0.00
    8   14    9      0.88      0.00
   10   14    9     -2.48      0.00
   12   14    9     -3.33      0.00
   14   14    9      0.85      0.00
  -17   15    9     -0.09      0.00
  -15   15    9     -0.80      0.00
  -13   15    9     -1.86      0.00
    7   15    9     -0.59      0.00
    9   15    9     -1.94      0.00
   11   15    9     -0.21      0.00
  -16   16    9      0.05      0.00
  -14   16    9     -1.22      0.00
  -12   16    9     -2.29      0.00
  -10   16    9      0.20      0.00
    4   16    9      2.69      0.00
    6   16    9      2.64      0.00
    8   16    9      2.86      0.00
   10   16    9      2.70      0.00
  -15   17    9      1.58      0.00
  -13   17    9      1.21      0.00
  -11   17    9     -3.36      0.00
   -9   17    9      0.06      0.00
   -7   17    9      2.97      0.00
   -5   17    9     -0.86      0.00
   -3   17    9     -2.90      0.00
   -1   17    9      0.40      0.00
    1   17    9     -1.77      0.00
    3   17    9     -1.79      0.00
    5   17    9      1.51      0.00
    7   17    9     -2.63      0.00
    9   17    9     -4.00      0.00
  -12   18    9     -3.20      0.00
  -10   18    9     -3.44      0.00
   -8   18    9      1.06      0.00
   -6   18    9      0.37      0.00
   -4   18    9     -3.88      0.00
   -2   18    9     -2.81      0.00
    0   18    9     -0.16      0.00
    2   18    9      0.10      0.00
    4   18    9      1.94      0.00
    6   18    9      1.83      0.00
   -9   19    9      0.96      0.00
   -7   19    9      1.94      0.00
   -5   19    9      1.72      0.00
   -3   19    9     -1.47      0.00
   -1   19    9     -1.48      0.00
    1   19    9      0.36      0.00
    3   19    9      1.01      0.00
    5   19    9      1.33      0.00
   -6   20    9      1.43      0.00
   -4   20    9      1.04      0.00
   -2   20    9     -1.66      0.00
    0   20    9     -1.46      0.00
  -24    0   10     -1.53      0.00
  -22    0   10     -2.29      0.00
  -20    0   10     -4.72      0.00
   14    0   10     -3.92      0.00
   16    0   10     -3.79      0.00
  -23    1   10     -0.64      0.00
  -21    1   10      3.58      0.00
   13    1   10      1.99      0.00
   15    1   10      3.90      0.00
   17    1   10      1.46      0.00
  -22    2   10      1.10      0.00
  -20    2   10      0.41      0.00
   14    2   10      2.41      0.00
   16    2   10      3.05      0.00
  -23    3   10     -1.32      0.00
  -21    3   10     -0.90      0.00
   13    3   10      0.23      0.00
   15    3   10      0.22      0.00
   17    3   10     -1.22      0.00
  -22    4   10     -1.17      0.00
  -20    4   10      1.14      0.00
   14    4   10     -2.12      0.00
   16    4   10     -1.36      0.00
  -23    5   10     -0.22      0.00
  -21    5   10     -0.60      0.00
  -19    5   10      3.28      0.00
   13    5   10      0.16      0.00
   15    5   10      2.07      0.00
   17    5   10      1.46      0.00
  -22    6   10     -0.10      0.00
  -20    6   10      1.73      0.00
  -18    6   10      0.92      0.00
   12    6   10      1.76      0.00
   14    6   10      3.42      0.00
   16    6   10      2.87      0.00
  -21    7   10      1.28      0.00
  -19    7   10      1.93      0.00
  -17    7   10      1.97      0.00
   11    7   10     -5.61      0.00
   13    7   10     -5.56      0.00
   15    7   10     -1.54      0.00
  -20    8   10     -0.27      0.00
  -18    8   10     -1.57      0.00
   10    8   10      0.09      0.00
   12    8   10     -1.52      0.00
   14    8   10      0.89      0.00
  -21    9   10      1.92      0.00
  -19    9   10      0.22      0.00
  -17    9   10     -0.58      0.00
    9    9   10      6.40      0.00
   11    9   10      2.73      0.00
   13    9   10      1.65      0.00
   15    9   10      3.25      0.00
  -20   10   10     -0.04      0.00
  -18   10   10     -0.38      0.00
  -16   10   10     -0.43      0.00
    8   10   10     -1.95      0.00
   10   10   10     -0.87      0.00
   12   10   10     -0.45      0.00
   14   10   10      0.85      0.00
  -19   11   10      0.44      0.00
  -17   11   10     -1.50      0.00
  -15   11   10     -2.87      0.00
    7   11   10     -0.54      0.00
    9   11   10      0.11      0.00
   11   11   10     -2.02      0.00
   13   11   10     -0.30      0.00
  -18   12   10     -0.44      0.00
  -16   12   10     -1.78      0.00
  -14   12   10     -1.42      0.00
  -12   12   10      2.63      0.00
    6   12   10      1.84      0.00
    8   12   10      1.70      0.00
   10   12   10      1.04      0.00
   12   12   10      2.86      0.00
  -17   13   10      0.66      0.00
  -15   13   10     -1.82      0.00
  -13   13   10      2.37      0.00
  -11   13   10      6.17      0.00
   -9   13   10     -1.01      0.00
    3   13   10      2.16      0.00
    5   13   10      0.65      0.00
    7   13   10      1.13      0.00
    9   13   10      0.30      0.00
   11   13   10      0.14      0.00
  -16   14   10     -2.71      0.00
  -14   14   10     -1.71      0.00
  -12   14   10      1.82      0.00
  -10   14   10     -0.72      0.00
   -8   14   10     -0.59      0.00
   -6   14   10      1.32      0.00
   -4   14   10     -1.97      0.00
   -2   14   10      0.62      0.00
    0   14   10      2.21      0.00
    2   14   10     -1.16      0.00
    4   14   10     -1.28      0.00
    6   14   10      0.34      0.00
    8   14   10     -0.41      0.00
   10   14   10     -1.69      0.00
  -13   15   10     -0.19      0.00
  -11   15   10      1.53      0.00
   -9   15   10      0.61      0.00
   -7   15   10     -4.58      0.00
   -5   15   10     -6.47      0.00
   -3   15   10     -0.01      0.00
   -1   15   10     -0.70      0.00
    1   15   10     -4.51      0.00
    3   15   10     -1.18      0.00
    5   15   10     -0.45      0.00
    7   15   10     -1.94      0.00
  -12   16   10      2.03      0.00
  -10   16   10      2.50      0.00
   -8   16   10      2.50      0.00
   -6   16   10      0.27      0.00
   -4   16   10     -0.24      0.00
   -2   16   10      4.63      0.00
    0   16   10      3.76      0.00
    2   16   10      0.52      0.00
    4   16   10      1.46      0.00
    6   16   10      1.38      0.00
   -9   17   10      2.51      0.00
   -7   17   10      0.30      0.00
   -5   17   10     -2.82      0.00
   -3   17   10      1.60      0.00
   -1   17   10      1.61      0.00
    1   17   10     -1.85      0.00
    3   17   10     -0.30      0.00
  -20    0   11     -4.13      0.00
  -18    0   11     -0.80      0.00
  -16    0   11      2.55      0.00
  -14    0   11     -1.38      0.00
    8    0   11     -1.45      0.00
   10    0   11     -1.50      0.00
   12    0   11     -1.67      0.00
   14    0   11     -1.79      0.00
  -21    1   11      3.30      0.00
  -19    1   11      0.41      0.00
  -17    1   11     -2.89      0.00
  -15    1   11     -2.34      0.00
    9    1   11      0.65      0.00
   11    1   11      1.70      0.00
   13    1   11      1.56      0.00
  -20    2   11     -1.07      0.00
  -18    2   11      0.95      0.00
  -16    2   11      3.73      0.00
  -14    2   11      2.43      0.00
    8    2   11      0.61      0.00
   10    2   11      0.55      0.00
   12    2   11      1.66      0.00
   14    2   11      2.05      0.00
  -19    3   11      0.24      0.00
  -17    3   11     -4.21      0.00
  -15    3   11     -5.75      0.00
    9    3   11     -0.96      0.00
   11    3   11      0.40      0.00
   13    3   11      1.17      0.00
  -20    4   11     -1.71      0.00
  -18    4   11     -0.73      0.00
  -16    4   11      1.05      0.00
  -14    4   11      2.43      0.00
    8    4   11      1.51      0.00
   10    4   11     -0.87      0.00
   12    4   11     -0.70      0.00
  -19    5   11      1.65      0.00
  -17    5   11     -0.96      0.00
  -15    5   11     -1.38      0.00
    7    5   11      0.55      0.00
    9    5   11     -1.55      0.00
   11    5   11     -0.06      0.00
   13    5   11      3.37      0.00
  -18    6   11     -2.20      0.00
  -16    6   11     -2.06      0.00
  -14    6   11     -1.20      0.00
    6    6   11      1.12      0.00
    8    6   11      4.31      0.00
   10    6   11      1.72      0.00
   12    6   11      1.90      0.00
  -19    7   11      0.49      0.00
  -17    7   11      2.03      0.00
  -15    7   11      1.88      0.00
  -13    7   11      0.44      0.00
    5    7   11     -1.07      0.00
    7    7   11     -0.04      0.00
    9    7   11     -2.13      0.00
   11    7   11     -3.21      0.00
  -18    8   11     -2.89      0.00
  -16    8   11     -1.51      0.00
  -14    8   11     -0.09      0.00
  -12    8   11      0.40      0.00
    4    8   11     -1.91      0.00
    6    8   11     -1.69      0.00
    8    8   11      0.63      0.00
   10    8   11     -1.24      0.00
  -17    9   11      2.78      0.00
  -15    9   11      2.03      0.00
  -13    9   11      0.46      0.00
  -11    9   11      0.03      0.00
   -9    9   11      0.79      0.00
    1    9   11     -0.73      0.00
    3    9   11      0.42      0.00
    5    9   11      0.40      0.00
    7    9   11      3.06      0.00
    9    9   11      2.33      0.00
  -16   10   11     -0.08      0.00
  -14   10   11      0.59      0.00
  -12   10   11     -0.34      0.00
  -10   10   11     -2.23      0.00
   -8   10   11      0.83      0.00
   -6   10   11      2.81      0.00
   -4   10   11      4.22      0.00
   -2   10   11      1.78      0.00
    0   10   11      1.21      0.00
    2   10   11      2.61      0.00
    4   10   11     -1.17      0.00
    6   10   11     -2.52      0.00
    8   10   11     -1.35      0.00
  -15   11   11     -0.12      0.00
  -13   11   11      1.61      0.00
  -11   11   11     -0.59      0.00
   -9   11   11     -3.23      0.00
   -7   11   11     -0.15      0.00
   -5   11   11      1.18      0.00
   -3   11   11     -0.92      0.00
   -1   11   11     -1.50      0.00
    1   11   11     -0.27      0.00
    3   11   11     -1.03      0.00
    5   11   11     -1.29      0.00
    7   11   11      0.07      0.00
  -14   12   11      1.09      0.00
  -12   12   11      1.03      0.00
  -10   12   11     -0.07      0.00
   -8   12   11      2.26      0.00
   -6   12   11      1.58      0.00
   -4   12   11      1.10      0.00
   -2   12   11     -0.74      0.00
    0   12   11     -1.67      0.00
    2   12   11     -0.12      0.00
    4   12   11     -0.79      0.00
    6   12   11     -0.45      0.00
  -11   13   11     -0.25      0.00
   -9   13   11     -3.89      0.00
   -7   13   11      0.89      0.00
   -5   13   11      4.17      0.00
   -3   13   11      1.49      0.00
   -1   13   11      0.45      0.00
    1   13   11      2.02      0.00
    3   13   11      0.82      0.00
    5   13   11     -0.31      0.00
  -10   14   11     -1.00      0.00
   -8   14   11      1.06      0.00
   -6   14   11      0.24      0.00
   -4   14   11      1.34      0.00
   -2   14   11      1.11      0.00
    0   14   11     -0.87      0.00
    2   14   11     -0.37      0.00
   -5   15   11      0.41      0.00
   -3   15   11      0.25      0.00
    0    0    0      0.00      0.00
# SQUEEZE RESULTS (Version = 301214)
# Note: Data are Listed for all Voids in the P1 Unit Cell
# i.e. Centre of Gravity, Solvent Accessible Volume,
# Recovered number of Electrons in the Void and
# Details about the Squeezed Material
loop_
  _platon_squeeze_void_nr
  _platon_squeeze_void_average_x
  _platon_squeeze_void_average_y
  _platon_squeeze_void_average_z
  _platon_squeeze_void_volume
  _platon_squeeze_void_count_electrons
  _platon_squeeze_void_content
   1  0.500  0.000  0.000       481       115 ' '
   2  0.000  0.500  0.000       481       115 ' '
   3  0.000  0.000  0.500       263        80 ' '
   4  0.500  0.500  0.500       263        80 ' '
   5  0.294  0.000  0.398         6         0 ' '
   6  0.794  0.500  0.398         6         0 ' '
   7  0.706  0.000  0.602         6         0 ' '
   8  0.206  0.500  0.602         5         0 ' '
_platon_squeeze_void_probe_radius                  1.20
_platon_squeeze_details
)
TITL exp_8657 in C2/m
CELL   25.0141   21.2383   10.0324     90.00     97.17     90.00
SPGR C2/m
# Solvent Accessible Volume =    1560.3
# Electrons Found in S.A.V. =     388.7
# Note: Atoms in Void as Cxxx and Qxxx all others
Q101 0.155 0.129 0.118 !       3.82 eA-3
C102 0.640 0.493 0.250 !       3.16 eA-3
Q103 0.506 0.218 0.174 !       2.75 eA-3
C104 0.110 0.502 0.250 !       2.48 eA-3
C105 0.586 0.475 0.337 !       2.22 eA-3
C106 0.146 0.039 0.187 !       2.12 eA-3
C107 0.594 0.507 0.281 !       1.70 eA-3
Q108 0.017 0.084 0.454 !       1.64 eA-3
C109 0.615 0.070 0.276 !       1.62 eA-3
C110 0.536 0.506 0.437 !       1.52 eA-3
C111 0.602 0.445 0.222 !       1.51 eA-3
Q112 0.139 0.252 0.291 !       1.42 eA-3
C113 0.101 0.507 0.125 !       1.38 eA-3
C114 0.134 0.049 0.322 !       1.35 eA-3
Q115 0.759 0.154 0.506 !       1.30 eA-3
Q116 0.827 0.230 0.181 !       1.20 eA-3
Q117 0.798 0.213 0.388 !       1.17 eA-3
C118 0.577 0.108-0.005 !       1.16 eA-3
C119 0.530 0.235 0.047 !       1.13 eA-3
Q120 0.866 0.207 0.179 !       1.10 eA-3
Q121 0.377 0.347 0.116 !       1.09 eA-3
Q122 0.326 0.220 0.089 !       1.06 eA-3
Q123 0.477 0.503 0.031 !       0.96 eA-3
Q124 0.773 0.178 0.378 !       0.96 eA-3
Q125 0.882 0.241 0.275 !       0.95 eA-3
C126 0.081 0.433 0.062 !       0.95 eA-3
C127 0.078 0.502 0.032 !       0.94 eA-3
Q128 0.914 0.287 0.314 !       0.93 eA-3
C129 0.485 0.190 0.109 !       0.92 eA-3
C130 0.086 0.472 0.036 !       0.92 eA-3
Q131 0.260 0.161 0.195 !       0.91 eA-3
Q132 0.093 0.199 0.249 !       0.91 eA-3
C133 0.546 0.082 0.074 !       0.90 eA-3
Q134 0.258 0.367 0.264 !       0.89 eA-3
Q135 0.759 0.116 0.299 !       0.88 eA-3
Q136 0.844 0.201 0.273 !       0.88 eA-3
Q137 0.891 0.128 0.328 !       0.86 eA-3
Q138 0.404 0.501 0.219 !       0.83 eA-3
Q139 0.743 0.164 0.137 !       0.82 eA-3
C140 0.073 0.386 0.128 !       0.82 eA-3
C141 0.041 0.364 0.024 !       0.80 eA-3
Q142 0.859 0.347 0.408 !       0.80 eA-3
Q143 0.748 0.026 0.160 !       0.78 eA-3
Q144 0.642 0.301 0.197 !       0.77 eA-3
Q145 0.728 0.136 0.020 !       0.76 eA-3
Q146 0.344 0.230 0.284 !       0.75 eA-3
Q147 0.228 0.434 0.020 !       0.74 eA-3
Q148 0.774 0.036 0.385 !       0.74 eA-3
Q149 0.759 0.070 0.264 !       0.73 eA-3
Q150 0.062 0.091 0.384 !       0.73 eA-3
Q151 0.283 0.171 0.087 !       0.73 eA-3
Q152 0.921 0.061 0.174 !       0.70 eA-3
C153 0.526 0.105 0.050 !       0.68 eA-3
Q154 0.953 0.354 0.488 !       0.68 eA-3
Q155 0.398 0.369 0.269 !       0.68 eA-3
Q156 0.549 0.325 0.381 !       0.66 eA-3
C157 0.546 0.204-0.009 !       0.66 eA-3
Q158 0.364 0.236 0.194 !       0.66 eA-3
Q159 0.500 0.172 0.487 !       0.66 eA-3
Q160 0.282 0.039 0.093 !       0.65 eA-3
C161 0.493 0.125 0.128 !       0.64 eA-3
Q162 0.294 0.274 0.251 !       0.64 eA-3
C163 0.150 0.496 0.406 !       0.62 eA-3
C164 0.047 0.403 0.180 !       0.61 eA-3
Q165 0.453 0.057 0.492 !       0.60 eA-3
Q166 0.953 0.432 0.445 !       0.59 eA-3
Q167 0.461 0.447 0.074 !       0.59 eA-3
Q168 0.408 0.038 0.378 !       0.56 eA-3
Q169 0.102 0.173 0.361 !       0.56 eA-3
Q170 0.479 0.383 0.057 !       0.55 eA-3
Q171 0.353 0.504 0.219 !       0.53 eA-3
Q172 0.391 0.328 0.254 !       0.52 eA-3
Q173 0.500 0.031 0.505 !       0.51 eA-3
Q174 0.118 0.287 0.157 !       0.50 eA-3
)
;
_shelx_fab_checksum              23443
loop_
_space_group_symop_operation_xyz
'x, y, z'
'-x, y, -z'
'x+1/2, y+1/2, z'
'-x+1/2, y+1/2, -z'
'-x, -y, -z'
'x, -y, z'
'-x+1/2, -y+1/2, -z'
'x+1/2, -y+1/2, z'
loop_
_atom_site_label
_atom_site_type_symbol
_atom_site_fract_x
_atom_site_fract_y
_atom_site_fract_z
_atom_site_U_iso_or_equiv
_atom_site_adp_type
_atom_site_occupancy
_atom_site_site_symmetry_order
_atom_site_calc_flag
_atom_site_refinement_flags_posn
_atom_site_refinement_flags_adp
_atom_site_refinement_flags_occupancy
_atom_site_disorder_assembly
_atom_site_disorder_group
C1 C 0.2880(2) 0.1722(2) 0.0982(6) 0.0186(12) Uani 1 1 d . . . . .
C2 C 0.2719(2) 0.1334(2) -0.0249(5) 0.0160(11) Uani 1 1 d . . . . .
C3 C 0.2579(2) 0.1651(2) -0.1446(5) 0.0141(11) Uani 1 1 d . . . . .
H3 H 0.259802 0.209762 -0.145450 0.017 Uiso 1 1 calc R U . . .
C4 C 0.2410(2) 0.1335(2) -0.2635(5) 0.0135(10) Uani 1 1 d . . . . .
C5 C 0.2263(2) 0.1738(2) -0.3854(5) 0.0158(11) Uani 1 1 d . . . . .
C6 C 0.2399(2) 0.0672(2) -0.2660(5) 0.0134(10) Uani 1 1 d . . . . .
C7 C 0.2232(2) 0.0316(3) -0.3864(5) 0.0171(11) Uani 1 1 d . . . . .
H7 H 0.211947 0.053426 -0.467707 0.021 Uiso 1 1 calc R U . . .
C8 C 0.2843(3) 0.0319(3) 0.0986(6) 0.0263(13) Uani 1 1 d . . . . .
H8 H 0.294283 0.053665 0.180641 0.032 Uiso 1 1 calc R U . . .
C9 C 0.2699(2) 0.0670(3) -0.0205(6) 0.0176(11) Uani 1 1 d . . . . .
C10 C 0.2543(2) 0.0338(2) -0.1437(5) 0.0148(11) Uani 1 1 d . . . . .
C11 C 0.4062(2) 0.1720(3) 0.3881(7) 0.0265(14) Uani 1 1 d . . . . .
C12 C 0.4548(2) 0.1332(3) 0.4427(7) 0.0282(14) Uani 1 1 d . . . . .
C13 C 0.500000 0.1650(4) 0.500000 0.033(2) Uani 1 2 d S T P . .
H13 H 0.500000 0.209704 0.499998 0.039 Uiso 1 2 calc R U P . .
C14 C 0.4085(3) 0.0319(3) 0.3781(9) 0.0401(19) Uani 1 1 d . . . . .
H14 H 0.377844 0.053791 0.335691 0.048 Uiso 1 1 calc R U . . .
C15 C 0.4538(2) 0.0673(3) 0.4408(7) 0.0293(15) Uani 1 1 d . . . . .
C16 C 0.500000 0.0337(4) 0.500000 0.027(2) Uani 1 2 d S T P . .
C17 C 0.3971(2) 0.3840(3) 0.2321(7) 0.0247(13) Uani 1 1 d . . . . .
C18 C 0.4199(2) 0.4429(3) 0.1785(7) 0.0234(13) Uani 1 1 d . . . . .
C19 C 0.4032(4) 0.500000 0.2239(10) 0.0250(18) Uani 1 2 d S T P . .
H19 H 0.378989 0.500000 0.289680 0.030 Uiso 1 2 calc R U P . .
C20 C 0.4805(3) 0.3843(3) 0.0405(7) 0.0291(14) Uani 1 1 d . . . . .
H20 H 0.466303 0.345331 0.066850 0.035 Uiso 1 1 calc R U . . .
C21 C 0.4599(2) 0.4419(3) 0.0874(7) 0.0252(13) Uani 1 1 d . . . . .
C22 C 0.4795(3) 0.500000 0.0445(9) 0.0233(18) Uani 1 2 d S T P . .
LI1 Li 0.2883(4) 0.1849(4) 0.3853(9) 0.0172(18) Uani 1 1 d . . . . .
O1 O 0.32232(17) 0.21496(18) 0.0873(4) 0.0222(9) Uani 1 1 d . . . . .
O2 O 0.2658(2) 0.16183(19) 0.2019(4) 0.0297(10) Uani 1 1 d . . . . .
O3 O 0.19836(16) 0.22332(16) -0.3692(4) 0.0153(8) Uani 1 1 d . . . . .
O4 O 0.24247(19) 0.16055(17) -0.4933(4) 0.0262(10) Uani 1 1 d . . . . .
O5 O 0.41611(18) 0.22117(19) 0.3238(5) 0.0313(11) Uani 1 1 d . . . . .
O6 O 0.36092(19) 0.1555(2) 0.4098(6) 0.0415(13) Uani 1 1 d . . . . .
O7 O 0.38035(18) 0.34161(18) 0.1460(5) 0.0277(10) Uani 1 1 d . . . . .
O8 O 0.3947(2) 0.3789(2) 0.3531(5) 0.0426(13) Uani 1 1 d . . . . .
ZN1 Zn 0.35423(3) 0.26896(3) 0.23699(7) 0.0149(3) Uani 1 1 d . . . . .
N1 N 0.4030(19) 0.2964(16) 0.632(2) 0.23(3) Uani 0.51(2) 1 d D U P A 1
H1A H 0.380068 0.328019 0.647405 0.274 Uiso 0.51(2) 1 calc R U P A 1
H1B H 0.392476 0.281438 0.547666 0.274 Uiso 0.51(2) 1 calc R U P A 1
C23 C 0.460(2) 0.3240(19) 0.636(5) 0.20(3) Uani 0.51(2) 1 d D . P A 1
H23A H 0.475544 0.306675 0.558524 0.293 Uiso 0.51(2) 1 d R U P A 1
H23B H 0.480984 0.309805 0.719034 0.293 Uiso 0.51(2) 1 d R U P A 1
H23C H 0.460624 0.370155 0.631534 0.293 Uiso 0.51(2) 1 d R U P A 1
C24 C 0.397(3) 0.244(2) 0.732(5) 0.54(14) Uani 0.51(2) 1 d D . P A 1
H24A H 0.426560 0.212765 0.740359 0.804 Uiso 0.51(2) 1 d R U P A 1
H24B H 0.363160 0.222915 0.701189 0.804 Uiso 0.51(2) 1 d R U P A 1
H24C H 0.395301 0.263675 0.819209 0.804 Uiso 0.51(2) 1 d R U P A 1
N1' N 0.4079(12) 0.296(2) 0.750(3) 0.20(2) Uani 0.49(2) 1 d D . P A 2
H1'A H 0.408471 0.257047 0.711880 0.235 Uiso 0.49(2) 1 calc R U P A 2
H1'B H 0.439718 0.301124 0.803679 0.235 Uiso 0.49(2) 1 calc R U P A 2
C23' C 0.4043(17) 0.346(3) 0.637(4) 0.20(2) Uani 0.49(2) 1 d D . P A 2
H23D H 0.386366 0.321859 0.560806 0.294 Uiso 0.49(2) 1 d R U P A 2
H23E H 0.439966 0.359259 0.617326 0.294 Uiso 0.49(2) 1 d R U P A 2
H23F H 0.382626 0.383119 0.652116 0.294 Uiso 0.49(2) 1 d R U P A 2
C24' C 0.3624(16) 0.298(3) 0.836(4) 0.19(3) Uani 0.49(2) 1 d D . P A 2
H24D H 0.329710 0.278562 0.790468 0.292 Uiso 0.49(2) 1 d R U P A 2
H24E H 0.355130 0.342292 0.855718 0.292 Uiso 0.49(2) 1 d R U P A 2
H24F H 0.373610 0.275772 0.920828 0.292 Uiso 0.49(2) 1 d R U P A 2
loop_
_atom_site_aniso_label
_atom_site_aniso_U_11
_atom_site_aniso_U_22
_atom_site_aniso_U_33
_atom_site_aniso_U_23
_atom_site_aniso_U_13
_atom_site_aniso_U_12
C1 0.024(3) 0.010(2) 0.020(3) 0.001(2) -0.004(2) 0.003(2)
C2 0.018(3) 0.011(3) 0.018(3) -0.002(2) -0.003(2) 0.000(2)
C3 0.017(3) 0.008(2) 0.017(3) -0.0005(19) 0.000(2) 0.0012(18)
C4 0.013(2) 0.010(2) 0.017(3) -0.0014(19) -0.0019(19) 0.0006(19)
C5 0.025(3) 0.006(2) 0.016(3) -0.0020(19) 0.000(2) -0.003(2)
C6 0.012(2) 0.010(2) 0.017(3) 0.0012(19) -0.003(2) 0.0009(18)
C7 0.027(3) 0.009(2) 0.013(3) 0.000(2) -0.004(2) 0.001(2)
C8 0.042(4) 0.015(3) 0.017(3) -0.005(2) -0.012(3) 0.001(3)
C9 0.021(3) 0.011(2) 0.019(3) -0.001(2) -0.004(2) 0.001(2)
C10 0.017(3) 0.010(3) 0.016(3) 0.000(2) -0.005(2) -0.001(2)
C11 0.022(3) 0.012(3) 0.040(4) 0.001(2) -0.016(3) 0.001(2)
C12 0.021(3) 0.013(3) 0.046(4) 0.003(3) -0.014(3) 0.004(2)
C13 0.030(5) 0.008(4) 0.054(6) 0.000 -0.014(4) 0.000
C14 0.023(3) 0.015(3) 0.074(5) 0.001(3) -0.027(3) 0.003(3)
C15 0.018(3) 0.013(3) 0.051(4) 0.003(3) -0.018(3) -0.001(2)
C16 0.020(4) 0.004(4) 0.050(5) 0.000 -0.017(4) 0.000
C17 0.020(3) 0.013(3) 0.041(4) 0.002(2) 0.007(3) 0.001(2)
C18 0.020(3) 0.010(3) 0.041(4) 0.000(2) 0.009(3) 0.000(2)
C19 0.024(4) 0.014(4) 0.040(5) 0.000 0.012(4) 0.000
C20 0.026(3) 0.007(3) 0.057(4) 0.001(3) 0.014(3) -0.002(2)
C21 0.021(3) 0.010(3) 0.046(4) 0.001(2) 0.012(3) -0.003(2)
C22 0.020(4) 0.007(4) 0.044(5) 0.000 0.009(4) 0.000
LI1 0.017(5) 0.011(4) 0.021(5) 0.004(3) -0.003(4) 0.003(3)
O1 0.028(2) 0.0124(18) 0.026(2) -0.0046(16) 0.0039(17) -0.0054(16)
O2 0.050(3) 0.019(2) 0.020(2) -0.0083(16) 0.0042(19) -0.0134(19)
O3 0.022(2) 0.0041(16) 0.0187(19) 0.0017(13) -0.0017(16) 0.0020(14)
O4 0.048(3) 0.0118(18) 0.021(2) -0.0007(16) 0.0117(19) -0.0027(18)
O5 0.020(2) 0.014(2) 0.055(3) 0.0053(19) -0.013(2) 0.0040(16)
O6 0.019(2) 0.018(2) 0.085(4) 0.011(2) -0.005(2) 0.0032(17)
O7 0.031(2) 0.0113(19) 0.042(3) 0.0056(18) 0.0071(19) -0.0043(16)
O8 0.056(3) 0.027(3) 0.047(3) 0.002(2) 0.012(3) -0.014(2)
ZN1 0.0162(5) 0.0062(5) 0.0209(5) 0.0008(2) -0.0036(3) -0.0015(2)
N1 0.52(8) 0.10(2) 0.038(13) -0.016(14) -0.05(3) 0.05(4)
C23 0.27(7) 0.09(3) 0.20(5) -0.02(3) -0.10(5) 0.00(3)
C24 1.3(4) 0.18(6) 0.19(7) -0.08(5) 0.39(16) -0.19(13)
N1' 0.14(2) 0.31(5) 0.12(2) 0.10(3) -0.058(18) -0.09(3)
C23' 0.14(2) 0.31(5) 0.12(2) 0.10(3) -0.058(18) -0.09(3)
C24' 0.12(3) 0.37(8) 0.11(3) -0.01(4) 0.05(3) -0.09(5)
loop_
_atom_type_symbol
_atom_type_description
_atom_type_scat_dispersion_real
_atom_type_scat_dispersion_imag
_atom_type_scat_source
C C 0.0181 0.0091 'International Tables Vol C Tables 4.2.6.8 and 6.1.1.4'
H H 0.0000 0.0000 'International Tables Vol C Tables 4.2.6.8 and 6.1.1.4'
Li Li 0.0008 0.0003 'International Tables Vol C Tables 4.2.6.8 and 6.1.1.4'
N N 0.0311 0.0180 'International Tables Vol C Tables 4.2.6.8 and 6.1.1.4'
O O 0.0492 0.0322 'International Tables Vol C Tables 4.2.6.8 and 6.1.1.4'
Zn Zn -1.5491 0.6778 'International Tables Vol C Tables 4.2.6.8 and 6.1.1.4'
loop_
_geom_angle_atom_site_label_1
_geom_angle_atom_site_label_2
_geom_angle_atom_site_label_3
_geom_angle
_geom_angle_site_symmetry_1
_geom_angle_site_symmetry_3
O2 C1 O1 124.9(5) . .
O2 C1 C2 119.0(5) . .
O1 C1 C2 116.0(5) . .
C3 C2 C9 120.4(5) . .
C3 C2 C1 117.4(5) . .
C9 C2 C1 122.1(5) . .
C2 C3 C4 121.8(5) . .
C2 C3 H3 119.1 . .
C4 C3 H3 119.1 . .
C3 C4 C6 120.1(5) . .
C3 C4 C5 116.2(4) . .
C6 C4 C5 123.7(5) . .
O4 C5 O3 122.7(5) . .
O4 C5 C4 120.7(5) . .
O3 C5 C4 116.5(5) . .
C4 C6 C10 118.7(5) . .
C4 C6 C7 122.8(5) . .
C10 C6 C7 118.5(5) . .
C7 C7 C6 121.6(3) 6 .
C7 C7 H7 119.2 6 .
C6 C7 H7 119.2 . .
C8 C8 C9 121.8(3) 6 .
C8 C8 H8 119.1 6 .
C9 C8 H8 119.1 . .
C2 C9 C8 123.1(5) . .
C2 C9 C10 118.1(5) . .
C8 C9 C10 118.8(5) . .
C6 C10 C9 120.7(5) . .
C6 C10 C10 119.8(3) . 6
C9 C10 C10 119.4(3) . 6
O6 C11 O5 124.5(5) . .
O6 C11 C12 119.7(6) . .
O5 C11 C12 115.8(6) . .
C13 C12 C15 120.5(6) . .
C13 C12 C11 117.7(6) . .
C15 C12 C11 121.8(5) . .
C12 C13 C12 121.5(8) 2_656 .
C12 C13 H13 119.3 2_656 .
C12 C13 H13 119.3 . .
C14 C14 C15 121.5(4) 6 .
C14 C14 H14 119.2 6 .
C15 C14 H14 119.2 . .
C12 C15 C16 118.9(5) . .
C12 C15 C14 122.7(5) . .
C16 C15 C14 118.3(6) . .
C15 C16 C15 119.7(7) 2_656 .
C15 C16 C16 120.1(4) 2_656 5_656
C15 C16 C16 120.1(4) . 5_656
O8 C17 O7 123.5(6) . .
O8 C17 C18 119.7(6) . .
O7 C17 C18 116.8(6) . .
C19 C18 C21 119.1(5) . .
C19 C18 C17 118.1(6) . .
C21 C18 C17 122.7(5) . .
C18 C19 C18 123.2(8) 6_565 .
C18 C19 H19 118.4 6_565 .
C18 C19 H19 118.4 . .
C20 C20 C21 121.1(3) 2_655 .
C20 C20 H20 119.5 2_655 .
C21 C20 H20 119.5 . .
C22 C21 C20 119.6(6) . .
C22 C21 C18 118.4(5) . .
C20 C21 C18 122.0(5) . .
C21 C22 C21 121.5(8) . 6_565
C21 C22 C22 119.2(4) . 5_665
C21 C22 C22 119.2(4) 6_565 5_665
O4 LI1 O6 118.8(5) 1_556 .
O4 LI1 O2 115.3(5) 1_556 .
O6 LI1 O2 101.6(5) . .
O4 LI1 O3 116.9(5) 1_556 7
O6 LI1 O3 99.6(5) . 7
O2 LI1 O3 101.8(4) . 7
O4 LI1 ZN1 158.8(5) 1_556 .
O6 LI1 ZN1 71.4(3) . .
O2 LI1 ZN1 77.7(3) . .
O3 LI1 ZN1 42.0(2) 7 .
C1 O1 ZN1 124.4(4) . .
C1 O2 LI1 129.8(5) . .
C5 O3 LI1 133.9(4) . 7
C5 O3 ZN1 124.6(3) . 7
LI1 O3 ZN1 96.0(3) 7 7
C5 O4 LI1 144.3(5) . 1_554
C11 O5 ZN1 117.3(4) . .
C11 O6 LI1 140.0(5) . .
C17 O7 ZN1 110.0(4) . .
O7 ZN1 O5 109.02(19) . .
O7 ZN1 O1 103.35(18) . .
O5 ZN1 O1 104.99(19) . .
O7 ZN1 O3 122.42(17) . 7
O5 ZN1 O3 107.32(19) . 7
O1 ZN1 O3 108.46(16) . 7
O7 ZN1 LI1 162.9(2) . .
O5 ZN1 LI1 85.6(2) . .
O1 ZN1 LI1 80.5(2) . .
O3 ZN1 LI1 42.0(2) 7 .
C24a N1a C23 115.3(17) . .
C24a N1a H1A 108.4 . .
C23a N1a H1A 108.5 . .
C24a N1a H1B 108.4 . .
C23a N1a H1B 108.5 . .
H1Aa N1a H1B 107.5 . .
N1a C23a H23A 107.2 . .
N1a C23a H23B 107.5 . .
H23Aa C23a H23B 109.5 . .
N1a C23a H23C 113.7 . .
H23Aa C23a H23C 109.5 . .
H23Ba C23a H23C 109.4 . .
N1a C24a H24A 115.1 . .
N1a C24a H24B 106.0 . .
H24Aa C24a H24B 109.5 . .
N1a C24a H24C 107.2 . .
H24Aa C24a H24C 109.5 . .
H24Ba C24a H24C 109.5 . .
C24'b N1'b C23' 114.7(16) . .
C24'b N1'b H1'A 108.6 . .
C23'b N1'b H1'A 108.6 . .
C24'b N1'b H1'B 108.6 . .
C23'b N1'b H1'B 108.6 . .
H1'Ab N1'b H1'B 107.6 . .
N1'b C23'b H23D 101.1 . .
N1'b C23'b H23E 111.9 . .
H23Db C23'b H23E 109.5 . .
N1'b C23'b H23F 115.0 . .
H23Db C23'b H23F 109.5 . .
H23Eb C23'b H23F 109.5 . .
N1'b C24'b H24D 111.1 . .
N1'b C24'b H24E 108.3 . .
H24Db C24'b H24E 109.4 . .
N1'b C24'b H24F 109.1 . .
H24Db C24'b H24F 109.5 . .
H24Eb C24'b H24F 109.5 . .
loop_
_geom_bond_atom_site_label_1
_geom_bond_atom_site_label_2
_geom_bond_distance
_geom_bond_site_symmetry_2
C1 O2 1.258(7) .
C1 O1 1.264(7) .
C1 C2 1.498(7) .
C2 C3 1.384(8) .
C2 C9 1.411(8) .
C3 C4 1.388(7) .
C3 H3 0.9500 .
C4 C6 1.408(7) .
C4 C5 1.500(7) .
C5 O4 1.234(7) .
C5 O3 1.285(7) .
C6 C10 1.422(7) .
C6 C7 1.442(7) .
C7 C7 1.342(11) 6
C7 H7 0.9500 .
C8 C8 1.355(12) 6
C8 C9 1.417(8) .
C8 H8 0.9500 .
C9 C10 1.434(7) .
C10 C10 1.437(10) 6
C11 O6 1.232(8) .
C11 O5 1.268(8) .
C11 C12 1.512(8) .
C12 C13 1.379(7) .
C12 C15 1.400(9) .
C13 C12 1.379(7) 2_656
C13 H13 0.9500 .
C14 C14 1.357(13) 6
C14 C15 1.437(8) .
C14 H14 0.9500 .
C15 C16 1.425(7) .
C16 C15 1.425(7) 2_656
C16 C16 1.430(15) 5_656
C17 O8 1.228(8) .
C17 O7 1.282(8) .
C17 C18 1.502(8) .
C18 C19 1.378(7) .
C18 C21 1.437(9) .
C19 C18 1.378(7) 6_565
C19 H19 0.9500 .
C20 C20 1.347(13) 2_655
C20 C21 1.430(8) .
C20 H20 0.9500 .
C21 C22 1.414(7) .
C22 C21 1.414(7) 6_565
C22 C22 1.443(17) 5_665
LI1 O4 1.848(10) 1_556
LI1 O6 1.907(10) .
LI1 O2 1.919(10) .
LI1 O3 1.987(10) 7
LI1 ZN1 2.954(9) .
O1 ZN1 1.977(4) .
O3 LI1 1.987(10) 7
O3 ZN1 1.988(4) 7
O4 LI1 1.848(10) 1_554
O5 ZN1 1.962(4) .
O7 ZN1 1.947(4) .
ZN1 O3 1.988(4) 7
N1a C24 1.52(2) .
N1a C23 1.54(2) .
N1a H1A 0.9100 .
N1a H1B 0.9100 .
C23a H23A 0.9800 .
C23a H23B 0.9802 .
C23a H23C 0.9804 .
C24a H24A 0.9798 .
C24a H24B 0.9799 .
C24a H24C 0.9799 .
N1'b C24' 1.52(2) .
N1'b C23' 1.547(19) .
N1'b H1'A 0.9100 .
N1'b H1'B 0.9100 .
C23'b H23D 0.9798 .
C23'b H23E 0.9799 .
C23'b H23F 0.9801 .
C24'b H24D 0.9805 .
C24'b H24E 0.9800 .
C24'b H24F 0.9798 .
loop_
_geom_torsion_atom_site_label_1
_geom_torsion_atom_site_label_2
_geom_torsion_atom_site_label_3
_geom_torsion_atom_site_label_4
_geom_torsion
_geom_torsion_site_symmetry_1
_geom_torsion_site_symmetry_4
O2 C1 C2 C3 129.1(6) . .
O1 C1 C2 C3 -48.8(7) . .
O2 C1 C2 C9 -49.6(8) . .
O1 C1 C2 C9 132.5(6) . .
C9 C2 C3 C4 0.5(8) . .
C1 C2 C3 C4 -178.2(5) . .
C2 C3 C4 C6 -2.6(8) . .
C2 C3 C4 C5 179.2(5) . .
C3 C4 C5 O4 134.5(5) . .
C6 C4 C5 O4 -43.6(8) . .
C3 C4 C5 O3 -42.7(7) . .
C6 C4 C5 O3 139.2(5) . .
C3 C4 C6 C10 2.6(8) . .
C5 C4 C6 C10 -179.4(5) . .
C3 C4 C6 C7 -179.5(5) . .
C5 C4 C6 C7 -1.5(8) . .
C4 C6 C7 C7 179.1(4) . 6
C10 C6 C7 C7 -2.9(6) . 6
C3 C2 C9 C8 179.3(6) . .
C1 C2 C9 C8 -2.1(9) . .
C3 C2 C9 C10 1.6(8) . .
C1 C2 C9 C10 -179.7(5) . .
C8 C8 C9 C2 -176.9(4) 6 .
C8 C8 C9 C10 0.7(7) 6 .
C4 C6 C10 C9 -0.4(8) . .
C7 C6 C10 C9 -178.5(5) . .
C4 C6 C10 C10 -179.1(3) . 6
C7 C6 C10 C10 2.9(6) . 6
C2 C9 C10 C6 -1.6(8) . .
C8 C9 C10 C6 -179.4(5) . .
C2 C9 C10 C10 177.0(4) . 6
C8 C9 C10 C10 -0.7(7) . 6
O6 C11 C12 C13 -136.8(6) . .
O5 C11 C12 C13 41.8(9) . .
O6 C11 C12 C15 40.8(11) . .
O5 C11 C12 C15 -140.7(7) . .
C15 C12 C13 C12 -0.3(5) . 2_656
C11 C12 C13 C12 177.3(7) . 2_656
C13 C12 C15 C16 0.5(10) . .
C11 C12 C15 C16 -176.9(6) . .
C13 C12 C15 C14 -177.6(7) . .
C11 C12 C15 C14 4.9(12) . .
C14 C14 C15 C12 -179.8(5) 6 .
C14 C14 C15 C16 2.0(8) 6 .
C12 C15 C16 C15 -0.3(5) . 2_656
C14 C15 C16 C15 178.0(8) . 2_656
C12 C15 C16 C16 179.7(5) . 5_656
C14 C15 C16 C16 -2.0(8) . 5_656
O8 C17 C18 C19 -45.5(10) . .
O7 C17 C18 C19 133.4(7) . .
O8 C17 C18 C21 131.5(7) . .
O7 C17 C18 C21 -49.6(9) . .
C21 C18 C19 C18 5.1(14) . 6_565
C17 C18 C19 C18 -177.8(6) . 6_565
C20 C20 C21 C22 2.3(13) 2_655 .
C20 C20 C21 C18 -177.2(8) 2_655 .
C19 C18 C21 C22 -1.9(11) . .
C17 C18 C21 C22 -178.9(7) . .
C19 C18 C21 C20 177.6(7) . .
C17 C18 C21 C20 0.6(10) . .
C20 C21 C22 C21 179.4(6) . 6_565
C18 C21 C22 C21 -1.0(14) . 6_565
C20 C21 C22 C22 -1.0(15) . 5_665
C18 C21 C22 C22 178.6(9) . 5_665
O2 C1 O1 ZN1 6.7(8) . .
C2 C1 O1 ZN1 -175.6(3) . .
O1 C1 O2 LI1 -20.8(9) . .
C2 C1 O2 LI1 161.5(5) . .
O4 C5 O3 LI1 -60.4(8) . 7
C4 C5 O3 LI1 116.7(6) . 7
O4 C5 O3 ZN1 152.3(4) . 7
C4 C5 O3 ZN1 -30.5(6) . 7
O3 C5 O4 LI1 66.9(11) . 1_554
C4 C5 O4 LI1 -110.1(8) . 1_554
O6 C11 O5 ZN1 -6.9(9) . .
C12 C11 O5 ZN1 174.6(4) . .
O5 C11 O6 LI1 -5.4(13) . .
C12 C11 O6 LI1 173.0(7) . .
O8 C17 O7 ZN1 -2.4(8) . .
C18 C17 O7 ZN1 178.7(4) . .
