#------------------------------------------------------------------------------
#$Date: 2016-02-04 03:23:23 +0200 (Thu, 04 Feb 2016) $
#$Revision: 175668 $
#$URL: svn://www.crystallography.net/cod/cif/4/34/48/4344841.cif $
#------------------------------------------------------------------------------
#
# This file is available in the Crystallography Open Database (COD),
# http://www.crystallography.net/
#
# All data on this site have been placed in the public domain by the
# contributors.
#
data_4344841
loop_
_publ_author_name
'Ye, Yingxiang'
'Xiong, Shunshun'
'Wu, Xiaonan'
'Zhang, Liuqin'
'Li, Ziyin'
'Wang, Lihua'
'Ma, Xiuling'
'Chen, Qian-Huo'
'Zhang, Zhangjing'
'Xiang, Shengchang'
_publ_section_title
;
 Microporous Metal-Organic Framework Stabilized by Balanced Multiple
 Host-Couteranion Hydrogen-Bonding Interactions for High-Density CO2
 Capture at Ambient Conditions.
;
_journal_issue                   1
_journal_name_full               'Inorganic chemistry'
_journal_page_first              292
_journal_paper_doi               10.1021/acs.inorgchem.5b02316
_journal_volume                  55
_journal_year                    2015
_chemical_formula_moiety
'0.5(C72 H48 Cl2 Cu8 N24 O20), 4(B0.75 F3), 2(O)'
_chemical_formula_sum            'C36 H24 B3 Cl Cu4 F12 N12 O12'
_chemical_formula_weight         1366.71
_chemical_name_systematic
;
 ?
;
_space_group_crystal_system      tetragonal
_space_group_IT_number           139
_space_group_name_Hall           '-I 4 2'
_space_group_name_H-M_alt        'I 4/m m m'
_symmetry_space_group_name_Hall  '-I 4 2'
_symmetry_space_group_name_H-M   'I 4/m m m'
_atom_sites_solution_hydrogens   geom
_audit_creation_date             2015-11-20
_audit_creation_method
;
Olex2 1.2
(compiled 2015.09.30 svn.r3233 for OlexSys, GUI svn.r5103)
;
_cell_angle_alpha                90
_cell_angle_beta                 90
_cell_angle_gamma                90
_cell_formula_units_Z            2
_cell_length_a                   14.1125(5)
_cell_length_b                   14.1125(5)
_cell_length_c                   19.8583(7)
_cell_measurement_temperature    150
_cell_volume                     3955.0(2)
_computing_molecular_graphics    'Olex2 (Dolomanov et al., 2009)'
_computing_publication_material  'Olex2 (Dolomanov et al., 2009)'
_computing_structure_refinement  'ShelXL (Sheldrick, 2015)'
_computing_structure_solution    'SIR2004 (Burla et al., 2007)'
_diffrn_ambient_temperature      150
_diffrn_measured_fraction_theta_full 0.986
_diffrn_measured_fraction_theta_max 0.952
_diffrn_measurement_device_type  'SuperNova, Dual, Cu at zero, Atlas'
_diffrn_measurement_method       '\w scans'
_diffrn_radiation_type           CuK\a
_diffrn_radiation_wavelength     1.54184
_diffrn_reflns_av_R_equivalents  0.0689
_diffrn_reflns_av_unetI/netI     0.0566
_diffrn_reflns_laue_measured_fraction_full 0.986
_diffrn_reflns_laue_measured_fraction_max 0.952
_diffrn_reflns_limit_h_max       8
_diffrn_reflns_limit_h_min       -12
_diffrn_reflns_limit_k_max       16
_diffrn_reflns_limit_k_min       -12
_diffrn_reflns_limit_l_max       24
_diffrn_reflns_limit_l_min       -9
_diffrn_reflns_number            4307
_diffrn_reflns_point_group_measured_fraction_full 0.986
_diffrn_reflns_point_group_measured_fraction_max 0.952
_diffrn_reflns_theta_full        67.684
_diffrn_reflns_theta_max         73.994
_diffrn_reflns_theta_min         3.843
_exptl_absorpt_coefficient_mu    2.184
_exptl_crystal_colour            green
_exptl_crystal_density_diffrn    1.148
_exptl_crystal_description       polyhedral
_exptl_crystal_F_000             1352
_exptl_crystal_size_max          0.2
_exptl_crystal_size_mid          0.2
_exptl_crystal_size_min          0.15
_refine_diff_density_max         1.722
_refine_diff_density_min         -0.868
_refine_diff_density_rms         0.136
_refine_ls_extinction_method     none
_refine_ls_goodness_of_fit_ref   1.081
_refine_ls_hydrogen_treatment    constr
_refine_ls_matrix_type           full
_refine_ls_number_parameters     78
_refine_ls_number_reflns         1139
_refine_ls_number_restraints     195
_refine_ls_restrained_S_all      1.062
_refine_ls_R_factor_all          0.0808
_refine_ls_R_factor_gt           0.0677
_refine_ls_shift/su_max          0.000
_refine_ls_shift/su_mean         0.000
_refine_ls_structure_factor_coef Fsqd
_refine_ls_weighting_details
;
 w=1/[\s^2^(Fo^2^)+(0.1380P)^2^+1.8621P]
 where P=(Fo^2^+2Fc^2^)/3
;
_refine_ls_weighting_scheme      calc
_refine_ls_wR_factor_gt          0.1920
_refine_ls_wR_factor_ref         0.2068
_reflns_Friedel_coverage         0.000
_reflns_number_gt                889
_reflns_number_total             1139
_reflns_threshold_expression     'I > 2\s(I)'
_cod_data_source_file            ic5b02316_si_002.cif
_cod_data_source_block           FJU-14-BF4
_cod_original_cell_volume        3955.1(3)
_cod_database_code               4344841
_shelxl_version_number           2013-2
_shelx_space_group_comment
;
The symmetry employed for this shelxl refinement is uniquely defined
by the following loop, which should always be used as a source of
symmetry information in preference to the above space-group names.
They are only intended as comments.
;
_olex2_refinement_description
;
1. Fixed Uiso
 At 1.2 times of:
  All C(H) groups
2. Shared sites
{N4, C18A}
3. Restrained distances
 F2-B1 = F1-B1
 1.42 with sigma of 0.02
 Cu1-OW
 2.4 with sigma of 0.02
4. Uiso/Uaniso restraints and constraints
All non-hydrogen atoms have similar U: within 1.7A with sigma of 0.04 and sigma
for terminal atoms of 0.08
Uanis(C6) \\sim Ueq: with sigma of 0.01 and sigma for terminal atoms of 0.02
Uanis(N2) \\sim Ueq, Uanis(C6) \\sim Ueq: with sigma of 0.01 and sigma for
terminal atoms of 0.02
Uanis(C6) \\sim Ueq, Uanis(N2) \\sim Ueq: with sigma of 0.005 and sigma for
terminal atoms of 0.01
Uanis(C3) \\sim Ueq, Uanis(C1) \\sim Ueq: with sigma of 0.01 and sigma for
terminal atoms of 0.02
Uanis(O1) \\sim Ueq, Uanis(N2) \\sim Ueq: with sigma of 0.01 and sigma for
terminal atoms of 0.02
Uanis(F1) \\sim Ueq, Uanis(B1) \\sim Ueq, Uanis(F2) \\sim Ueq: with sigma of
0.01 and sigma for terminal atoms of 0.02
Uanis(O1) \\sim Ueq: with sigma of 0.05 and sigma for terminal atoms of 0.1
Uanis(OWA) \\sim Ueq: with sigma of 0.001 and sigma for terminal atoms of 0.002
Uanis(N4) = Uanis(C18A)
Uanis(C2) = Uanis(C3) = Uanis(C1)
Uanis(OW) = Uanis(OWA)
5. Others
 Sof(OWA)=0.25*(1-FVAR(2))
 Sof(OW)=0.25*FVAR(2)
 Fixed Sof: N2(0.5) N4(0.25) C3(0.5) H3(0.5) C6(0.25) F1(0.375) C5(0.5)
 H5(0.5) C2(0.25) F2(0.375) B1(0.1875) O1(0.5) C18A(0.25)
6.a Aromatic/amide H refined with riding coordinates:
 C1(H1), C3(H3), C5(H5)
;
_shelx_res_file
;
TITL FJU-14-BF4 in I4/mmm
CELL 1.54184 14.112531 14.112531 19.858307 90 90 90
ZERR 2 0.000454 0.000454 0.000723 0 0 0
LATT 2
SYMM -Y,+X,+Z
SYMM -X,-Y,+Z
SYMM +Y,-X,+Z
SYMM +X,-Y,-Z
SYMM -X,+Y,-Z
SYMM +Y,+X,-Z
SYMM -Y,-X,-Z
SFAC C H B Cl Cu F N O
UNIT 72 48 6 2 8 24 24 24
DFIX 1.42 F2 B1 F1 B1
DFIX 2.4 Cu1 OW
SIMU 0.04 0.08 1.7
ISOR 0.01 0.02 C6
ISOR 0.01 0.02 N2 C6
ISOR 0.005 0.01 C6 N2
ISOR 0.01 0.02 C3 C1
ISOR 0.01 0.02 O1 N2
ISOR 0.01 0.02 F1 B1 F2
ISOR 0.05 0.1 O1
ISOR 0.001 0.002 OWA
EADP N4 C18A
EADP C2 C3 C1
EADP OW OWA
EXYZ N4 C18A

L.S. 4 0 0
PLAN  20
ABIN
fmap 2 53
acta
OMIT 0 2 2
OMIT 0 0 2
OMIT 1 3 2
OMIT 0 2 0
OMIT 1 4 3
OMIT 2 4 0
REM <olex2.extras>
REM <HklSrc "%.\\FJU-14-BF4.hkl">
REM </olex2.extras>

WGHT    0.138000    1.862100
FVAR       1.85611   0.49940
CU1   5    0.500000    0.320739    0.500000    10.25000    0.01699    0.02532 =
         0.00597    0.00000    0.00000    0.00000
CL1   4    0.500000    0.500000    0.500000    10.06250    0.02036    0.02036 =
         0.04508    0.00000    0.00000    0.00000
PART 1
N2    7    0.604562    0.326396    0.569710    10.50000    0.02361    0.01967 =
         0.01602    0.00755   -0.00434   -0.00495
N4    7    0.697168    0.302832    0.658824    10.25000    0.03191    0.03191 =
         0.02207    0.00913   -0.00913   -0.00966
PART 0
C1    1    0.691689    0.191689    0.750000    10.50000    0.06435    0.06435 =
         0.05134    0.03642   -0.03642   -0.03614
PART 1
AFIX  43
H1    2    0.645090    0.145092    0.750000    10.50000   -1.20000
AFIX   0
PART 0
PART 2
C3    1    0.657992    0.223340    0.689843    10.50000    0.06435    0.06435 =
         0.05134    0.03642   -0.03642   -0.03614
AFIX  43
H3    2    0.608168    0.191512    0.669158    10.50000   -1.20000
AFIX   0
C6    1    0.659485    0.340515    0.595938    10.25000    0.02209    0.02209 =
         0.01671    0.00663   -0.00663   -0.00058

PART 0
F1    6    0.500000    0.080533    0.666158    10.37500    0.12563    0.09260 =
         0.12506    0.01701    0.00000    0.00000

PART 1
C5    1    0.617422    0.273809    0.622061    10.50000    0.03325    0.03417 =
         0.02159    0.01500   -0.01422   -0.00870
AFIX  43
H5    2    0.578749    0.223124    0.633911    10.50000   -1.20000
AFIX   0
C2    1    0.732985    0.267015    0.719107    10.25000    0.06435    0.06435 =
         0.05134    0.03642   -0.03642   -0.03614

PART 0
F2    6    0.500000    0.079717    0.748112    10.37500    0.11821    0.12814 =
         0.16204    0.01611    0.00000    0.00000
B1    3    0.500000    0.000000    0.704869    10.18750    0.08851    0.08362 =
         0.10457    0.00000    0.00000    0.00000

PART 2
O1    8    0.588997    0.298386    0.572159    10.50000    0.03097    0.03120 =
         0.02514    0.00923   -0.00952   -0.00473
C18A  1    0.697168    0.302832    0.658824    10.25000    0.03191    0.03191 =
         0.02207    0.00913   -0.00913   -0.00966
PART 0
PART 1
OW    8    0.500000    0.155455    0.500000    20.25000    0.09281    0.08847 =
         0.09176    0.00000    0.00000    0.00000

PART 0
PART 2
OWA   8    0.500000    0.081407    0.500000   -20.25000    0.09281    0.08847 =
         0.09176    0.00000    0.00000    0.00000
HKLF 4

REM  FJU-14-BF4 in I4/mmm
REM R1 =  0.0677 for     889 Fo > 4sig(Fo)  and  0.0808 for all    1139 data
REM     78 parameters refined using    195 restraints

END

WGHT      0.1379      1.8784

REM Highest difference peak  1.722,  deepest hole -0.868,  1-sigma level  0.136
Q1    1   0.4739  0.0000  0.5000  10.25000  0.05    1.72
Q2    1   0.4575  0.1603  0.5000  10.50000  0.05    0.52
Q3    1   0.5000  0.1624  0.4806  10.50000  0.05    0.51
Q4    1   0.4530  0.0870  0.5000  10.50000  0.05    0.50
Q5    1   0.5480  0.1141  0.5000  10.50000  0.05    0.49
Q6    1   0.5000  0.0000  0.7500  10.12500  0.05    0.46
Q7    1   0.6659  0.3111  0.5000  10.50000  0.05    0.43
Q8    1   0.7307  0.1685  0.7306  11.00000  0.05    0.38
Q9    1   0.7487  0.2513  0.5000  10.25000  0.05    0.32
Q10   1   0.6208  0.2674  0.7168  11.00000  0.05    0.31
Q11   1   0.6190  0.3810  0.6969  10.50000  0.05    0.30
Q12   1   0.4073  0.0000  0.6746  10.50000  0.05    0.29
Q13   1   0.5963  0.4037  0.7173  10.50000  0.05    0.29
Q14   1   0.5373  0.1948  0.5000  10.50000  0.05    0.28
Q15   1   0.5000  0.1254  0.4519  10.50000  0.05    0.28
Q16   1   0.6564  0.1796  0.5000  10.50000  0.05    0.27
Q17   1   0.5580  0.2620  0.5332  11.00000  0.05    0.27
Q18   1   0.5000  0.2556  0.7815  10.50000  0.05    0.27
Q19   1   0.5000  0.3386  0.7817  10.50000  0.05    0.26
Q20   1   0.5614  0.3593  0.7351  11.00000  0.05    0.26
;
_shelx_res_checksum              57484
_shelx_hkl_file
;
   0   0   2 109441. 2949.83   2
   0   0   4 317746. 6998.86   2
   0   0   6 57953.2 3713.39   2
   0   0   8 68513.6 4677.49   2
   0   0  10 47178.5 4382.31   2
   0   0  12 268377. 11745.1   2
   0   0  14 139612. 9273.01   2
   0   0  16 107239. 3237.75   3
   0   0  16 98795.2 8301.99   2
   0   0  18 41368.9 2143.61   3
   0   0  20 12015.5 1133.85   3
   0   0  22 2776.45 515.523   3
   0  -1  -1 382354. 3822.34   1
   1   0   1 374215. 4919.87   2
   0   1   3 54855.2 2976.90   2
  -1   0   3 52487.8 2282.05   2
   1   0   3 55662.3 2808.56   2
   0  -1   3 53730.1 2448.18   2
   0   1   5 23500.1 2387.11   2
   0  -1   5 19974.9 1980.40   2
  -1   0   5 19838.1 1922.08   2
   1   0   5 17139.6 2050.62   2
   1   0   7 5078.79 1418.35   2
   0  -1   7 6034.42 1393.28   2
   0   1   7 6916.30 1594.87   2
  -1   0   7 6177.23 1407.06   2
   0  -1   9 36151.6 3630.39   2
   1   0   9 36011.1 3722.72   2
  -1   0   9 30454.5 3159.01   2
   0   1   9 32875.4 3615.95   2
   0   1  11 52858.3 5042.28   2
   1   0  11 59406.6 5296.89   2
   0  -1  11 57215.7 5017.50   2
  -1   0  11 54425.0 4832.16   2
   1   0  13 70649.4 6370.44   2
   0   1  13 74599.7 6623.61   2
  -1   0  13 66954.1 5998.44   2
   0  -1  13 72449.8 6261.54   2
   0  -1  15 60038.2 6212.87   2
  -1   0  15 58630.3 2365.22   3
   0   1  15 54296.6 6146.90   2
   1   0  15 53834.4 6124.20   2
  -1   0  15 56171.0 5942.74   2
   0  -1  15 58299.5 2304.24   3
   0   1  15 61860.3 2418.03   3
   1   0  15 56939.5 2248.93   3
  -1   0  17 28251.3 4405.22   2
   0   1  17 27352.7 4524.26   2
  -1   0  17 28566.8 1752.52   3
   0   1  17 30020.6 1836.17   3
   0  -1  17 28518.6 1710.50   3
   0  -1  17 28974.4 4499.64   2
   1   0  17 28863.3 1733.28   3
  -1   0  19 12103.1 1221.12   3
   1   0  19 12964.3 1184.45   3
   0   1  19 11537.3 1156.42   3
   0  -1  19 12288.2 1154.98   3
  -1   0  21 2277.72 510.094   3
   0  -1  21 2813.30 564.064   3
   0   1  21 3133.99 583.005   3
   1   0  21 2783.64 514.227   3
   0   1  23 6170.89 675.761   3
   0  -1  23 5331.84 575.373   3
  -1   0  23 6313.61 656.109   3
  -1   1  24 1671.93 326.376   3
   1  -1  22 2224.11 437.705   3
  -1   1  22 2741.15 549.912   3
  -1   1  20 2510.39 571.036   3
   1  -1  20 3030.15 596.498   3
  -1   1  18 7112.16 958.871   3
   1  -1  18 5466.11 767.682   3
  -1   1  16 9808.07 2713.90   2
   1  -1  16 10077.3 2726.84   2
  -1   1  16 10421.1 1069.39   3
   1  -1  16 10665.7 1022.04   3
  -1   1  14 32327.3 1693.98   3
  -1   1  14 24144.9 3892.29   2
   1  -1  14 28612.8 4274.41   2
   1  -1  12 8146.90 2012.13   2
  -1   1  12 7752.50 2096.26   2
   1  -1  10 23162.8 3104.87   2
  -1   1  10 22537.0 3056.80   2
  -1   1   8 925.787 885.430   2
   1  -1   8 1698.39 1117.81   2
  -1   1   6 448.472 758.105   2
   1  -1   6 1179.61 811.400   2
   1  -1   4 41.0383 536.641   2
  -1   1   4 260.278 600.553   2
  -1   1   2 38744.8 1927.60   2
   1  -1   2 39318.8 1838.74   2
  -1  -1  -2 37283.0 1857.54   1
  -1  -1   0 11376.4 771.225   1
   1   1   2 37484.6 2396.28   2
  -1  -1   2 39773.3 1718.69   2
  -1  -1   4-2.11227 489.124   2
   1   1   4 303.657 813.224   2
  -1  -1   6 35.3212 596.510   2
   1   1   6 317.227 922.131   2
  -1  -1   8 1444.66 839.154   2
   1   1   8 220.297 846.481   2
  -1  -1  10 26431.2 3126.28   2
   1   1  10 24057.0 3467.55   2
  -1  -1  12 7703.59 2096.71   2
   1   1  12 7165.85 2071.57   2
   1   1  14 27608.7 4381.49   2
  -1  -1  14 32882.5 1686.31   3
  -1  -1  14 27727.3 4052.49   2
   1   1  16 10718.7 1060.15   3
  -1  -1  16 14144.3 3014.70   2
   1   1  16 9112.33 2670.70   2
  -1  -1  16 11919.9 1132.49   3
   1   1  18 6837.79 881.127   3
  -1  -1  18 6632.83 883.483   3
   1   1  20 2643.15 562.815   3
  -1  -1  20 2717.44 634.471   3
  -1  -1  22 2628.76 519.891   3
   1   1  22 1638.37 400.548   3
  -1  -1  24 1555.41 272.345   3
   2   0   0 38.2432 258.348   2
  -2   0   0 410.373 245.104   1
   0  -2   0 300.474 295.419   1
   2   0   2 42945.1 2361.70   2
  -2   0   2 44243.2 1495.80   2
   0   2   2 46401.6 2881.99   2
   0  -2  -2 43426.4 1924.42   1
   0  -2   4 79808.8 3465.71   2
   0   2   4 81219.9 4463.25   2
   2   0   4 83463.5 4088.35   2
  -2   0   4 78055.7 3105.96   2
   0   2   6 39708.1 3640.83   2
   2   0   6 39426.4 3365.21   2
  -2   0   6 43066.5 2937.06   2
   0  -2   6 41336.7 3021.61   2
   0  -2   8 19231.2 2512.52   2
  -2   0   8 21141.7 2455.20   2
   2   0   8 19496.9 2684.64   2
   0   2   8 20194.9 2870.39   2
   0  -2  10 20566.9 2813.97   2
   2   0  10 19143.9 2966.77   2
  -2   0  10 15299.6 2428.30   2
   0   2  10 18595.2 3071.55   2
   0   2  12 4255.95 1567.85   2
   2   0  12 6238.13 1990.80   2
  -2   0  12 6225.73 1741.97   2
   0  -2  12 6246.07 1859.34   2
   0   2  14 2109.68 1161.63   2
   2   0  14 10.4778 679.205   2
   0  -2  14 1664.10 1155.47   2
   0   2  14 3195.27 513.362   3
  -2   0  14 3038.60 585.561   3
  -2   0  14 1385.46 1039.23   2
   0  -2  16 3850.98 652.368   3
   2   0  16 2602.12 555.101   3
  -2   0  16-477.466 804.632   2
   0  -2  16 3520.67 1993.40   2
   2   0  16 83.3517 803.643   2
  -2   0  16 4215.60 725.509   3
   0   2  16 3882.61 696.467   3
   0   2  16 7415.75 2452.98   2
   2   0  18 1764.18 452.972   3
  -2   0  18 1090.17 490.289   3
   0   2  18 952.328 433.965   3
   0  -2  18 539.137 307.474   3
  -2   0  20 3327.54 669.667   3
   0  -2  20 3270.28 609.792   3
   0   2  20 3357.94 653.682   3
   0  -2  22 3581.03 555.836   3
   0   2  22 3015.44 541.487   3
  -2   0  22 3365.28 590.233   3
  -2   0  24 595.075 226.255   3
  -2   1  23 21.2793 218.650   3
  -1   2  23 334.619 249.382   3
  -1   2  21 10.3617 276.390   3
   1  -2  21 534.794 307.881   3
  -2   1  21 213.000 297.998   3
   1  -2  19 177.741 295.030   3
  -1   2  19-50.7549 324.504   3
   2  -1  19-129.676 227.993   3
  -2   1  19 377.889 451.951   3
  -2   1  17 292.277 372.386   3
   1  -2  17 371.892 352.939   3
  -1   2  17 420.861 404.275   3
   2  -1  17-102.589 303.618   3
  -2   1  15 1150.17 427.499   3
   2  -1  15 978.142 383.151   3
  -1   2  15-1903.32 1259.56   2
   1  -2  15 1867.94 526.986   3
   2  -1  15 1530.01 1109.68   2
   1  -2  15-3122.49 1547.23   2
  -2   1  15 3765.97 1596.63   2
  -1   2  15 1786.11 540.334   3
  -1   2  13 2077.54 1337.96   2
   1  -2  13-1433.65 1188.43   2
  -2   1  13-90.6172 513.393   2
   2  -1  13 978.857 1178.75   2
  -1   2  11-75.1496 864.303   2
   1  -2  11 2071.46 1397.71   2
  -2   1  11 397.789 993.518   2
   2  -1  11 1261.82 1003.20   2
   2  -1   9 1582.04 1148.50   2
   1  -2   9 1111.39 882.829   2
  -1   2   9-604.195 849.442   2
  -2   1   9 935.950 768.390   2
  -2   1   7 191.734 645.166   2
   1  -2   7 455.654 829.086   2
   2  -1   7 354.167 678.284   2
  -1   2   7-866.872 878.824   2
  -2   1   5 3265.99 831.864   2
   1  -2   5 3125.65 945.820   2
   2  -1   5 2833.74 969.359   2
  -1   2   5 2793.75 1006.85   2
  -1  -2  -3 16532.7 1503.55   1
  -2  -1  -3 16935.3 1567.94   1
   2  -1   3 16345.7 1509.03   2
  -2   1   3 15167.6 1226.79   2
  -1   2   3 15455.3 1762.81   2
   1  -2   3 15243.9 1404.35   2
  -1  -2  -1 23079.1 1424.74   1
  -1   2   1 21690.3 1657.93   2
  -2  -1  -1 23935.1 1465.84   1
   2  -1   1 22255.0 1108.15   2
  -1  -2   1 23468.5 1439.90   1
   2   1   1 23693.7 1891.54   2
   1  -2  -1 21687.4 983.615   1
   1   2   1 21924.7 2070.13   2
  -2  -1   1 23189.1 1292.46   1
   1   2   3 17210.2 2159.56   2
   2   1   3 15341.0 1897.18   2
  -2  -1   3 16662.6 1292.57   2
   1   2   5 2293.22 1235.22   2
  -1  -2   5 2628.07 870.469   2
  -2  -1   5 4048.18 918.234   2
   2   1   5 3899.68 1430.12   2
  -2  -1   7-196.321 517.023   2
  -1  -2   7 41.1924 662.982   2
   1   2   7-103.915 1173.48   2
   2   1   7 287.373 1006.88   2
  -1  -2   9 469.043 583.864   2
   1   2   9 173.567 848.129   2
  -2  -1   9 1132.24 754.498   2
   2   1   9 1937.08 1031.12   2
  -1  -2  11 146.853 715.644   2
   2   1  11 1564.27 1148.70   2
  -2  -1  11 635.285 1016.01   2
   1   2  11 823.907 984.187   2
  -2  -1  13 456.688 755.379   2
   1   2  13-3137.30 1601.96   2
   2   1  13 2176.74 1437.33   2
  -1  -2  13-1474.82 994.583   2
   1   2  15 1296.17 481.468   3
   1   2  15 2229.34 1538.37   2
   2   1  15 954.178 955.340   2
  -2  -1  15 871.367 419.302   3
   2   1  15 766.632 320.865   3
   1   2  17-190.632 310.677   3
   2   1  17 259.791 361.660   3
  -2  -1  17 371.969 312.421   3
  -1  -2  17 601.246 411.868   3
   1   2  19-324.810 322.499   3
   2   1  19-39.1663 297.389   3
  -2  -1  19-15.1970 384.744   3
  -1  -2  19-258.413 327.153   3
  -1  -2  21 341.859 302.252   3
  -2  -1  21 797.260 392.076   3
   1   2  21 651.940 305.117   3
  -2  -1  23-123.629 232.796   3
  -1  -2  23 0.91473 195.684   3
  -2   2  24 2404.45 398.458   3
  -2   2  22 4748.84 658.469   3
  -2   2  20 1828.57 553.557   3
   2  -2  18 5350.77 729.292   3
  -2   2  18 6564.76 926.228   3
  -2   2  16 20002.3 3508.42   2
  -2   2  16 23214.1 1668.01   3
   2  -2  16 21593.4 1385.95   3
   2  -2  16 17769.6 3481.25   2
   2  -2  14 28115.4 4200.69   2
  -2   2  14 28992.4 1681.75   3
  -2   2  14 28302.7 4200.44   2
  -2   2  12 3827.51 1679.47   2
   2  -2  12 5008.07 1730.91   2
  -2   2  10 24635.4 3155.56   2
   2  -2  10 29083.2 3520.96   2
  -2   2   8 7360.41 1675.98   2
   2  -2   8 7954.60 1822.92   2
   2  -2   6 2735.86 1011.36   2
  -2   2   6 3031.43 1036.77   2
   2  -2   4 426.121 551.239   2
  -2  -2  -4-750.954 768.300   1
  -2   2   4 227.077 534.391   2
   2  -2   2 323618. 5421.42   2
  -2   2   2 326905. 5953.93   2
  -2  -2  -2 316444. 6472.92   1
  -2  -2   0 94184.0 3085.95   1
   2   2   2 321076. 8698.35   2
  -2  -2   2 317399. 5959.84   1
   2   2   4-170.086 1000.77   2
   2   2   6 1798.17 1312.21   2
  -2  -2   6 3398.28 955.095   2
  -2  -2   8 6990.91 1466.11   2
   2   2   8 6566.67 1941.59   2
   2   2  10 32198.7 4267.42   2
  -2  -2  10 31767.1 3366.36   2
   2   2  12 9405.58 2493.31   2
  -2  -2  12 5138.03 1535.22   2
  -2  -2  14 30907.9 4093.84   2
   2   2  14 27389.5 4563.76   2
   2   2  14 29007.2 1628.58   3
   2   2  16 20013.2 1437.88   3
   2   2  16 19562.8 4010.08   2
  -2  -2  16 20676.8 1493.90   3
  -2  -2  18 5652.13 819.585   3
   2   2  18 4896.79 738.364   3
  -2  -2  20 1492.64 476.626   3
   2   2  20 931.335 364.483   3
  -2  -2  22 5764.53 698.797   3
  -2  -2  24 2779.43 352.920   3
   3   0   1 52434.2 2410.74   2
  -3   0   1 48917.5 1665.48   1
  -3   0  -1 47082.3 2179.03   1
   0  -3   1 46923.0 2269.00   1
   0  -3  -1 49696.7 2188.86   1
  -3   0   3 67823.5 2193.35   1
   0   3   3 73868.2 4490.03   2
   0  -3  -3 65060.6 2936.65   1
   3   0   3 67108.3 3556.23   2
   3   0   5 83914.3 4697.70   2
  -3   0   5 87905.1 3471.20   2
   0   3   5 77394.9 5149.75   2
   0  -3   5 87027.1 4096.49   2
   3   0   7 34909.7 3495.38   2
   0   3   7 37307.3 4069.87   2
   0  -3   7 38013.8 3153.81   2
  -3   0   7 36138.6 2809.43   2
  -3   0   9 18193.4 2441.37   2
   0   3   9 13135.7 2744.35   2
   0  -3   9 15576.2 2333.50   2
   3   0   9 16325.0 2779.69   2
  -3   0  11-920.831 831.714   2
   0  -3  11 1593.10 1007.33   2
   0   3  11-1123.90 1074.87   2
   3   0  11 1229.49 1080.87   2
   0  -3  13 2261.66 683.843   2
  -3   0  13-21.8161 441.837   2
   3   0  13 2280.56 1404.25   2
   0   3  13 2601.98 1510.05   2
   0   3  15 932.326 1105.08   2
   0  -3  15 1304.70 1014.40   2
   0   3  15 399.428 364.304   3
  -3   0  15 1299.75 946.439   2
  -3   0  15 356.982 379.215   3
   0  -3  17 386.428 374.360   3
  -3   0  17 316.804 392.124   3
   0   3  17-3.54864 304.609   3
   0   3  19 589.338 391.530   3
  -3   0  19 82.0290 384.067   3
   0  -3  19 71.1730 301.796   3
  -3   0  21 4883.07 745.740   3
   0  -3  21 4554.39 666.754   3
   0   3  21 4191.92 677.576   3
  -3   0  23 1085.97 328.388   3
   0  -3  23 973.324 261.940   3
   0   3  23 1497.60 409.268   3
  -3   1  24 351.634 205.186   3
  -1   3  22-182.296 307.746   3
  -3   1  22 70.3026 311.868   3
  -1   3  20 240.028 338.755   3
  -3   1  20 272.057 431.545   3
   1  -3  20 69.5137 273.677   3
  -3   1  18 2609.34 647.527   3
  -1   3  18 2655.58 602.071   3
   1  -3  18 2544.36 533.527   3
  -3   1  16-2611.52 1574.66   2
   3  -1  16-1069.54 946.134   2
   1  -3  16 1646.55 484.136   3
  -3   1  16 1178.10 447.078   3
   1  -3  16 2660.83 1477.99   2
  -1   3  16 1379.99 536.328   3
  -3   1  14 11261.8 1048.29   3
  -1   3  14 11742.0 1114.29   3
  -1   3  14 10181.1 2657.77   2
  -3   1  14 8710.72 2407.59   2
   1  -3  14 11215.5 2463.70   2
   3  -1  14 9611.19 2562.03   2
  -3   1  12 11419.6 2150.78   2
  -1   3  12 12100.3 2670.39   2
   3  -1  12 13775.6 2761.15   2
   1  -3  12 14342.3 2667.47   2
   3  -1  10-364.348 787.031   2
  -3   1  10-509.074 637.868   2
  -1   3  10 1656.13 1108.16   2
   1  -3  10-218.237 651.548   2
   1  -3   8 608.065 883.919   2
  -3   1   8 1150.67 737.361   2
  -1   3   8 676.040 1173.87   2
   3  -1   8 1845.17 1202.21   2
  -3   1   6 973.177 590.516   2
   1  -3   6 581.701 615.692   2
   3  -1   6 1588.72 889.911   2
  -1   3   6 1087.78 973.859   2
  -1   3   4 5219.49 1345.09   2
   3  -1   4 5231.79 1035.88   2
  -3   1   4 5259.33 794.301   2
  -1  -3  -4 4101.21 986.897   1
   1  -3   4 5352.07 1072.96   2
  -3   1   2 33568.7 827.116   1
  -1   3   2 38995.4 2923.14   2
  -1  -3  -2 36287.6 2245.27   1
  -3  -1  -2 36387.2 2275.66   1
   3  -1   2 41125.3 2037.49   2
   1  -3   0 133923. 3356.05   1
  -3  -1   0 130854. 3527.21   1
  -1  -3   0 128375. 3874.55   1
   3   1   0 133265. 4500.72   2
  -1  -3   2 40328.6 2332.55   1
   1   3   2 41065.2 3456.10   2
  -3  -1   2 38951.3 1923.79   1
   1  -3  -2 39278.8 1823.50   1
   3   1   2 37052.8 2843.81   2
   3   1   4 6058.01 1546.58   2
   1   3   4 4995.42 1582.91   2
   3   1   6 2471.01 1251.14   2
  -1  -3   6 1251.74 748.595   2
  -3  -1   6 1677.85 695.863   2
   1   3   6 642.519 1207.94   2
  -3  -1   8-38.7940 517.081   2
   1   3   8 1196.22 1123.77   2
  -1  -3   8 223.966 558.198   2
   3   1   8 390.477 1113.10   2
  -3  -1  10 266.568 565.071   2
   3   1  10 1640.03 1211.67   2
   1   3  10-295.672 1155.11   2
  -1  -3  10 109.041 669.025   2
   3   1  12 12413.9 2847.27   2
  -1  -3  12 12949.1 2486.80   2
  -3  -1  12 10689.7 2160.52   2
   1   3  12 10261.2 2619.68   2
  -1  -3  14 9378.28 2462.43   2
   3   1  14 9087.52 2751.99   2
   1   3  14 11473.0 1071.90   3
  -3  -1  14 10069.2 2278.67   2
   1   3  14 10199.8 2899.83   2
  -3  -1  14 10370.1 1005.06   3
   1   3  16 1213.04 449.794   3
   1   3  16 3382.35 1736.24   2
  -3  -1  16 1022.79 412.689   3
  -3  -1  16 4226.45 1669.87   2
  -1  -3  18 2251.33 563.750   3
  -3  -1  18 2496.88 620.993   3
   1   3  18 3024.56 637.188   3
  -3  -1  20-11.5474 342.258   3
  -1  -3  20-150.574 350.150   3
   1   3  20-374.298 379.303   3
  -1  -3  22 171.359 254.925   3
  -3  -1  22-262.853 273.290   3
   1   3  22-124.847 313.680   3
  -3  -1  24 227.871 146.550   3
  -3   2  23 7822.78 763.459   3
  -2   3  23 7097.19 772.464   3
  -2   3  21 11648.9 1085.58   3
  -3   2  21 11118.7 1067.41   3
  -3   2  19 5368.82 845.616   3
   2  -3  19 4940.99 682.848   3
  -2   3  19 4524.28 779.996   3
  -3   2  17 21482.9 1624.39   3
  -2   3  17 19837.5 1556.02   3
   2  -3  17 17789.7 1279.48   3
  -2   3  15 25288.2 4244.56   2
  -2   3  15 26854.8 1727.94   3
   2  -3  15 27852.9 4217.96   2
   3  -2  15 24891.1 3984.64   2
  -3   2  15 27529.5 1747.54   3
  -3   2  15 22662.1 3687.10   2
  -2   3  13 25804.8 3882.98   2
  -3   2  13 27420.1 1573.47   3
   2  -3  13 25594.4 3717.82   2
   3  -2  13 23519.3 3738.09   2
  -3   2  13 22900.1 3433.14   2
  -2   3  13 29026.4 1697.80   3
  -3   2  11 17406.1 2671.59   2
   2  -3  11 20616.5 3048.23   2
  -2   3  11 16295.3 2813.35   2
   3  -2  11 16615.1 2880.89   2
   2  -3   9 44307.0 3992.19   2
  -3   2   9 42827.0 3725.11   2
   3  -2   9 43684.8 4145.08   2
  -2   3   9 36189.6 3889.25   2
  -2   3   7 11713.0 2040.34   2
   2  -3   7 10698.7 1831.70   2
  -3   2   7 10046.0 1595.74   2
   3  -2   7 9252.68 1720.37   2
  -3   2   5 21332.9 1902.36   2
  -2   3   5 20904.9 2454.10   2
  -2  -3  -5 20056.6 2305.97   1
   3  -2   5 20536.0 2107.74   2
   2  -3   5 19986.0 2054.44   2
  -2   3   3 188033. 6208.69   2
  -3  -2  -3 193139. 5984.64   1
  -3   2   3 197094. 4142.30   2
  -2  -3  -3 192750. 5937.82   1
   3  -2   3 191928. 5009.86   2
  -3  -2  -1 14875.4 1476.15   1
  -2  -3  -1 14595.2 1479.33   1
  -2  -3   1 14525.3 1469.16   1
  -3  -2   1 15371.3 1396.76   1
   2   3   1 15393.2 2204.88   2
   2  -3  -1 15455.4 920.880   1
   3   2   1 15926.1 2118.10   2
  -2  -3   3 189603. 5486.89   1
   2   3   3 198232. 8149.35   2
   3   2   3 195432. 7684.05   2
  -3  -2   3 189361. 5093.43   1
   3   2   5 20627.7 2915.93   2
   2   3   5 17669.2 2887.62   2
   2   3   7 4080.16 1817.53   2
   3   2   7 9574.13 2403.42   2
  -2  -3   9 43156.0 3794.47   2
   3   2   9 40201.3 4742.12   2
  -3  -2   9 46505.7 3720.99   2
   2   3   9 41418.2 4989.15   2
   2   3  11 20802.6 3806.09   2
   3   2  11 21465.1 3818.97   2
  -2  -3  11 18595.2 2795.22   2
  -3  -2  11 21433.2 2903.30   2
   2   3  13 25463.1 4454.83   2
   3   2  13 25170.9 4235.67   2
  -3  -2  13 24694.1 3432.69   2
   3   2  15 25476.8 4514.60   2
   2   3  15 24421.6 4534.97   2
   2   3  15 25102.6 1599.12   3
  -3  -2  17 18399.6 1441.49   3
  -2  -3  17 18537.8 1448.96   3
   2   3  17 19916.4 1479.24   3
   2   3  19 5172.86 829.108   3
  -2  -3  19 4842.27 770.131   3
  -3  -2  19 5235.29 786.059   3
  -2  -3  21 12213.0 1057.59   3
  -3  -2  21 11992.2 1091.64   3
  -3  -2  23 8181.83 718.214   3
  -2  -3  23 7768.11 677.741   3
  -3   3  22 18459.0 1252.39   3
  -3   3  20 17004.8 1361.46   3
  -3   3  18 10373.4 1149.33   3
  -3   3  16 47736.2 2364.71   3
  -3   3  14 9158.51 2287.36   2
   3  -3  14 14378.7 2757.07   2
  -3   3  14 15570.8 1304.19   3
  -3   3  12 29765.8 3772.22   2
   3  -3  12 28959.7 3850.95   2
   3  -3  10 39405.5 4048.24   2
  -3   3  10 32485.7 3591.48   2
   3  -3   8 86985.1 5313.15   2
  -3   3   8 84560.2 5111.15   2
  -3   3   6 39773.3 3150.31   2
   3  -3   6 39748.9 3124.79   2
  -3   3   4 191480. 5938.70   2
   3  -3   4 187067. 5659.62   2
  -3  -3  -4 192736. 6926.66   1
  -3   3   2 662.588 461.594   2
  -3  -3  -2-82.0985 648.695   1
  -3  -3   0 18380.8 1804.34   1
   3   3   2 155.555 1230.91   2
  -3  -3   2 604.030 564.648   1
   3   3   4 184737. 8728.92   2
  -3  -3   4 190701. 5961.80   1
   3   3   6 41182.0 4559.72   2
   3   3   8 80927.3 6904.11   2
   3   3  10 40907.2 5290.91   2
   3   3  12 32608.7 5014.83   2
   3   3  14 17176.3 3800.73   2
  -3  -3  18 11585.9 1149.80   3
  -3  -3  20 17757.0 1302.41   3
  -3  -3  22 18817.0 1190.82   3
   0  -4   0 57041.5 2789.99   1
  -4   0   0 57265.6 2398.31   1
   4   0   0 56758.3 2386.91   2
   0  -4   2 8133.71 1180.12   1
  -4   0   2 6806.52 748.027   1
   0  -4  -2 8489.48 1120.69   1
   4   0   2 6947.43 1139.01   2
   0   4   2 7554.04 1741.28   2
   4   0   4 82986.3 4491.92   2
   0  -4  -4 77006.6 3779.50   1
   0   4   4 80722.0 5498.82   2
  -4   0   4 83559.7 2783.32   1
   4   0   6 78907.6 5063.29   2
  -4   0   6 82410.2 3548.46   2
   0   4   6 73299.7 5742.05   2
   4   0   8 45489.2 4315.25   2
   0   4   8 44947.6 4973.62   2
  -4   0   8 50321.8 3362.82   2
   0   4  10 9598.27 2549.59   2
   0  -4  10 13726.4 2372.90   2
   4   0  10 14248.7 2746.43   2
  -4   0  10 9002.30 1642.98   2
   0  -4  12 6195.47 1974.19   2
   4   0  12 4738.79 1912.90   2
  -4   0  12 4136.48 1300.90   2
   0   4  12 4786.68 1826.24   2
  -4   0  14 7536.09 1942.67   2
   4   0  14 9898.74 2724.94   2
   0   4  14 4048.22 1942.29   2
  -4   0  14 5813.17 806.444   3
   0   4  14 6736.59 878.799   3
   0   4  16 2212.97 589.472   3
   0   4  16 2532.53 1740.21   2
  -4   0  16 3232.90 669.036   3
   4   0  16 274.822 902.314   2
   0   4  18 8549.02 1043.06   3
   0  -4  18 8814.74 943.012   3
  -4   0  18 9352.44 1074.96   3
   0  -4  20 7864.33 836.796   3
   0   4  20 7847.99 984.498   3
  -4   0  20 7832.52 962.219   3
   0   4  22 4326.04 686.936   3
  -4   0  22 5123.48 653.271   3
   0  -4  22 5676.68 615.732   3
  -4   0  24 3285.49 400.683   3
  -4   1  23 494.505 262.646   3
  -1   4  23 593.607 305.469   3
  -4   1  21 962.468 425.410   3
  -1   4  21 256.948 395.654   3
   1  -4  21 350.509 223.737   3
  -1   4  19 1556.89 502.732   3
   1  -4  19 1500.61 463.830   3
  -4   1  19 973.309 521.784   3
   1  -4  17 660.125 320.833   3
  -4   1  17 756.039 491.353   3
  -1   4  17 474.403 390.219   3
   4  -1  15 6755.98 2301.53   2
  -4   1  15 3538.78 699.339   3
  -1   4  15 4110.11 766.637   3
  -1   4  15 4593.07 2018.02   2
  -4   1  13-762.593 824.540   2
   4  -1  13 2920.41 1523.56   2
  -1   4  13 140.581 260.933   3
   1  -4  13-2354.34 1331.02   2
  -1   4  13 1653.07 1280.08   2
  -4   1  13 215.987 361.529   3
   1  -4  11 374.396 725.943   2
  -4   1  11-461.618 593.301   2
   4  -1  11 162.788 799.776   2
  -1   4  11 341.155 794.707   2
  -4   1   9 9718.14 1719.61   2
   1  -4   9 6664.00 1539.36   2
  -1   4   9 7240.51 2121.02   2
   4  -1   9 7367.47 1868.35   2
  -4   1   7 7526.98 1217.02   2
   4  -1   7 5933.79 1531.42   2
  -1   4   7 7727.18 2094.17   2
   1  -4   7 8892.22 1658.88   2
  -1  -4  -5 4578.37 1257.01   1
  -4   1   5 6565.82 892.243   2
   4  -1   5 6854.51 1376.38   2
  -1   4   5 6670.80 1706.08   2
  -4   1   5 6024.03 703.021   1
  -4  -1  -3 531.828 610.127   1
  -4   1   3 469.312 171.547   1
  -1   4   3 1104.40 1133.62   2
  -1  -4  -3 711.692 679.599   1
   4  -1   3 299.451 443.782   2
  -4  -1  -1 853.946 538.044   1
  -1  -4  -1 1213.32 589.883   1
   1  -4   1 1347.04 579.790   1
   4  -1   1 1240.29 337.333   2
   4   1   1 1324.26 858.421   2
  -1  -4   1 1322.44 632.945   1
   1  -4  -1 989.867 422.005   1
  -4  -1   1 1046.91 460.898   1
  -4  -1   3 688.575 437.545   1
  -1  -4   3-28.2426 468.016   1
   1   4   3 285.928 1091.44   2
   4   1   3 729.956 898.077   2
   1  -4  -3 489.419 461.067   1
  -4  -1   5 6951.09 1055.21   1
   4   1   5 6125.96 1625.46   2
   1   4   5 5640.82 1903.58   2
   1   4   7 6977.33 2173.11   2
   4   1   7 5974.10 1683.89   2
   1   4   9 7109.84 2195.99   2
   4   1   9 5989.23 1906.05   2
  -4  -1   9 6863.54 1564.66   2
  -4  -1  11 323.629 577.638   2
   1   4  11 1025.54 1480.07   2
   4   1  11 626.717 1046.07   2
   1   4  13 32.9809 235.410   3
   4   1  13-208.380 566.239   2
  -4  -1  15 2540.10 608.710   3
   1   4  15 3266.73 643.885   3
   1   4  15 3245.23 1865.69   2
   4   1  15-138.228 973.805   2
  -4  -1  17 699.697 409.538   3
   1   4  17 630.590 409.922   3
  -1  -4  19 1110.22 469.977   3
   1   4  19 1295.98 457.043   3
  -4  -1  19 781.389 393.408   3
   1   4  21 284.528 320.780   3
  -4  -1  21 241.436 392.727   3
  -1  -4  21 990.966 353.106   3
  -4  -1  23 960.627 305.417   3
  -1  -4  23 121.128 174.468   3
  -2   4  22 3980.66 666.177   3
  -4   2  22 3961.77 595.121   3
  -2   4  20 3895.98 691.477   3
  -4   2  20 3255.13 649.791   3
   2  -4  18 7777.86 856.062   3
  -2   4  18 7042.44 990.767   3
  -4   2  18 7413.38 982.201   3
   2  -4  16 1135.87 448.193   3
  -4   2  16 62.3259 355.733   3
  -2   4  16 820.766 512.401   3
  -4   2  14 4504.48 717.107   3
   4  -2  14 5876.04 1945.14   2
  -2   4  14 4685.80 743.461   3
   2  -4  14 4853.11 1485.71   2
  -2   4  14 2985.83 1546.48   2
   2  -4  12 6591.89 1875.51   2
   4  -2  12 6459.58 1787.83   2
  -4   2  12 4819.46 1469.76   2
  -2   4  12 813.152 888.212   2
   4  -2  10 4363.91 1477.32   2
  -2   4  10 2865.53 1480.94   2
   2  -4  10 6073.98 1581.47   2
  -4   2  10 1886.64 856.217   2
   2  -4   8 16485.7 2322.28   2
   4  -2   8 17814.9 2497.80   2
  -4   2   8 17525.2 2116.92   2
  -2   4   8 15600.9 2748.10   2
  -4   2   6 37825.0 2448.12   2
  -2   4   6 34305.3 3639.40   2
   2  -4   6 38435.3 3143.84   2
  -2  -4  -6 37256.4 3350.65   1
   4  -2   6 34332.8 3052.09   2
  -4  -2  -4 35450.7 3025.70   1
  -2   4   4 29332.1 3021.05   2
  -4   2   4 32058.3 1529.59   2
  -2  -4  -4 31456.3 2824.28   1
   4  -2   4 29826.3 2314.78   2
   4  -2   2 2575.71 537.775   2
  -4  -2  -2 2374.86 866.272   1
  -2  -4  -2 1740.94 810.366   1
  -2   4   2 3065.89 1120.49   2
   2  -4   0 3421.52 654.976   1
  -4  -2   0 3762.96 842.949   1
  -2  -4   0 2321.33 760.231   1
   4   2   0 3677.70 1170.97   2
   4   2   2 2400.84 1188.58   2
   2  -4  -2 2066.71 489.319   1
   2   4   2 2408.23 1377.60   2
  -2  -4   2 2802.13 891.213   1
  -4  -2   2 2993.40 782.126   1
  -4  -2   4 30989.7 2269.62   1
   4   2   4 31729.3 3490.34   2
  -2  -4   4 30909.7 2597.97   1
   2   4   4 29419.4 3765.91   2
  -4  -2   6 34917.8 2637.01   1
   4   2   6 32565.4 3918.89   2
   2   4   6 28093.8 3768.39   2
   2   4   8 16966.1 3452.66   2
   4   2   8 13657.8 2770.81   2
   4   2  10 3323.53 1597.15   2
   2   4  10 1892.75 1555.95   2
   2   4  12 6882.38 2420.35   2
   4   2  12 3813.74 1863.53   2
   4   2  14 6212.42 2305.94   2
   2   4  14 4834.06 751.893   3
   2   4  14 2733.21 1785.84   2
   2   4  16-164.572 445.311   3
  -4  -2  16 237.708 382.932   3
  -2  -4  18 5547.77 827.417   3
  -4  -2  18 6552.22 883.224   3
   2   4  18 6898.20 943.584   3
   2   4  20 2213.01 579.919   3
  -2  -4  20 3739.38 649.376   3
  -4  -2  20 3954.81 714.980   3
  -4  -2  22 4268.17 608.234   3
  -2  -4  22 4426.67 589.166   3
  -4   3  23 5724.09 653.482   3
  -3   4  23 4706.25 639.066   3
  -3   4  21 6181.40 820.157   3
  -4   3  21 6250.71 798.146   3
  -4   3  19 8941.05 1053.90   3
  -3   4  19 9099.02 1075.62   3
  -4   3  17 5939.22 903.821   3
  -3   4  17 5276.22 864.674   3
   4  -3  15 4157.59 1843.76   2
  -4   3  15 5799.55 888.041   3
  -3   4  15 5724.16 863.723   3
  -4   3  13 3196.14 655.913   3
  -3   4  13 3218.08 641.934   3
   3  -4  13 2533.53 1245.51   2
   4  -3  13 4831.44 1661.53   2
   4  -3  11 7150.65 1859.65   2
  -3   4  11 8822.81 1982.33   2
   3  -4  11 10046.1 2175.49   2
  -4   3   9 23037.8 2615.26   2
   4  -3   9 21078.5 2812.84   2
   3  -4   9 20998.1 2742.98   2
  -3   4   9 15830.0 2663.79   2
   4  -3   7 41886.5 3469.31   2
   3  -4   7 47400.5 3701.74   2
  -3   4   7 55344.1 4261.00   2
  -4   3   7 50313.2 3326.00   2
  -3  -4  -5 62660.9 4380.55   1
   4  -3   5 74109.9 3907.06   2
  -4  -3  -5 59573.1 4271.96   1
  -4   3   5 71558.8 3181.62   2
  -3   4   5 65954.1 4346.89   2
  -4   3   3 1326.24 378.012   2
  -3   4   3 1574.64 783.932   2
  -4  -3  -3 2474.23 982.949   1
  -3  -4  -3 589.492 774.574   1
  -3   4   1 1403.05 684.331   2
  -4  -3  -1 1278.72 778.818   1
  -3  -4  -1 797.320 687.983   1
   3  -4  -1 1625.69 380.394   1
  -4  -3   1 1520.41 705.953   1
   3   4   1-301.353 1048.41   2
  -3  -4   1 1006.18 719.262   1
  -3  -4   3 1337.22 745.628   1
   3   4   3 394.443 1136.71   2
   4   3   3 1490.93 1190.93   2
  -4  -3   3 1940.80 751.610   1
  -4  -3   5 66026.9 3786.08   1
   4   3   5 68901.5 5794.01   2
   3   4   5 58822.8 5581.12   2
  -3  -4   5 70038.6 4128.53   1
   3   4   7 50824.5 5774.02   2
   4   3   7 47495.3 5233.82   2
  -4  -3   7 46000.2 3440.54   1
  -3  -4   7 46072.0 3641.19   1
  -4  -3   9 16425.8 2324.28   1
   4   3   9 21177.3 3788.57   2
   3   4   9 22819.0 4153.37   2
   3   4  11 6869.29 2546.91   2
   4   3  11 6731.82 2341.93   2
   4   3  13 5930.46 2347.82   2
   3   4  13-1604.42 1538.04   2
   4   3  15 6866.13 2471.65   2
   3   4  15 3031.07 1912.78   2
  -4  -3  15 5279.24 1675.20   1
  -4  -3  17 6710.38 906.581   3
  -3  -4  19 9439.40 1021.00   3
  -4  -3  19 8897.00 980.823   3
  -4  -3  21 5924.41 744.170   3
  -3  -4  21 6216.48 753.325   3
  -4  -3  23 5732.80 569.584   3
  -3  -4  23 4860.07 512.553   3
  -4   4  22 20.0274 273.068   3
  -4   4  20-24.1222 377.514   3
  -4   4  18 284.486 429.748   3
  -4   4  16 8014.60 1025.75   3
  -4   4  14 336.730 386.956   3
   4  -4  14-2780.26 1387.52   2
   4  -4  12-72.9856 1031.32   2
  -4   4  12-184.095 288.366   3
   4  -4  10 79.3120 541.370   2
   4  -4   8 4579.50 1296.24   2
  -4   4   8 3821.21 1207.96   2
  -4  -4  -6 2813.93 1293.98   1
  -4   4   6 2658.34 911.197   2
   4  -4   6 3477.14 1035.44   2
  -4  -4  -4-87.0368 710.205   1
  -4   4   4 753.547 554.923   2
  -4   4   2-154.409 260.539   2
  -4  -4  -2 55.8376 537.235   1
  -4  -4   0 44729.9 3163.70   1
   4  -4   0 46997.7 1789.12   1
  -4  -4   2-188.191 617.898   1
   4   4   2 551.536 1129.56   2
  -4  -4   4 423.267 666.287   1
   4   4   4 799.651 1373.65   2
   4   4   6 1041.68 1295.21   2
  -4  -4   6 2555.81 958.008   1
  -4  -4   8 3312.67 1150.85   1
   4   4   8 3249.41 1635.74   2
  -4  -4  10-181.210 583.305   1
   4   4  10 594.170 1141.99   2
  -4  -4  12-642.468 699.622   1
   4   4  12 1354.64 1391.15   2
  -4  -4  14 836.983 780.021   1
   4   4  14-2864.20 1878.19   2
  -4  -4  18 17.6756 352.563   3
  -4  -4  20 211.011 306.922   3
  -4  -4  22-58.3447 259.207   3
  -5   0   1 196966. 4654.35   1
   5   0  -1 197771. 4149.41   2
   0  -5   1 196009. 5976.15   1
   0  -5  -1 206545. 5838.28   1
   5   0   1 197978. 5362.58   2
   0  -5   3 30394.0 2561.73   1
   5   0   3 29896.6 2607.82   2
   0   5   3 29595.3 3689.54   2
   0  -5  -3 31281.8 2466.79   1
  -5   0   3 31964.9 1708.94   1
  -5   0   5 170651. 4353.78   1
   5   0   5 169223. 7078.23   2
   0   5   5 177737. 9297.23   2
   5   0   7 129216. 7004.10   2
  -5   0   7 139020. 4581.20   1
   0   5   7 128102. 8606.75   2
   5   0   9 45359.3 4588.02   2
   0   5   9 40678.7 5099.11   2
   5   0  11 61503.9 5957.72   2
   0   5  11 62435.1 6690.34   2
   5   0  13 88796.6 7780.48   2
   0   5  13 86261.5 8238.98   2
   0   5  13 94735.6 3156.08   3
  -5   0  13 93154.5 2880.47   3
   0   5  15 16080.5 1418.79   3
   5   0  15 14754.1 3394.97   2
   0   5  15 18836.9 3949.46   2
  -5   0  15 16460.7 1321.09   3
   0   5  17 23972.2 1751.22   3
  -5   0  17 25182.1 1700.82   3
   0   5  19 38938.5 2220.85   3
   0  -5  19 37129.6 1828.87   3
  -5   0  19 42383.9 2162.63   3
   0   5  21 13951.6 1259.73   3
  -5   0  21 14793.5 1151.51   3
   0  -5  21 14478.2 1009.56   3
  -5   0  23 12365.9 841.957   3
   0   5  23 9581.52 704.128   4
  -5   1  22 4709.98 615.725   3
  -1   5  22 3800.92 655.506   3
  -1   5  20 5248.99 827.520   3
  -5   1  20 6512.13 833.280   3
   1  -5  20 7280.66 755.025   3
  -1   5  18 17224.5 1496.77   3
  -5   1  18 16089.5 1392.77   3
   1  -5  18 15480.9 1178.87   3
  -5   1  16 11676.4 1174.22   3
  -1   5  16 11510.0 1204.59   3
  -1   5  14 33552.9 1944.61   3
  -1   5  14 30407.2 4845.39   2
   5  -1  14 29073.4 4423.16   2
  -5   1  14 31522.0 1777.22   3
  -1   5  12 28066.5 1685.46   3
  -5   1  12 27395.0 1513.37   3
   5  -1  12 23739.4 3716.93   2
  -1   5  12 23513.2 4054.71   2
   5  -1  10 21981.0 3298.71   2
  -1   5  10 17495.9 3353.59   2
  -5   1   8 20089.0 1959.47   2
  -1   5   8 18442.4 3314.09   2
   5  -1   8 16709.8 2612.33   2
   5  -1   6 36711.9 3312.89   2
  -1  -5  -6 34081.7 3278.96   1
  -1   5   6 39746.3 4394.71   2
   5  -1   4 15251.8 1775.62   2
  -5   1   4 13335.1 773.784   1
  -1  -5  -4 16213.4 2033.14   1
  -1   5   4 14645.9 2557.05   2
  -1   5   2 81116.4 5467.38   2
   5  -1   2 86965.7 3135.95   2
   1  -5   2 91039.2 4074.72   1
  -1  -5  -2 90286.2 4283.31   1
  -5  -1  -2 85393.0 4210.88   1
  -5  -1   0 78177.9 3513.96   1
   5   1   0 81320.2 4152.76   2
   1  -5   0 83930.6 3622.33   1
  -1  -5   0 80313.7 3895.71   1
   5   1   2 91706.4 4873.42   2
   1   5   2 91236.3 6382.26   2
  -5  -1   2 85722.7 3356.38   1
  -1  -5   2 87756.4 4246.28   1
   1  -5  -2 89959.8 3669.31   1
   5   1   4 13073.9 2205.29   2
  -1  -5   4 13938.9 1913.56   1
   1   5   4 17293.6 3125.93   2
   1  -5  -4 13554.3 1640.54   1
  -5  -1   4 13912.2 1418.60   1
  -5  -1   6 38599.6 2553.86   1
   1   5   6 37990.8 4748.55   2
   5   1   6 36588.0 3930.38   2
   5   1   8 17427.7 2918.40   2
  -5  -1   8 20511.8 2091.09   1
   1   5   8 19470.9 3637.26   2
   5   1  10 23320.5 3768.12   2
  -5  -1  10 18715.9 2284.78   1
   1   5  10 23336.3 4279.93   2
   1   5  12 24873.8 4564.09   2
   5   1  12 25889.7 4243.16   2
   1   5  14 25870.0 4803.10   2
   1   5  14 32593.5 1917.63   3
   5   1  14 30729.9 4829.20   2
  -5  -1  14 33281.4 1801.57   3
  -5  -1  16 11467.7 1120.89   3
   1   5  16 10759.8 1182.04   3
  -1  -5  18 14427.5 1238.01   3
  -5  -1  18 17359.7 1375.54   3
   1   5  18 15687.7 1441.11   3
  -5  -1  20 6658.93 870.467   3
  -1  -5  20 6332.98 761.804   3
   1   5  20 5261.87 837.018   3
  -1  -5  22 5214.58 580.071   3
  -5  -1  22 4308.86 575.967   3
  -5   2  23 177.964 234.757   3
  -2   5  23 570.432 235.286   4
  -5   2  21 239.466 298.202   3
  -2   5  21 32.3807 350.290   3
  -5   2  19 809.385 496.560   3
  -2   5  19 1185.59 540.424   3
  -2   5  17 4233.48 778.667   3
  -5   2  17 4451.79 790.312   3
   2  -5  17 4766.95 663.555   3
  -2   5  15 17096.4 1461.44   3
  -5   2  15 16336.0 1394.17   3
  -2   5  13 2162.67 1364.33   2
   5  -2  13 432.593 732.199   2
  -5   2  13 541.156 316.104   3
  -2   5  13 1495.81 527.353   3
   5  -2  11 4512.56 1548.97   2
  -2   5  11-102.315 744.783   2
   5  -2   9 298.555 902.631   2
  -2   5   9 2402.24 1338.49   2
   5  -2   7 2064.74 866.587   2
  -2   5   7 2986.94 1417.60   2
   5  -2   5 2254.62 709.434   2
  -2   5   5 817.704 821.603   2
  -2  -5  -5 486.163 574.105   1
  -2   5   3 9039.29 1906.42   2
  -5  -2  -3 10841.0 1759.83   1
   5  -2   3 11127.6 1235.92   2
  -2  -5  -3 11688.7 1818.86   1
  -5  -2  -1 45785.7 3062.78   1
  -2  -5  -1 43249.7 3088.36   1
   5   2  -1 42464.9 3524.71   2
   2  -5   1 45558.3 2637.00   1
  -5  -2   1 46316.4 2805.66   1
   5   2   1 43717.4 3802.23   2
   2  -5  -1 44704.6 2391.93   1
   2   5   1 43601.8 4595.48   2
  -2  -5   1 44645.4 3125.10   1
   5   2   3 12099.5 2225.02   2
   2   5   3 14168.9 2924.62   2
  -2  -5   3 10939.2 1694.63   1
   2  -5  -3 9669.47 1200.42   1
  -5  -2   3 11532.3 1427.47   1
  -5  -2   5 1154.79 677.289   1
   5   2   5 1704.70 1313.05   2
   2   5   5 1127.91 1194.12   2
  -2  -5   5 1540.24 943.724   1
   5   2   7 1352.74 1149.69   2
   2   5   7 2251.59 1605.05   2
  -5  -2   7 2494.04 823.715   1
  -5  -2   9 480.711 492.343   1
   5   2   9-367.085 868.110   2
   2   5   9 353.494 1368.34   2
  -5  -2  11 3278.49 1051.17   1
   5   2  11 5225.20 1995.28   2
   2   5  11 3896.84 2052.29   2
   2   5  13 2694.34 1759.12   2
   5   2  13 1179.64 1318.62   2
   2   5  13 667.522 412.107   3
   2   5  15 15127.6 1412.50   3
   2   5  15 15052.0 3964.83   2
   5   2  15 10613.7 3028.85   2
  -5  -2  15 16473.7 1324.50   3
  -5  -2  17 3917.85 715.204   3
   2   5  17 4176.59 843.606   3
  -2  -5  19 942.359 452.043   3
  -5  -2  19 895.409 436.966   3
   2   5  19 736.916 458.615   3
  -2  -5  21-42.1389 259.698   3
  -5  -2  21 269.266 311.614   3
  -5  -2  23 193.795 190.954   3
  -2  -5  23-15.3335 145.787   3
  -3   5  22-135.558 269.408   3
  -5   3  22 163.074 255.007   3
  -3   5  20 497.967 391.141   3
  -5   3  20 436.744 339.143   3
  -5   3  18 2607.50 639.510   3
  -3   5  18 2019.14 549.168   3
  -5   3  16 9703.79 1113.81   3
  -3   5  16 10052.8 1131.17   3
  -5   3  14-44.3588 326.763   3
   5  -3  14-1426.66 1231.07   2
  -3   5  14-309.111 432.938   3
   5  -3  12 2666.55 1333.90   2
  -3   5  12 3121.03 628.519   3
  -5   3  12 2368.37 540.436   3
   5  -3  10-1704.30 1033.06   2
  -3   5  10-2894.47 1349.15   2
  -3   5   8 827.820 803.002   2
   5  -3   8-531.330 597.030   2
  -3  -5  -6 12266.4 2315.61   1
   5  -3   6 14122.7 1939.48   2
  -3   5   6 12017.4 2283.31   2
  -5  -3  -4 13218.3 2148.86   1
  -3  -5  -4 14302.5 2189.83   1
  -3   5   4 15800.8 2410.18   2
   5  -3   4 12476.6 1490.06   2
  -3  -5  -2-227.077 531.859   1
  -3   5   2 235.281 762.594   2
  -5  -3  -2 593.067 566.830   1
   3  -5   0 22851.2 1654.89   1
   5   3   0 25102.5 3214.25   2
  -5  -3   0 23266.3 2308.55   1
  -3  -5   0 21874.4 2441.06   1
  -5  -3   2 297.674 579.985   1
   3  -5  -2 170.972 310.329   1
   5   3   2 19.8992 982.421   2
  -3  -5   2 513.814 694.873   1
   3   5   2 72.7726 1311.08   2
  -3  -5   4 12437.0 1933.85   1
  -5  -3   4 12944.2 1739.33   1
   5   3   4 11528.3 2505.41   2
   3   5   4 16893.1 3308.41   2
  -3  -5   6 11408.3 1885.73   1
   5   3   6 14434.4 2993.94   2
  -5  -3   6 9925.93 1697.33   1
   3   5   6 12914.4 3085.48   2
  -5  -3   8 1638.76 797.715   1
  -3  -5   8 566.996 716.671   1
   3   5   8 1672.63 1503.57   2
   5   3   8 439.552 1500.70   2
  -5  -3  10-1771.15 903.002   1
   5   3  10 2102.65 1432.27   2
  -3  -5  10 350.338 649.153   1
   3   5  10-1153.16 1445.59   2
  -3  -5  12 2201.43 1103.88   1
  -5  -3  12 1445.35 895.562   1
   5   3  12 1983.80 1969.80   2
   3   5  12 2703.08 1988.51   2
  -3  -5  14-257.913 955.725   1
   3   5  14 431.617 357.216   3
   5   3  14 2056.67 1601.28   2
  -5  -3  16 10837.0 1114.28   3
   3   5  16 8048.62 1113.54   3
  -5  -3  18 2252.86 608.985   3
  -3  -5  18 1965.87 572.864   3
  -5  -3  20 790.541 440.144   3
  -3  -5  20 484.463 342.166   3
  -5  -3  22 570.195 321.962   3
   3   5  22 552.290 247.635   4
  -5   4  23 1245.05 287.181   3
  -4   5  21 4762.35 764.448   3
  -5   4  21 3736.91 625.677   3
  -5   4  19 6539.92 890.427   3
  -4   5  19 5999.43 901.846   3
  -4   5  17 693.295 441.405   3
  -5   4  17 677.402 452.666   3
  -5   4  15 99.2296 345.507   3
  -4   5  15 636.336 421.608   3
  -4   5  13 4724.75 759.193   3
  -5   4  13 4871.50 768.818   3
   5  -4  11 9486.42 2186.84   2
  -4   5  11 13019.0 1144.45   3
  -5   4  11 12658.6 1099.10   3
   5  -4   9 4306.53 1427.91   2
   5  -4   7 19229.6 2446.67   2
  -4   5   5 45970.5 3540.27   2
  -5  -4  -5 39515.4 3934.45   1
  -4  -5  -5 40714.6 4043.16   1
  -4  -5  -3 3246.07 1170.76   1
  -5  -4  -3 3038.68 1244.16   1
  -4   5   3 2799.77 981.118   2
   4  -5   1 262.972 213.621   1
  -4   5   1 1144.01 698.775   2
  -4  -5  -1 150.412 747.227   1
  -5  -4  -1 380.007 549.740   1
  -5  -4   1 277.042 623.566   1
   4   5   1 775.645 1454.75   2
   5   4   1 583.507 1198.76   2
  -4  -5   1 125.065 618.539   1
   5   4   3 3012.31 1551.64   2
   4   5   3 1998.39 1385.22   2
  -4  -5   3 1995.14 753.683   1
  -5  -4   3 1875.80 850.470   1
   4   5   5 45402.6 5548.11   2
  -4  -5   5 40554.1 3503.12   1
   5   4   5 37832.9 4982.40   2
  -5  -4   5 44204.5 3475.58   1
  -5  -4   7 16687.5 2292.80   1
  -4  -5   7 17180.6 2470.67   1
   5   4   7 20043.5 4144.35   2
   4   5   7 16554.9 3736.37   2
  -5  -4   9 4397.36 1324.89   1
  -4  -5   9 3001.27 1207.42   1
   4   5   9 5018.05 2330.31   2
   5   4   9 952.793 1268.47   2
  -4  -5  11 7544.91 1891.91   1
   4   5  11 13584.9 3658.23   2
   5   4  11 17315.1 3863.27   2
  -5  -4  11 10531.1 2084.63   1
   5   4  13 930.844 1095.03   2
   4   5  13 2405.42 1726.76   2
  -4  -5  13 3282.76 945.519   1
  -5  -4  13 4680.71 1481.92   1
  -5  -4  17 618.827 423.421   3
  -5  -4  19 6607.23 827.535   3
  -4  -5  19 6670.43 832.605   3
  -5  -4  21 5628.52 679.442   3
  -4  -5  21 4584.98 589.020   3
  -5  -4  23 1818.48 295.614   3
  -5   5  22 12632.7 779.394   4
  -5   5  22 12673.1 993.337   3
  -5   5  20 32490.9 1855.04   3
  -5   5  18 31277.9 1961.32   3
  -5   5  16 63.0828 379.009   3
  -5   5  14 12785.7 1252.77   3
  -5   5  12 32555.0 1866.92   3
  -5   5  10 36440.4 1850.32   3
  -5  -5  -6 243834. 10619.8   1
  -5  -5  -4 46037.8 4296.01   1
  -5  -5  -2 9578.13 1912.84   1
   5   5   0 28682.4 4155.23   2
  -5  -5   0 26783.9 2889.10   1
  -5  -5   2 9927.17 1780.14   1
   5   5   2 9342.92 2539.07   2
   5   5   4 49576.6 5788.96   2
  -5  -5   4 49188.2 3882.54   1
   5   5   6 240081. 13464.9   2
  -5  -5   6 231209. 8869.31   1
   5   5   8 80576.6 8425.44   2
  -5  -5   8 76843.1 5415.70   1
   5   5  10 32476.2 5749.61   2
  -5  -5  10 25940.0 3402.66   1
   5   5  12 30030.0 5387.07   2
  -5  -5  12 30770.5 3963.06   1
  -5  -5  14 7288.33 1990.60   1
  -5  -5  18 28798.4 1681.88   3
  -5  -5  20 32505.7 1571.29   3
  -5  -5  22 15660.0 901.523   3
   6   0   0 181720. 4175.22   2
  -6   0   0 191045. 5452.66   1
   0  -6   0 188911. 6313.17   1
   0  -6  -2 61174.0 3632.86   1
   0   6   2 66802.1 5834.13   2
   0  -6   2 58636.9 3720.83   1
  -6   0   2 68261.4 2881.80   1
   6   0   2 59253.3 3283.22   2
   0  -6  -4 141712. 6065.74   1
   6   0   4 141251. 6177.02   2
   0  -6   4 145576. 6203.20   1
   0   6   4 130244. 8382.58   2
  -6   0   4 145542. 3903.17   1
   0  -6  -6 87464.9 5185.12   1
   0   6   6 103574. 8055.15   2
   6   0   6 100819. 5982.11   2
   6   0   8 83361.0 6058.47   2
   0   6   8 83421.3 7712.04   2
   0   6  10 52916.2 6414.64   2
   6   0  10 55326.1 5458.05   2
   0   6  12 94289.5 8821.84   2
   6   0  12 96084.5 7870.24   2
   0   6  12 105632. 3478.01   3
  -6   0  12 101233. 2942.72   3
   0   6  14 19958.4 1652.48   3
  -6   0  14 17165.8 1314.36   3
   6   0  14 18903.6 3733.78   2
   0   6  16 25136.2 1933.60   3
  -6   0  16 24060.5 1632.00   3
   0   6  18 21118.8 1757.42   3
   0  -6  18 19804.9 1387.43   3
  -6   0  18 22688.2 1609.07   3
   0   6  20 30157.5 1953.16   3
  -6   0  20 34265.8 1756.70   3
   0  -6  20 35561.8 1607.22   3
   0   6  22 13650.6 915.158   4
  -6   0  22 15167.9 976.323   3
   0  -6  22 13731.2 798.459   3
  -1   6  23 3686.99 413.612   4
  -6   1  23 4758.66 511.073   3
  -1   6  21 8605.81 1002.77   3
  -6   1  21 9588.60 888.458   3
  -6   1  19 9634.97 1005.79   3
  -1   6  19 10775.3 1244.52   3
   1  -6  19 10505.8 919.933   3
  -1   6  17 10716.7 1290.50   3
  -6   1  17 12532.3 1216.50   3
  -6   1  15 14916.6 1303.00   3
  -1   6  15 14012.2 1425.53   3
   6  -1  13 31443.4 4472.73   2
  -1   6  13 27329.7 4417.63   2
  -6   1  13 31836.5 1763.15   3
  -1   6  13 35434.8 2093.68   3
  -1   6  11 27836.1 4484.37   2
   6  -1  11 25873.2 3839.95   2
  -1   6  11 30537.1 1825.39   3
  -1   6   9 35483.1 4870.03   2
   6  -1   9 35318.1 4032.91   2
  -1   6   7 15861.4 3148.37   2
   6  -1   7 18394.5 2554.05   2
   6  -1   5 28862.1 2754.85   2
  -1  -6  -5 23934.1 2817.85   1
  -1   6   5 24476.4 3593.55   2
  -1   6   3 74723.9 5992.14   2
   6  -1   3 80903.0 3578.30   2
   1  -6   3 78661.5 4309.53   1
  -1  -6  -3 75015.0 4497.42   1
   6   1  -1 53030.0 3357.40   2
   1  -6   1 50856.5 3253.54   1
  -1  -6  -1 50988.6 3477.06   1
  -6  -1  -1 48127.0 3233.58   1
  -6  -1   1 48157.0 2884.15   1
   1  -6  -1 49925.6 3070.97   1
  -1  -6   1 50257.0 3451.27   1
   6   1   1 50138.0 3544.66   2
   1   6   3 73919.9 6450.52   2
  -1  -6   3 72709.3 4397.56   1
  -6  -1   3 74123.2 3348.92   1
   1  -6  -3 75552.3 3961.69   1
   6   1   3 75307.9 4917.33   2
   6   1   5 27121.8 3296.10   2
   1  -6  -5 23468.3 2454.95   1
  -1  -6   5 24896.5 2765.89   1
  -6  -1   5 26743.8 2060.52   1
   1   6   5 21813.9 4016.81   2
  -6  -1   7 22823.8 2104.96   1
   6   1   7 19223.9 3133.94   2
  -1  -6   7 19448.0 2639.52   1
   1   6   7 15794.3 3558.40   2
   1   6   9 32800.0 5194.57   2
   6   1   9 34632.6 4427.21   2
   6   1  11 29869.4 4377.00   2
   1   6  11 27039.2 4891.34   2
   1   6  13 28211.3 5074.41   2
   6   1  13 27892.7 4496.81   2
   1   6  13 32789.4 2070.22   3
  -6  -1  13 32629.2 1743.36   3
   1   6  15 14693.2 1515.25   3
  -6  -1  15 15500.3 1284.66   3
   1   6  17 11503.9 1356.64   3
  -6  -1  17 12235.8 1176.70   3
   1   6  19 9079.58 1151.41   3
  -6  -1  19 9791.46 1026.69   3
  -1  -6  19 9238.27 956.964   3
  -6  -1  21 9352.60 867.427   3
  -1  -6  21 9028.84 785.510   3
  -6  -1  23 5126.85 498.802   3
  -2   6  22 101.036 210.035   4
  -6   2  22 38.7607 224.116   3
  -6   2  20 140.221 329.112   3
  -2   6  20-333.216 465.985   3
   2  -6  18 1014.23 377.658   3
  -2   6  18 692.348 471.075   3
  -6   2  18 1245.79 498.852   3
  -2   6  16 2986.07 717.494   3
  -6   2  16 2959.14 663.072   3
  -2   6  14 17984.0 1532.84   3
  -6   2  14 19520.5 1493.94   3
  -6   2  12 246.996 284.784   3
  -2   6  12-71.6274 409.421   3
  -2   6  10 4989.08 1883.86   2
   6  -2  10 5794.04 1623.18   2
   6  -2   8-866.763 714.959   2
  -2   6   8-414.697 876.742   2
   6  -2   6 657.832 606.310   2
  -2   6   6-647.436 936.005   2
  -2  -6  -6 554.549 719.755   1
   6  -2   4 3977.77 872.721   2
  -2  -6  -4 5565.58 1466.39   1
  -2   6   4 3237.01 1448.82   2
   6   2  -2 32993.4 3310.45   2
  -2  -6  -2 33141.5 3053.33   1
  -2   6   2 30179.3 3707.38   2
   2  -6   2 33575.9 2673.99   1
  -6  -2  -2 29476.7 2881.34   1
   6   2   0 13270.9 2144.52   2
   2  -6   0 13352.3 1540.73   1
  -2  -6   0 11461.0 1732.25   1
  -6  -2   0 10952.0 1618.40   1
   2   6   2 29979.9 4262.87   2
  -6  -2   2 30868.4 2481.09   1
  -2  -6   2 30910.0 2947.14   1
   2  -6  -2 31264.7 2301.80   1
   6   2   2 33847.4 3555.13   2
  -6  -2   4 5333.30 1074.28   1
  -2  -6   4 4704.94 1183.30   1
   6   2   4 4553.88 1497.99   2
   2   6   4 3521.47 2286.63   2
   2  -6  -4 4444.77 1015.58   1
  -2  -6   6 423.230 614.266   1
   6   2   6 380.155 1102.37   2
   2   6   6 1579.81 1551.24   2
  -6  -2   6 520.361 478.869   1
  -2  -6   8-85.4538 854.386   1
  -6  -2   8-153.760 375.812   1
   2   6   8-1729.86 1687.74   2
  -2  -6  10 6031.63 1746.40   1
   2   6  10 4573.92 2314.44   2
   6   2  10 7840.56 2396.22   2
   6   2  12 47.3061 632.561   2
   2   6  12 32.6428 381.820   3
   2   6  12-1405.92 1296.47   2
  -2  -6  12 797.226 816.102   1
   6   2  14 10728.6 3066.68   2
  -2  -6  14 13368.2 2764.19   1
   2   6  14 17455.6 1617.29   3
  -6  -2  14 18173.8 1356.06   3
   2   6  14 18182.9 4317.79   2
  -6  -2  16 2758.56 629.008   3
   2   6  16 2955.48 774.470   3
  -6  -2  18 673.901 370.954   3
   2   6  18 818.714 535.549   3
  -6  -2  20 689.604 374.250   3
  -2  -6  20 459.502 262.639   3
  -2  -6  22-81.0803 206.782   3
  -6  -2  22 194.315 239.621   3
   2   6  22-140.657 162.547   4
  -3   6  21-4.86328 357.989   3
  -3   6  21 628.758 323.518   4
  -6   3  21 666.252 311.925   3
  -3   6  19 643.746 447.519   3
  -6   3  19 1375.59 475.303   3
  -6   3  17 149.022 342.961   3
  -3   6  17 287.986 431.355   3
  -3   6  15 11035.7 1268.21   3
  -6   3  15 9997.40 1102.83   3
  -6   3  13 342.050 366.990   3
  -3   6  13 219.064 357.215   3
   6  -3  11 482.465 704.964   2
  -3   6  11 319.489 347.596   3
  -6   3  11 358.045 344.329   3
   6  -3   9 1163.23 832.355   2
  -3   6   9 271.030 834.340   2
   6  -3   7 3950.88 1130.90   2
  -3   6   7 720.576 999.280   2
  -3  -6  -7 2174.94 1080.70   1
   6  -3   5-757.416 476.017   2
  -3   6   5-946.038 860.553   2
  -3  -6  -5 73.8494 647.354   1
  -3   6   3 6224.89 1736.30   2
   3  -6   3 6891.46 1324.07   1
  -6  -3  -3 4875.11 1486.21   1
  -3  -6  -3 9054.18 1871.23   1
  -6  -3  -1 52.0453 557.569   1
  -3  -6  -1 3179.69 1082.60   1
  -3   6   1 4022.61 1382.20   2
   6   3  -1 2516.17 1317.18   2
   3  -6   1 3148.42 799.703   1
   3  -6  -1 3371.16 707.374   1
   3   6   1 4211.27 2038.30   2
  -6  -3   1 2567.69 865.001   1
   6   3   1 2129.75 1247.33   2
  -3  -6   1 3866.61 1210.09   1
  -3  -6   3 7694.81 1657.64   1
   3   6   3 8125.13 2460.89   2
   6   3   3 7800.13 2066.04   2
  -6  -3   3 6922.38 1337.05   1
  -3  -6   5 643.062 836.412   1
   3   6   5 714.203 1393.27   2
   6   3   5 1366.75 1149.84   2
  -6  -3   5-380.667 467.078   1
  -3  -6   7 1220.77 853.037   1
  -6  -3   7 1676.69 824.806   1
   3   6   7-474.429 1286.84   2
   6   3   7 1539.34 1347.52   2
  -3  -6   9 906.832 887.107   1
  -6  -3   9-231.672 442.306   1
   6   3   9 1493.76 1240.19   2
   6   3  11 2040.37 1568.39   2
  -3  -6  11 290.002 772.680   1
   3   6  11-1590.09 1626.19   2
  -3  -6  13 1025.36 947.475   1
   3   6  13 145.900 324.460   3
   3   6  13 1268.70 1710.09   2
   6   3  13 678.234 944.891   2
   3   6  15 7340.07 1151.91   3
  -6  -3  15 9734.14 1040.99   3
  -6  -3  17 131.825 361.439   3
  -3  -6  19 952.549 417.076   3
  -6  -3  19 1425.07 471.721   3
  -3  -6  21 803.510 324.481   3
  -6  -3  21 613.781 317.418   3
   3   6  21 808.940 240.041   4
  -6   4  22 1365.45 259.236   4
  -4   6  22 1566.84 313.498   4
  -6   4  22 1513.94 375.584   3
  -6   4  20 4068.03 665.456   3
  -4   6  20 3291.52 671.489   3
  -4   6  18 1842.30 598.160   3
  -6   4  18 1499.07 498.720   3
  -4   6  16 8935.38 1121.09   3
  -6   4  16 7612.63 952.644   3
  -6   4  14 870.685 473.696   3
  -4   6  14 1455.30 581.738   3
  -6   4  12 1045.20 407.652   3
   6  -4  12 1743.20 1030.39   2
  -4   6  12 840.243 382.123   3
   6  -4  10 13344.5 2366.73   2
  -6   4  10 15240.7 1193.30   3
  -4   6  10 17449.4 1370.15   3
  -4  -6  -6 31983.8 3915.05   1
  -6  -4  -4 15361.4 2547.35   1
  -4  -6  -4 18563.5 2829.90   1
  -6  -4  -2 12484.7 2099.86   1
   4  -6   2 10798.6 1482.00   1
  -4   6   2 12095.4 2030.13   2
  -4  -6  -2 13106.9 2219.83   1
  -4   6   0 2954.19 1039.14   2
  -4  -6   0 73.1945 618.403   1
   4   6   0 615.833 1749.04   2
   6   4   0 1301.86 1135.02   2
  -6  -4   0 1429.10 848.957   1
   6   4   2 13515.0 2791.52   2
   4   6   2 13286.8 3110.81   2
  -4  -6   2 12523.2 2011.55   1
  -6  -4   2 11588.0 1740.72   1
  -4  -6   4 16586.0 2371.65   1
   4   6   4 17231.1 3798.04   2
  -6  -4   4 16311.0 2113.20   1
   6   4   4 13074.6 2992.67   2
  -6  -4   6 24336.1 2747.52   1
   4   6   6 32767.4 5298.98   2
   6   4   6 28187.6 4421.99   2
  -4  -6   6 26779.6 3224.18   1
  -6  -4   8 15892.6 2391.89   1
  -4  -6   8 14923.3 2487.01   1
   6   4   8 15115.9 3623.63   2
   4   6   8 15648.2 3812.62   2
  -4  -6  10 12825.2 2465.98   1
   4   6  10 11484.1 3456.93   2
   6   4  10 10685.8 3149.87   2
  -6  -4  10 10371.5 2105.34   1
  -4  -6  12 2435.33 1324.79   1
   4   6  12 81.1461 942.540   2
  -6  -4  16 8441.26 974.218   3
  -6  -4  18 2375.12 596.623   3
  -4  -6  18 1462.77 501.201   3
  -6  -4  20 4959.40 657.521   3
  -4  -6  20 4462.18 632.859   3
  -4  -6  22 1839.33 323.490   3
  -6  -4  22 2369.80 369.608   3
  -5   6  21 16167.8 1215.86   3
  -5   6  21 18152.0 1009.42   4
  -6   5  21 18396.6 966.267   4
  -6   5  21 17266.5 1206.80   3
  -6   5  19 22813.6 1577.71   3
  -5   6  19 24314.4 1742.82   3
  -5   6  17 17213.5 1543.25   3
  -6   5  17 16008.4 1400.04   3
  -5   6  15 4112.35 769.744   3
  -6   5  15 4503.59 775.481   3
  -6   5  13 15586.1 1337.51   3
  -5   6  13 15548.9 1427.36   3
  -6   5  11 27065.4 1670.76   3
  -5   6  11 25609.4 1736.08   3
  -5   6   9 81223.2 2906.91   3
  -6  -5  -5 87495.2 6554.90   1
  -5  -6  -5 84490.1 6455.84   1
  -5  -6  -3 36004.6 3919.17   1
  -6  -5  -3 39157.4 4030.19   1
   5   6  -1 20127.0 3875.08   2
   6   5  -1 23713.1 3887.97   2
  -5  -6  -1 20606.3 2817.92   1
  -6  -5  -1 24189.4 2999.52   1
   5   6   1 26273.2 4557.07   2
  -5  -6   1 21576.6 2801.61   1
  -6  -5   1 23691.6 2855.37   1
   6   5   1 22187.4 3745.87   2
   5   6   3 41278.8 5677.88   2
  -5  -6   3 35634.3 3510.25   1
  -6  -5   3 32458.6 3252.78   1
   6   5   3 38465.9 5190.58   2
   6   5   5 82875.1 8043.81   2
   5   6   5 88977.8 8624.63   2
  -5  -6   5 87753.5 5699.96   1
  -6  -5   5 89765.0 5500.83   1
   6   5   7 127311. 10461.3   2
   5   6   7 125835. 10825.2   2
  -5  -6   7 123718. 7112.20   1
  -6  -5   7 118321. 6661.57   1
   5   6   9 68824.3 8241.07   2
   6   5   9 70730.3 8147.80   2
  -5  -6   9 65862.0 5482.77   1
  -6  -5   9 61944.9 5120.19   1
  -5  -6  11 25251.9 3612.33   1
  -6  -5  11 22222.8 3185.15   1
   5   6  11 19651.3 4646.77   2
   6   5  11 28061.2 5202.03   2
   5   6  13 13036.4 3737.33   2
  -5  -6  13 14599.4 3215.89   1
   6   5  13 14701.0 4346.59   2
  -6  -5  17 15297.5 1269.78   3
  -6  -5  19 24916.3 1416.82   3
  -5  -6  19 23589.6 1399.68   3
  -5  -6  21 19697.9 1065.38   3
  -6  -5  21 20492.2 1097.76   3
  -6   6  20 16205.3 1272.25   3
  -6   6  20 18804.1 1060.84   4
  -6   6  18 20110.5 1336.48   4
  -6   6  18 20263.9 1578.18   3
  -6   6  16 7083.69 1032.02   3
  -6   6  14 14884.0 1409.69   3
  -6   6  12 17788.1 1507.02   3
  -6   6  10 57283.7 2581.35   3
  -6   6   8 84064.3 3020.66   3
  -6   6   8 79355.2 2709.46   4
  -6  -6  -6 67345.1 6199.22   1
  -6  -6  -4 49451.1 4934.83   1
   6   6  -2 57100.2 6572.03   2
  -6  -6  -2 53375.8 4841.03   1
   6   6   0 21031.9 4194.08   2
  -6  -6   0 20386.3 2922.35   1
   6   6   2 55123.1 6743.44   2
  -6  -6   2 51656.5 4419.55   1
   6   6   4 50841.2 6716.97   2
  -6  -6   4 43456.6 4086.10   1
  -6  -6   6 67103.6 5232.25   1
   6   6   6 64241.7 7637.80   2
  -6   6  -8 82206.8 3127.84   5
  -6  -6   8 73812.8 5748.11   1
   6   6   8 77466.4 8974.41   2
  -6  -6  10 55720.3 5216.85   1
   6   6  10 49811.7 7391.83   2
  -6  -6  12 16047.5 2984.25   1
   6   6  12 19005.1 4529.64   2
  -6  -6  18 21100.6 1336.36   3
  -6  -6  20 20504.3 1120.38   3
   0  -7  -1 13882.2 1899.83   1
   0   7   1 16540.6 3255.13   2
   0  -7   1 15236.8 2060.69   1
   0  -7   3 17502.5 2344.89   1
   0   7   3 19224.7 3498.42   2
   0  -7  -3 17542.3 2259.52   1
   7   0   5 61735.6 4330.28   2
   0  -7   5 64869.6 4632.43   1
   0   7   5 59694.8 6343.67   2
   0  -7  -5 58385.7 4432.72   1
   0   7   7 31117.0 4923.08   2
   7   0   7 31557.3 3594.09   2
   0  -7   7 32842.1 3566.25   1
   7   0   9 22193.6 3403.34   2
   0   7   9 23787.7 4604.31   2
   0   7  11 40628.2 6138.69   2
   7   0  11 38000.4 4852.17   2
   0   7  11 45386.9 2526.87   3
  -7   0  11 42874.3 1879.36   3
   7   0  13 1144.94 926.402   2
   0   7  13-195.529 445.903   3
  -7   0  13 291.721 304.565   3
   0   7  15 8891.90 1240.93   3
  -7   0  15 8583.96 964.247   3
  -7   0  17 6579.24 875.604   3
   0   7  17 6405.23 1092.93   3
   0   7  19 7180.26 1035.45   3
  -7   0  19 7961.91 876.165   3
   0  -7  19 9875.03 906.067   3
   0   7  21 12771.1 924.831   4
  -7   0  21 13248.0 941.561   3
   0  -7  21 12492.7 799.786   3
  -1   7  22 2349.10 362.587   4
  -7   1  22 2497.53 393.302   3
  -1   7  20 3562.77 613.750   4
  -7   1  20 3559.23 581.517   3
   1  -7  20 3840.94 481.447   3
  -7   1  18 877.531 448.680   3
   1  -7  18 1656.47 449.854   3
  -1   7  18 953.773 559.260   3
  -1   7  16 1007.46 536.501   3
  -7   1  16 1120.51 437.536   3
  -7   1  14 71.9889 381.017   3
  -1   7  14 338.501 520.651   3
  -7   1  12 3038.69 574.375   3
   7  -1  12 2497.57 1585.57   2
  -1   7  12 3712.85 856.065   3
  -1   7  12 1002.99 1385.38   2
   7  -1  10 6301.73 1876.84   2
  -1   7  10 6404.34 972.746   3
  -1   7  10 8231.26 2633.65   2
   7  -1   8 8614.50 1899.54   2
  -1   7   8 8487.55 2881.16   2
   1  -7   6 5825.83 1465.81   1
  -1  -7  -6 4682.52 1451.20   1
   7  -1   6 5259.31 1367.21   2
  -1   7   6 2136.19 1783.14   2
   1  -7   4 9996.77 1796.57   1
  -1   7   4 8011.07 2536.48   2
  -1  -7  -4 9472.48 1910.70   1
  -1  -7  -2 419.629 549.925   1
   1  -7   2 302.798 437.249   1
  -1   7   2-705.863 1004.47   2
  -1  -7   0-589.659 628.762   1
  -7  -1   0 127.949 427.094   1
   1  -7   0 937.548 603.825   1
   7   1   2 154.875 708.319   2
  -7  -1   2 134.769 454.377   1
   1  -7  -2 456.407 612.179   1
  -1  -7   2 652.093 764.763   1
   1   7   4 6563.52 2229.37   2
   1  -7  -4 6362.18 1441.71   1
  -1  -7   4 10584.8 1915.67   1
  -7  -1   4 10271.1 1336.39   1
   7   1   4 8161.60 1858.19   2
  -1  -7   6 5790.31 1563.09   1
   7   1   6 2758.61 1228.35   2
   1   7   6 4916.92 2197.40   2
  -1  -7   8 8113.41 1887.98   1
   1   7   8 9337.36 2917.04   2
   7   1   8 6723.93 2033.25   2
  -1  -7  10 5157.44 1726.33   1
   7   1  10 4763.20 1820.72   2
   1   7  10 5984.43 2316.34   2
   1   7  10 6932.89 984.572   3
   7   1  12 500.025 961.911   2
  -1  -7  12 2821.90 1546.80   1
   1   7  12 2995.22 724.984   3
  -7  -1  12 3352.88 606.514   3
  -7  -1  14 251.732 409.264   3
   1   7  14 132.293 458.408   3
  -7  -1  16 1197.43 485.879   3
   1   7  16 1204.28 603.763   3
   1   7  18 432.485 445.157   3
  -7  -1  18 1020.20 461.415   3
  -7  -1  20 3001.34 517.333   3
  -1  -7  20 2966.45 479.447   3
   1   7  20 3725.27 593.601   4
  -1  -7  22 1539.19 275.120   3
  -7  -1  22 2616.47 392.813   3
   1   7  22 2142.58 323.193   4
  -2   7  21 1731.50 394.896   4
  -7   2  21 2021.60 434.915   3
  -7   2  19 344.408 288.626   3
  -2   7  19-113.207 474.157   3
  -7   2  17 2158.08 577.831   3
  -2   7  17 1010.18 582.224   3
  -2   7  15 5215.46 971.336   3
  -7   2  15 5246.27 810.971   3
  -2   7  13 2234.11 591.468   3
  -7   2  13 1776.10 484.515   3
  -2   7  11 6703.76 987.424   3
  -7   2  11 6327.31 769.708   3
  -2   7  11 5678.64 2083.17   2
   7  -2   9 7475.94 1800.17   2
  -2   7   9 11273.2 2804.06   2
  -2   7   7 3776.17 1758.82   2
  -2  -7  -7 2053.70 1269.68   1
   2  -7   5 330.423 512.891   1
  -2   7   5 1238.28 1165.75   2
  -2  -7  -5-810.378 802.383   1
  -2   7   3 11900.5 2747.46   2
   2  -7   3 13083.1 1931.29   1
  -2  -7  -3 17506.3 2505.35   1
  -2   7   1 669.060 910.155   2
  -7  -2  -1-235.563 545.140   1
  -2  -7  -1 675.169 706.106   1
   2  -7   1-229.324 386.472   1
   7   2  -1 247.303 584.147   2
  -7  -2   1 437.379 546.955   1
   2  -7  -1-550.396 410.154   1
   2   7   1-1132.73 1426.82   2
   7   2   1-2315.71 1007.88   2
  -2  -7   1 270.424 592.821   1
  -2  -7   3 16403.8 2369.50   1
   7   2   3 20375.4 3001.66   2
   2  -7  -3 16529.6 1946.03   1
   2   7   3 18819.0 3766.92   2
  -7  -2   3 14845.0 1889.88   1
  -7  -2   5 822.899 516.193   1
   7   2   5-251.266 839.995   2
   2   7   5 813.716 1566.08   2
  -2  -7   5 588.062 797.434   1
  -2  -7   7 2574.96 1246.14   1
   2   7   7 909.979 1651.82   2
   7   2   7 2029.95 1191.32   2
  -2  -7   9 7053.76 1877.77   1
   7   2   9 8506.06 2484.24   2
   2   7   9 7202.75 3428.58   2
  -2  -7  11 6743.83 1895.50   1
   7   2  11 4912.87 1925.67   2
   2   7  11 4631.93 913.317   3
   2   7  11 7866.71 3018.60   2
   7   2  13 2464.59 1527.95   2
  -7  -2  13 2194.09 528.254   3
  -2  -7  13 1849.91 1208.09   1
   2   7  13 1984.90 682.995   3
   2   7  13 2538.94 1894.91   2
   2   7  15 5740.23 990.283   3
  -7  -2  15 5598.63 796.064   3
  -7  -2  17 1177.91 423.965   3
  -7  -2  19 165.303 316.749   3
  -2  -7  19 266.994 345.215   3
  -2  -7  21 1485.78 348.919   3
   2   7  21 1471.04 320.871   4
  -7  -2  21 2028.17 419.194   3
  -3   7  22 4522.24 457.774   4
  -7   3  22 4566.88 534.975   3
  -3   7  20 4962.49 658.750   4
  -7   3  20 4894.08 653.274   3
  -3   7  20 4038.38 775.824   3
  -3   7  18 888.820 525.047   3
  -7   3  18 1224.43 436.262   3
  -3   7  16 7734.57 1199.54   3
  -7   3  16 6112.54 859.434   3
  -7   3  14 237.339 359.760   3
  -3   7  14-545.629 577.483   3
  -7   3  12 3302.04 645.415   3
  -3   7  12 2721.96 718.798   3
  -3   7  10 18333.2 1563.62   3
  -7   3  10 18542.5 1289.09   3
  -3  -7  -6 2979.92 1146.52   1
  -3   7   6-2336.27 1290.22   2
  -7  -3  -4 17354.8 2787.43   1
   3  -7   4 18472.0 2321.01   1
  -3   7   4 15576.3 2841.07   2
  -3  -7  -4 22981.6 3147.91   1
  -7  -3  -2 2349.66 1301.71   1
   3  -7   2 8119.67 1455.20   1
  -3   7   2 5754.69 1948.31   2
  -3  -7  -2 6611.08 1587.16   1
   7   3  -2 5884.62 1741.20   2
  -7  -3   0-410.055 574.817   1
  -3  -7   0-307.299 908.949   1
   3   7   0 1309.51 1792.63   2
   7   3   0-477.758 825.719   2
   3  -7   0 1036.44 566.233   1
   3   7   2 8205.40 2630.66   2
  -7  -3   2 5372.31 1226.48   1
   7   3   2 6154.02 1637.13   2
  -3  -7   2 5975.68 1553.14   1
   3   7   4 19176.5 3994.10   2
  -3  -7   4 18116.2 2632.41   1
   7   3   4 19885.7 3305.48   2
  -7  -3   4 20403.4 2322.70   1
  -3  -7   6 2383.96 1258.93   1
   3   7   6 1113.04 1367.27   2
   7   3   6 1791.10 1340.99   2
  -7  -3   6 1501.15 735.154   1
  -3  -7   8 11247.5 2315.82   1
   3   7   8 9882.45 3362.68   2
  -7  -3   8 11190.3 1822.45   1
   7   3   8 8722.49 2547.13   2
  -3  -7  10 19834.1 3280.54   1
   3   7  10 19019.7 4570.73   2
   7   3  10 15471.7 3471.42   2
   7   3  12 2242.25 2052.14   2
   3   7  12 5863.08 2665.67   2
  -3  -7  12 4378.04 1617.47   1
  -7  -3  14-112.122 300.494   3
  -7  -3  16 6287.12 833.410   3
  -7  -3  18 1542.83 484.548   3
   3   7  20 4559.54 518.097   4
  -7  -3  20 5629.22 676.165   3
  -3  -7  20 5309.61 643.924   3
  -7  -3  22 4919.55 471.690   3
  -3  -7  22 4450.02 446.685   3
  -4   7  21 438.801 206.967   4
  -7   4  21 589.546 203.624   4
  -7   4  21 297.925 295.117   3
  -4   7  19-259.564 548.472   3
  -4   7  19 337.231 302.414   4
  -7   4  19 230.924 296.792   3
  -4   7  17 454.962 447.919   3
  -7   4  17 221.334 305.379   3
  -4   7  15 460.633 456.954   3
  -7   4  15 702.800 420.873   3
  -7   4  13 1305.19 485.339   3
  -4   7  13 646.977 518.584   3
  -4   7  11-317.268 519.812   3
  -7   4  11 578.381 316.812   3
  -4   7   9-228.723 429.082   3
  -4  -7  -7-956.986 942.583   1
   4  -7   5-474.642 502.313   1
  -4  -7  -5 46.5656 1089.10   1
   4  -7   3-1181.16 607.069   1
  -7  -4  -3 2311.20 1157.70   1
   7   4  -3-1446.16 1194.90   2
  -4  -7  -3 1345.38 878.096   1
  -7  -4  -1-297.515 572.008   1
  -4  -7  -1 17.9472 816.312   1
   7   4  -1 474.778 1003.54   2
  -4  -7   1-33.9625 622.071   1
   4   7   1 1833.97 1553.67   2
  -7  -4   1 364.227 597.350   1
   7   4   1-120.364 525.013   2
  -7  -4   3-82.5849 477.857   1
   4   7   3 980.950 1314.32   2
   7   4   3 109.555 816.212   2
  -4  -7   3-11.5173 633.357   1
  -7  -4   5 553.605 564.194   1
   4   7   5 4838.78 2414.53   2
  -4  -7   5 2308.65 1072.19   1
   7   4   5 2681.69 1517.55   2
  -7  -4   7 2233.33 922.692   1
  -4  -7   7 1075.11 822.313   1
   4   7   7 182.196 1279.72   2
   7   4   7-12.3589 1866.87   2
  -4  -7   9-2355.95 943.832   1
  -7  -4   9 455.457 583.126   1
   4   7   9 267.782 1442.25   2
   7   4   9 960.712 1121.79   2
  -4   7  -9-165.320 409.246   5
   7   4  11 1069.72 1231.04   2
  -4  -7  11-988.943 924.052   1
   4   7  11 175.539 928.247   2
  -7  -4  15 688.196 419.251   3
  -7  -4  17 130.815 319.429   3
  -7  -4  19 344.480 342.378   3
  -4  -7  19 788.210 405.398   3
  -7  -4  21 455.074 256.127   3
  -4  -7  21 243.957 222.231   3
  -5   7  20 1993.27 407.401   4
  -7   5  20 2451.45 379.689   4
  -7   5  20 1465.16 436.364   3
  -7   5  18 4202.32 604.782   4
  -5   7  18 2416.55 533.337   4
  -5   7  18 2584.98 659.294   3
  -7   5  18 3053.55 646.896   3
  -5   7  16 12361.5 1168.04   4
  -5   7  16 12412.3 1428.69   3
  -7   5  16 13396.0 1284.14   3
  -5   7  14 965.739 555.765   3
  -7   5  14 1277.16 532.605   3
  -7   5  12 8376.25 988.918   3
  -5   7  12 6078.97 992.801   3
  -5   7  10 7557.90 1091.67   3
  -7   5  10 9048.02 959.743   3
  -5   7   8 24574.1 1822.98   3
  -5   7   8 24236.9 1549.95   4
  -5  -7  -6 4992.95 2063.09   1
  -7  -5  -4 15117.1 2891.68   1
  -5  -7  -4 16390.6 3020.02   1
   7   5  -2 5890.61 2094.22   2
  -5  -7  -2 3833.30 1459.25   1
  -7  -5  -2 3309.51 1302.57   1
   7   5   0 28201.1 4510.28   2
   5   7   0 25784.7 4778.00   2
  -5  -7   0 25647.9 3308.94   1
  -7  -5   0 28050.6 3374.09   1
  -5  -7   2 3218.48 1243.84   1
  -7  -5   2 5264.88 1444.41   1
   5   7   2 4608.36 2707.38   2
   7   5   2 5121.95 2010.43   2
   5   7   4 17646.9 4122.02   2
  -5  -7   4 16257.8 2588.11   1
   7   5   4 16853.0 3659.74   2
  -7  -5   4 16368.0 2504.92   1
  -7  -5   6 4386.65 1330.28   1
   5   7   6 4954.10 2413.93   2
  -5  -7   6 4639.65 1594.38   1
   7   5   6 6811.28 2542.82   2
  -7  -5   8 21556.9 2983.35   1
   5   7   8 24071.6 5274.18   2
   7   5   8 18286.7 4117.99   2
  -5   7  -8 23373.8 1741.85   5
  -5  -7   8 19779.5 3144.37   1
  -7  -5  10 10562.7 2147.77   1
  -5  -7  10 9030.46 2236.67   1
   5   7  10 5974.51 2912.87   2
   7   5  10 5661.67 2309.73   2
  -5  -7  12 7540.90 2160.69   1
   7   5  12 5750.62 2675.22   2
  -7  -5  16 13432.1 1165.18   3
  -7  -5  18 3461.00 573.243   3
  -5  -7  18 3593.01 604.240   3
  -5  -7  20 1919.70 395.183   3
  -7  -5  20 1573.73 371.908   3
  -7   6  19 3033.87 461.884   4
  -6   7  19 3268.31 481.793   4
  -7   6  19 2870.92 553.313   3
  -7   6  17 4022.62 609.930   4
  -6   7  17 3795.06 632.076   4
  -6   7  17 3763.37 782.745   3
  -7   6  17 3895.85 747.115   3
  -6   7  15 6948.42 900.979   4
  -7   6  15 5490.52 757.670   4
  -7   6  15 6395.35 979.090   3
  -6   7  15 6685.17 1033.88   3
  -6   7  13 8228.58 978.094   4
  -7   6  13 6524.80 840.103   4
  -6   7  13 7355.42 1128.94   3
  -7   6  13 7514.06 1042.47   3
  -6   7  11 11272.4 1116.71   4
  -7   6  11 10549.9 1046.63   4
  -6   7  11 11334.6 1342.34   3
  -7   6  11 11056.5 1199.55   3
  -6   7   9 13285.1 1180.25   4
  -7   6   9 13590.0 1154.07   4
  -6   7   9 12305.9 1363.22   3
  -7   6   9 11188.5 1175.62   3
  -6   7   7 5843.73 767.263   4
  -7   6   7 5188.31 722.287   4
  -6   7   7 4817.12 826.391   3
  -7  -6  -5 10096.8 2546.36   1
  -6  -7  -5 11025.2 2668.21   1
   7   6  -3 12161.6 3234.69   2
  -6  -7  -3 15076.9 2833.63   1
  -7  -6  -3 17980.2 3198.65   1
  -7  -6  -1 21418.1 3217.80   1
   7   6  -1 22859.2 4422.65   2
   6   7  -1 21830.0 4428.88   2
  -6  -7  -1 20490.8 3165.56   1
   6   7   1 26578.2 4903.56   2
   7   6   1 24296.0 4470.01   2
  -6  -7   1 21139.9 3110.75   1
  -7  -6   1 25016.4 3385.67   1
  -7  -6   3 14600.4 2493.50   1
   7   6   3 13094.0 3424.89   2
   6   7   3 15700.1 4084.36   2
  -6  -7   3 17639.9 2823.54   1
  -7  -6   5 9250.49 2021.49   1
  -6   7  -5 12958.0 1207.29   5
   6   7   5 5708.56 2524.07   2
   7   6   5 6118.90 2600.55   2
  -6  -7   5 11411.6 2363.40   1
  -7   6  -7 4271.34 744.886   5
   6   7   7 8173.44 2742.58   2
   7   6   7 5966.23 2662.79   2
  -6  -7   7 5845.49 1720.15   1
  -7  -6   7 6124.45 1701.32   1
  -6   7  -7 5469.45 905.344   5
  -6  -7   9 11102.9 2462.29   1
   6   7   9 10437.4 3532.58   2
  -7  -6   9 12146.6 2408.13   1
   7   6   9 7655.09 2845.82   2
  -6  -7  11 10297.3 2346.08   1
   6   7  11 12750.1 3964.08   2
   7   6  11 12127.6 3689.76   2
  -7  -6  17 3968.64 610.803   3
  -6  -7  17 4406.13 679.821   3
  -6  -7  19 2698.30 448.489   3
  -7  -6  19 3816.57 513.665   3
  -6  -7  21 2790.24 350.803   3
  -7   7  18 100.223 211.743   4
  -7   7  16 529.559 342.206   4
  -7   7  16 133.066 397.402   3
  -7   7  14 1022.54 393.544   4
  -7   7  14 441.730 416.565   3
  -7   7  12 5093.71 769.506   4
  -7   7  12 5916.97 1023.65   3
  -7   7  10-114.606 259.810   4
  -7   7  10 239.479 405.216   3
  -7   7   8 1530.68 418.450   4
  -7   7   8 698.880 419.442   3
  -7   7   6 152.570 240.659   4
  -7  -7  -6 4105.41 1724.83   1
  -7   7   4 1083.11 382.374   5
  -7  -7  -4 2347.77 1414.22   1
   7   7  -4 1242.63 1336.83   2
  -7   7   4 517.107 371.004   4
  -7   7   2 645.918 348.243   5
  -7  -7  -2-331.834 824.727   1
   7   7  -2 649.085 1151.11   2
   7   7   0 25336.9 4958.34   2
  -7  -7   0 28013.6 3801.47   1
  -7   7  -2 1515.04 455.728   5
  -7  -7   2-508.960 878.599   1
   7   7   2 2378.81 1788.88   2
  -7   7  -4 597.961 346.254   5
  -7  -7   4-157.558 597.475   1
  -7  -7   6-1482.53 1070.27   1
  -7   7  -6 485.313 377.008   5
   7   7   6 1975.01 1870.03   2
  -7   7  -8 537.556 374.944   5
   7   7   8-1537.36 1569.76   2
  -7  -7   8 328.117 1198.20   1
  -7  -7  10-856.955 1346.52   1
  -7  -7  18 9.11001 265.478   3
  -7  -7  20 457.089 214.050   3
   0  -8   0-53.1252 639.809   1
   0   8   2-102.018 1083.32   2
   0  -8  -2 1590.04 801.493   1
   0  -8   2 2864.47 1043.58   1
   0  -8  -4 6828.15 1686.27   1
   0   8   4 6425.01 2565.75   2
   0  -8   4 5291.59 1480.87   1
   0  -8  -6 3379.61 1286.35   1
   0  -8   6 3629.94 1353.42   1
   0   8   6 2652.90 1785.92   2
   0  -8   8 9731.70 2214.63   1
   0   8   8 2957.82 1908.94   2
   0  -8  10 17654.5 3172.31   1
   0   8  10 21699.2 4756.59   2
   0   8  10 17758.5 1740.80   3
   0  -8  12 14255.8 2921.25   1
  -8   0  12 16031.4 1227.58   3
   0   8  12 12507.3 1549.07   3
   0   8  12 11469.6 3398.92   2
   0   8  14 498.690 471.062   3
  -8   0  14 892.748 419.330   3
  -8   0  16 1281.93 481.135   3
   0   8  16 563.580 523.101   3
   0   8  18 2436.32 575.351   4
  -8   0  18 2810.66 545.284   3
  -8   0  20 24.3128 217.076   3
   0  -8  20 282.624 241.413   3
   0   8  20-86.6844 223.944   4
  -1   8  21 771.171 261.349   4
  -8   1  21-445.054 288.299   3
   1  -8  19 724.932 283.879   3
  -8   1  19 132.534 264.874   3
  -1   8  19 144.517 277.409   4
  -1   8  17 32.2537 473.726   3
  -8   1  17 183.135 301.465   3
  -8   1  15 134.024 297.624   3
  -1   8  15 477.476 602.788   3
  -8   1  13 7502.68 892.247   3
  -1   8  13 6500.36 1165.44   3
   1  -8  11 734.011 964.180   1
  -1   8  11 592.139 456.122   3
  -1   8  11 1802.03 1275.57   2
  -8   1  11 1795.32 475.949   3
   1  -8   9-546.582 825.970   1
  -1   8   9 666.918 1801.70   2
  -1   8   9 1412.29 565.946   3
   1  -8   7 343.438 584.391   1
  -1   8   7-727.881 1048.89   2
   1  -8   5 534.559 632.251   1
  -1   8   5-1115.20 1126.59   2
  -1  -8  -5 1056.01 774.115   1
  -1   8   3 1430.93 1400.50   2
   1  -8   3 662.123 631.719   1
  -1  -8  -3-352.121 620.857   1
  -1   8   1 7198.04 2409.97   2
   1  -8   1 10874.3 1820.53   1
  -1  -8  -1 11362.9 1987.22   1
  -8  -1   1 11577.0 1732.55   1
   1   8   1 11620.1 3241.52   2
   1  -8  -1 12864.5 1924.51   1
  -1  -8   1 10686.8 1919.63   1
   1   8   3 2330.78 1695.00   2
  -1  -8   3 1482.38 891.583   1
   1  -8  -3 306.947 559.814   1
  -1  -8   5-1021.86 899.121   1
   1  -8  -5-2110.61 969.412   1
  -1  -8   7 360.738 653.045   1
   1   8   7 244.236 1663.59   2
  -1  -8   9 1916.33 1091.37   1
   1   8   9 1700.96 512.978   4
   1   8   9 5145.01 2384.44   2
   8   1   9 2785.73 1271.64   2
  -8  -1  11 2237.32 460.308   3
  -1  -8  11 1747.31 1333.06   1
   1   8  11 1211.46 600.530   3
   1   8  11 2200.73 2273.03   2
   8   1  11 1783.03 1175.95   2
  -8  -1  13 7801.74 865.297   3
   1   8  13 6549.48 1154.94   3
  -8  -1  15 86.1622 297.258   3
   1   8  17 33.7533 327.042   4
  -8  -1  17 210.381 292.806   3
  -1  -8  19 74.6685 233.354   3
  -8  -1  19 64.2712 245.431   3
   1   8  19 151.115 252.539   4
   1   8  21 244.209 193.226   4
  -8  -1  21-40.0219 159.583   3
  -1  -8  21-218.102 175.288   3
  -2   8  20 1867.25 422.541   4
  -8   2  20 2047.18 414.075   3
  -2   8  18 8479.58 962.076   4
  -8   2  18 9792.31 937.712   3
  -2   8  16 12478.2 1500.80   3
  -8   2  16 15982.0 1264.98   3
  -2   8  14 22404.8 2040.48   3
  -8   2  14 22662.3 1514.45   3
  -8   2  12 2514.56 561.557   3
  -2   8  12 2143.44 712.854   3
   2  -8  10 28838.6 3880.52   1
  -2   8  10 31680.5 2261.93   3
  -2   8   8 13584.4 1210.66   4
   2  -8   8 12229.9 2395.16   1
  -2   8   8 13741.6 1453.92   3
  -2   8   8 13147.7 3181.76   2
   2  -8   6 6484.82 1637.01   1
  -2   8   6 3895.70 1917.20   2
  -2  -8  -6 7271.56 1985.65   1
  -2  -8  -4 12951.3 2468.97   1
  -2   8   4 13233.0 3223.26   2
   2  -8   4 15633.2 2281.68   1
  -2   8   2 38968.3 5058.22   2
   2  -8   2 47463.9 3727.78   1
  -2  -8  -2 45677.4 4260.45   1
   2   8   0 10861.1 3407.10   2
  -2   8   0 9495.11 2447.73   2
  -8  -2   0 11193.1 1834.95   1
   2  -8   0 12881.8 1814.75   1
  -2  -8   0 13616.9 2311.95   1
   2   8   2 49028.7 6508.50   2
  -2  -8   2 44140.3 4081.37   1
   2  -8  -2 40266.7 3273.28   1
  -8  -2   2 40956.0 3304.98   1
   2   8   4 13387.8 3757.55   2
  -2  -8   4 16118.7 2560.52   1
   2   8   6 6063.88 2682.93   2
   8   2   6 7653.79 2057.00   2
  -2  -8   6 7528.82 1844.37   1
  -2   8  -8 13242.1 1303.35   5
   8   2   8 11591.9 2670.97   2
  -2  -8   8 10857.3 2320.13   1
   2   8   8 14041.5 3926.72   2
   8   2  10 27579.7 4336.67   2
   2   8  10 33472.1 1859.85   4
  -2  -8  10 26274.7 3792.66   1
   2   8  10 32278.4 6100.59   2
   8   2  12 2481.87 1397.74   2
  -2  -8  12 5342.69 1852.26   1
  -8  -2  12 2043.02 489.474   3
   2   8  12 5554.12 2618.26   2
  -8  -2  14 21665.9 1436.49   3
   2   8  16 13524.3 1203.45   4
  -8  -2  16 15346.1 1212.75   3
   2   8  18 10228.1 951.731   4
  -8  -2  18 8983.69 915.137   3
  -2  -8  20 1857.68 399.593   3
  -8  -2  20 1892.11 383.473   3
   2   8  20 1988.86 355.172   4
  -3   8  21 7925.22 635.647   4
  -8   3  21 6252.68 604.751   3
  -3   8  19 7382.11 815.579   4
  -8   3  19 8506.30 834.759   3
  -3   8  17 15266.9 1289.33   4
  -3   8  17 14770.0 1551.53   3
  -8   3  17 17943.7 1314.17   3
  -3   8  15 23036.8 2051.60   3
  -8   3  15 26175.7 1634.79   3
  -3   8  13 8572.20 1290.45   3
  -8   3  13 9096.78 965.278   3
  -3   8  11 16165.2 1684.92   3
  -8   3  11 18737.4 1313.15   3
  -3   8   9 44454.1 2194.09   4
  -3   8   9 43675.6 2649.34   3
  -3   8   7 23837.1 1540.12   4
   3  -8   7 23308.6 3185.79   1
  -3   8   7 22163.7 1836.96   3
  -3  -8  -7 25492.5 3756.21   1
   3  -8   5 28388.4 3187.63   1
  -3  -8  -5 28558.8 3824.15   1
  -3   8   3 32238.3 4629.67   2
   3  -8   3 36084.1 3271.53   1
  -3  -8  -3 40099.6 4290.92   1
  -8  -3  -3 36178.2 3862.10   1
  -3   8   1 16713.0 3447.40   2
  -3  -8  -1 27528.8 3399.93   1
  -8  -3  -1 24672.7 3099.41   1
   3   8   1 24588.6 4683.25   2
  -3  -8   1 27832.6 3336.88   1
  -8  -3   1 26108.9 2925.16   1
   3   8   3 40396.6 6003.99   2
   8   3   3 37426.8 4623.52   2
  -3  -8   3 38735.4 3969.42   1
  -8  -3   3 34058.6 3223.12   1
   8   3   5 30607.5 4329.93   2
  -3  -8   5 25957.8 3402.00   1
   3   8   5 25352.1 5224.22   2
  -8  -3   5 23481.8 2647.30   1
  -3   8  -7 19490.5 1539.82   5
  -3  -8   7 20683.7 3111.91   1
   3   8   7 27130.2 5289.14   2
   8   3   7 17520.6 3493.93   2
   8   3   9 49210.9 5969.44   2
  -3  -8   9 42013.2 4712.03   1
   3   8   9 40149.8 6707.41   2
  -3   8  -9 39280.8 2309.84   5
   3   8  11 17019.8 1328.11   4
  -3  -8  11 18032.1 3250.68   1
   3   8  11 16811.8 4481.50   2
   8   3  11 11987.9 3096.35   2
   3   8  13 8614.37 967.258   4
  -8  -3  13 10204.2 1014.55   3
   3   8  15 24280.5 1565.86   4
  -8  -3  15 25844.6 1569.73   3
   3   8  17 16598.5 1195.91   4
  -8  -3  17 16517.2 1208.03   3
  -8  -3  19 8715.23 818.362   3
  -3  -8  19 8112.01 804.921   3
  -8  -3  21 7434.56 573.541   3
  -3  -8  21 7378.68 585.032   3
  -4   8  20 4981.69 573.910   4
  -8   4  20 4210.82 593.972   3
  -8   4  18 3112.93 485.530   4
  -4   8  18 3242.08 604.885   4
  -8   4  18 2296.45 503.982   3
  -4   8  16 1980.79 558.157   4
  -4   8  16 1316.55 626.084   3
  -8   4  16 2041.00 551.951   3
  -4   8  14 663.944 472.881   4
  -4   8  14 805.414 529.528   3
  -8   4  14 898.369 371.131   3
  -4   8  12 10962.4 1196.46   4
  -4   8  12 11603.7 1457.68   3
  -8   4  12 12599.0 1146.32   3
  -4   8  10 3211.07 663.827   4
  -4   8  10 2455.22 771.536   3
   4  -8   8 11270.2 2244.91   1
  -4   8   8 13867.3 1237.11   4
  -4   8   8 11629.5 1368.19   3
  -4  -8  -6 18467.1 3269.50   1
  -4   8   6 21094.4 1448.08   4
   4  -8   6 19192.9 2659.85   1
  -4  -8  -4 10799.9 2453.73   1
  -8  -4  -2 1228.21 1162.00   1
  -4  -8  -2 3102.54 1375.09   1
  -8  -4   0 4807.78 1624.11   1
   4   8   0 3160.56 1871.49   2
   8   4   0 5983.95 2189.11   2
  -4  -8   0 6784.17 1919.77   1
   4   8   2 3008.23 1930.32   2
   8   4   2 606.766 1162.39   2
  -8  -4   2 22.8371 476.592   1
  -4  -8   2 3469.05 1287.72   1
  -8  -4   4 8126.37 1778.10   1
   4   8   4 9573.67 3329.20   2
   8   4   4 10836.1 2601.22   2
  -4  -8   4 11076.6 2239.31   1
  -4  -8   6 18682.8 3032.88   1
   4   8   6 24164.2 5043.02   2
  -8  -4   6 15352.9 2347.01   1
  -4   8  -6 20406.4 1544.45   5
  -4  -8   8 11688.0 2533.60   1
   8   4   8 9963.15 2974.23   2
  -4   8  -8 14294.2 1398.68   5
  -4  -8  10 4172.67 1669.46   1
   4   8  10 1112.88 1804.93   2
   8   4  10 3307.92 1816.71   2
  -8  -4  14 1008.20 413.800   3
  -8  -4  16 3079.03 596.689   3
  -8  -4  18 2982.05 522.168   3
  -8  -4  20 5342.14 562.690   3
  -4  -8  20 4368.16 511.524   3
  -5   8  19 467.659 235.575   4
  -8   5  19 407.754 277.280   3
  -5   8  17 1649.77 501.813   4
  -8   5  17 777.647 272.039   4
  -8   5  17 1028.98 470.444   3
  -8   5  15 4374.79 655.736   4
  -5   8  15 4844.79 776.930   4
  -5   8  15 3787.40 906.556   3
  -8   5  15 3817.83 723.261   3
  -5   8  13 143.668 322.121   4
  -8   5  13 5.98946 217.370   4
  -5   8  13-573.755 568.955   3
  -8   5  13-45.4819 308.277   3
  -5   8  11 624.888 468.616   4
  -5   8  11-266.267 538.571   3
  -8   5  11 421.509 365.938   3
  -5   8   9 419.117 362.998   4
  -5   8   9 519.380 427.141   3
  -5   8   7 4978.35 793.328   4
  -5  -8  -5 2169.32 1354.29   1
  -5   8   5 266.869 287.060   4
  -5  -8  -3 7980.01 2189.65   1
  -8  -5  -3 6940.17 1971.57   1
  -8  -5  -1 4323.36 1471.83   1
   5   8  -1 883.457 1358.64   2
   8   5  -1 2603.48 1698.68   2
  -5  -8  -1 5829.11 1813.34   1
  -5  -8   1 4704.61 1551.88   1
   5   8   1 1678.54 1961.17   2
   8   5   1 3454.07 1666.54   2
  -8  -5   1 3015.68 1215.02   1
  -8  -5   3 7375.65 1684.35   1
   5   8   3 11867.7 3883.61   2
   8   5   3 5929.14 2278.79   2
  -5  -8   3 5020.19 1563.99   1
  -8  -5   5 982.065 783.099   1
  -5   8  -5 698.507 389.116   5
  -5   8  -5 578.281 514.574   4
   8   5   5 1201.08 1117.65   2
  -5  -8   5 485.856 782.303   1
  -5   8  -7 4224.87 806.567   5
  -8  -5   7 4975.65 1496.61   1
  -5  -8   7 3719.94 1505.82   1
   8   5   7 1431.78 1597.78   2
  -8   5  -7 3524.78 659.300   5
  -5   8  -9 91.4467 446.517   5
  -5  -8   9 2245.73 1208.30   1
   5   8   9-2584.94 1851.00   2
   8   5   9-764.539 1471.09   2
  -8  -5  15 5020.31 722.988   3
  -8  -5  17 1385.92 379.440   3
  -5  -8  19 759.999 322.874   3
  -8  -5  19 778.988 282.836   3
  -6   8  20-58.8622 137.974   5
  -6   8  20 240.358 155.453   4
  -8   6  18 454.998 190.898   4
  -6   8  18 40.1216 200.868   4
  -6   8  16 929.900 368.169   4
  -8   6  16 1121.56 350.890   4
  -8   6  16 318.697 357.137   3
  -6   8  14 3469.09 638.293   4
  -8   6  14 3599.62 611.644   4
  -6   8  14 2713.19 787.695   3
  -8   6  14 2717.30 668.434   3
  -6   8  12-22.7943 302.633   4
  -8   6  12 77.3162 267.880   4
  -6   8  12-1012.96 576.201   3
  -8   6  12-771.289 443.611   3
  -6   8  10 1163.48 454.429   4
  -8   6  10 1704.11 468.556   4
  -6   8  10 630.874 501.831   3
  -6   8   8 2597.26 603.458   4
  -8   6   6 948.790 419.972   5
  -6  -8  -6-64.9490 966.382   1
  -6   8   6 661.275 378.225   4
  -8   6   4 7.10347 272.099   5
  -6   8   4 489.660 338.718   5
  -6   8   4 510.771 248.201   4
  -8  -6  -4 373.102 804.588   1
  -6  -8  -4 572.840 1072.53   1
  -6  -8  -2 10517.9 2515.19   1
  -6   8   2 13874.6 1164.78   4
   6   8  -2 14422.2 3975.48   2
   8   6  -2 16731.8 3963.72   2
  -8  -6  -2 14507.0 2798.93   1
  -6   8   2 15323.4 1270.25   5
  -8  -6   0-571.578 749.711   1
  -6   8   0 182.004 271.786   5
   6   8   0 3773.01 2259.08   2
   8   6   0 3861.35 2034.09   2
  -6  -8   0 2773.71 1342.49   1
   6   8   2 13808.1 4016.92   2
  -6   8  -2 14086.3 1267.26   4
  -6  -8   2 14706.3 2752.31   1
   8   6   2 11948.5 3591.81   2
  -8  -6   2 12259.3 2423.32   1
  -6   8  -2 14459.9 1274.55   5
  -8   6  -4 165.294 263.525   5
  -6   8  -4-548.487 341.996   5
  -6  -8   4 945.693 813.638   1
  -6   8  -4 625.878 524.693   4
  -8  -6   4 1254.60 966.821   1
   6   8   4 924.627 1387.00   2
  -8   6  -6 963.458 388.951   5
  -6   8  -6 465.135 384.576   5
  -8  -6   6-457.899 674.392   1
   8   6   6 3745.46 2321.61   2
  -6  -8   6 2503.99 1239.23   1
  -8  -6   8 3627.67 1452.60   1
   6   8   8 5056.08 2674.54   2
  -6  -8   8 5185.08 1715.48   1
  -6   8  -8 2815.14 712.996   5
  -8  -6  16 1084.68 374.904   3
  -8  -6  18-16.1189 206.629   3
  -6  -8  18 206.495 258.153   3
  -6  -8  20 286.482 172.340   3
  -7   8  19 860.766 224.734   5
  -7   8  19 820.485 198.199   4
  -8   7  17 2277.65 396.658   5
  -8   7  17 2758.79 431.903   4
  -7   8  17 2881.61 463.556   4
  -8   7  15 2242.77 474.767   4
  -7   8  15 1970.29 480.680   4
  -8   7  13 187.154 295.254   4
  -7   8  13-322.912 302.993   4
  -8   7  13-902.873 535.666   3
  -8   7  11 1640.34 475.918   4
  -7   8  11 897.469 416.054   4
  -8   7  11 638.051 398.651   3
  -7   8   9 7994.54 941.259   4
  -8   7   9 6582.15 829.738   4
  -7   8   7 5709.71 829.109   5
  -8   7   7 4823.22 747.722   5
  -7   8   7 5422.95 791.105   4
  -8   7   7 4841.61 705.311   4
  -8   7   5 3912.76 673.066   5
  -7   8   5 3139.61 624.010   5
  -7   8   5 2975.78 598.579   4
  -7  -8  -5 937.089 1118.56   1
  -8  -7  -5 2125.94 1329.42   1
  -8   7   3 6064.58 792.679   5
  -7   8   3 6951.83 874.780   4
   7   8  -3 8928.56 3293.76   2
   8   7  -3 8983.84 3183.13   2
  -8  -7  -3 7287.16 2284.55   1
  -7  -8  -3 5682.04 2036.37   1
  -7   8   3 5864.95 827.823   5
  -7  -8  -1-9.43481 591.237   1
  -7   8   1 1149.24 451.586   5
  -8   7   1 1119.67 396.734   5
  -7   8   1 712.263 367.883   4
  -8  -7  -1-712.674 909.791   1
   7   8  -1-1045.91 1474.20   2
   8   7  -1 63.5669 1071.04   2
  -8   7  -1 1563.80 473.062   5
  -7   8  -1 1126.17 497.003   5
  -7   8  -1 954.212 470.405   4
   7   8   1 979.472 1654.84   2
  -7  -8   1-567.194 833.220   1
  -8  -7   1 1424.97 1016.07   1
  -7   8  -3 6211.19 890.941   5
  -7   8  -3 5808.13 893.301   4
  -8   7  -3 5874.34 798.108   5
  -7  -8   3 6942.14 1915.80   1
  -8  -7   3 2166.28 1240.52   1
   7   8   3 1906.00 1923.69   2
   8   7   3 4076.19 2128.63   2
  -8   7  -5 2419.98 551.856   5
  -7   8  -5 3927.79 741.613   5
  -7  -8   5 3463.79 1404.09   1
  -8  -7   5 497.859 748.922   1
   7   8   5 4770.45 2480.54   2
   8   7   5 2799.97 1759.66   2
  -7   8  -7 3646.47 791.476   5
  -8   7  -7 4951.42 839.678   5
  -8  -7   7 1995.69 1193.76   1
  -7  -8   7 3440.80 1551.73   1
   8   7   7 5269.29 2666.80   2
  -8  -7  15 2847.29 536.285   3
  -8  -7  17 2865.77 456.486   3
  -7  -8  17 3150.19 493.014   3
  -7  -8  19 1313.39 278.140   3
  -8  -7  19 1135.10 250.723   3
  -8   8  18 5076.93 454.802   5
  -8   8  16 11030.3 832.798   4
  -8   8  16 11320.1 875.308   5
  -8   8  14 12239.6 1007.30   4
  -8   8  14 12374.6 1037.14   5
  -8   8  12 8906.50 938.595   4
  -8   8  12 8223.59 934.278   5
  -8   8  10 10288.3 1018.53   4
  -8   8  10 11440.3 1111.05   5
  -8   8   8 11461.8 1082.76   4
  -8   8   8 11012.5 1107.81   5
  -8   8   6 11681.6 1085.38   4
  -8   8   6 12911.1 1205.03   5
  -8   8   4 22867.2 1506.41   4
  -8  -8  -4 19073.7 3639.57   1
   8   8  -4 16443.0 4514.64   2
  -8   8   4 23951.4 1617.17   5
  -8   8   2 32162.1 1886.12   5
   8   8  -2 31516.2 6080.52   2
  -8  -8  -2 31546.2 4704.38   1
  -8   8   0 4249.17 743.136   5
  -8  -8   0 3370.01 1533.88   1
  -8   8  -2 34421.7 2004.65   5
   8   8   2 28225.5 5731.14   2
  -8  -8   2 28241.0 4103.76   1
   8   8   4 27400.4 5744.52   2
  -8  -8   4 27971.4 4092.02   1
  -8   8  -4 24913.1 1763.93   5
  -8  -8   6 8999.97 2360.26   1
   8   8   6 13194.0 4129.47   2
  -8   8  -6 13330.1 1373.65   5
  -8  -8  16 11562.2 876.588   3
  -8  -8  18 7066.30 551.298   3
   0   9   1 17395.0 3995.33   2
   0  -9   1 16373.0 2491.02   1
   0  -9  -1 17834.2 2642.66   1
   0   9   3 3324.66 2105.82   2
   0  -9   3 1738.85 1153.48   1
   0  -9  -3 120.676 636.583   1
   0  -9  -5 547.080 835.094   1
   0  -9   5 4044.29 1355.54   1
   0   9   5 3423.44 1564.04   2
   0   9  -7 2547.33 599.559   5
   0  -9   7 4995.72 1612.73   1
   0   9   7 4202.60 705.677   4
   0   9   7 2273.74 1921.88   2
   0   9   9 9175.14 1040.44   4
   0   9   9 13778.3 3884.77   2
   0  -9  11 4625.51 1729.10   1
   0   9  11 3995.28 763.275   4
   0   9  11 3603.27 1955.67   2
   0   9  13 8512.40 1069.88   4
  -9   0  13 8633.55 938.054   3
  -9   0  15 2696.13 543.620   3
   0   9  15 2437.43 618.445   4
   0   9  17 6680.18 813.475   4
  -9   0  17 6615.88 750.394   3
   0  -9  19 469.207 255.239   3
   0   9  19 79.7157 214.829   4
  -9   0  19 531.491 232.973   3
  -1   9  20 532.798 237.876   4
  -9   1  20 443.978 209.009   3
   1  -9  18 27.5580 258.577   3
  -1   9  18 34.5287 311.729   4
  -9   1  18 22.4648 227.473   3
  -1   9  16 121.762 321.533   4
  -9   1  16 188.983 262.009   3
  -9   1  14-69.8530 220.819   3
  -1   9  14 508.860 431.022   4
  -1   9  12 962.839 481.011   4
  -1   9  10 257.530 295.939   4
  -1   9  10 2361.86 1606.92   2
  -1   9   8 459.581 388.625   4
  -1   9   8 337.913 1167.64   2
  -1  -9  -6-417.178 648.733   1
   1  -9   6-868.819 788.850   1
  -1   9   6-200.230 235.637   4
  -1   9   6 276.159 1149.91   2
  -1  -9  -4 676.276 796.929   1
  -1   9   4 2183.71 1579.19   2
   1  -9   4 784.668 735.479   1
  -1   9   2 470.430 1066.10   2
  -1  -9  -2-237.132 614.277   1
   1  -9   0 768.644 634.388   1
  -1  -9   0 840.985 768.923   1
   1   9   0 2398.25 1824.67   2
  -1   9   0 2265.49 1705.80   2
   1   9   2-42.8132 1794.61   2
   1  -9  -2-822.007 700.894   1
  -1  -9   2 1005.46 817.679   1
   1   9   4 697.945 1314.95   2
  -1  -9   4 2809.00 1160.05   1
  -1  -9   6-52.6329 560.624   1
   1   9   6 2800.54 2166.05   2
  -1  -9   8 965.903 948.741   1
  -1   9  -8 237.536 413.675   5
   1   9   8 488.506 328.827   4
  -1  -9  10 352.322 679.113   1
   1   9  10 447.025 368.295   4
   1   9  12 1368.17 484.829   4
   1   9  14 285.432 384.347   4
  -9  -1  14-34.3643 316.316   3
  -9  -1  16-135.816 300.710   3
   1   9  16-136.890 274.916   4
  -9  -1  18 199.161 250.257   3
   1   9  18-20.7099 218.664   4
  -1  -9  20 727.975 223.997   3
   1   9  20 120.735 156.079   4
  -9  -1  20 472.356 213.356   3
  -2   9  21 933.247 224.295   4
  -2   9  19 4323.72 607.892   4
  -9   2  19 3534.61 520.659   3
  -2   9  17 10333.1 1033.12   4
  -9   2  17 9637.86 901.661   3
  -2   9  15 9385.91 1052.09   4
  -9   2  15 8728.84 916.270   3
  -2   9  13 19483.7 1577.83   4
  -9   2  13 18468.3 1306.51   3
   2  -9  11 1134.15 865.631   1
  -2   9  11 844.076 476.637   4
   2  -9   9 14707.5 2943.68   1
  -2   9   9 17928.2 1450.13   4
  -2   9   7 6510.25 865.891   4
   2  -9   7 4433.76 1413.00   1
  -2   9   7 3064.07 1907.82   2
  -2  -9  -7 7559.55 2120.44   1
   2  -9   5 2191.14 1151.58   1
  -2   9   5 9213.45 2771.51   2
  -2   9   5 6976.17 866.351   4
  -2  -9  -5 7449.70 2149.63   1
  -2   9   3 13890.2 3327.10   2
   2  -9   3 16149.9 2412.51   1
  -2  -9  -3 19035.3 3052.26   1
  -2   9   1 20602.8 4199.75   2
   2  -9   1 22368.8 2642.74   1
  -2  -9  -1 22736.2 3138.46   1
   2   9   1 17820.3 4197.59   2
  -2  -9   1 20657.2 2954.66   1
   2   9   3 19367.0 4637.21   2
  -2  -9   3 14859.9 2505.21   1
  -2   9  -5 6921.88 1010.60   4
   2   9   5 7197.61 2974.08   2
  -2  -9   5 8503.63 2145.33   1
   2   9   7 6019.76 805.682   4
  -2  -9   7 6605.06 1862.64   1
   2   9   7 4589.88 2503.48   2
  -2   9  -7 6145.12 927.946   5
   2   9   9 19522.1 1430.81   4
  -2  -9   9 18985.3 3256.67   1
   2   9   9 24644.6 5296.75   2
  -2  -9  11-1432.06 1112.25   1
   2   9  11 893.338 367.678   4
   2   9  11-3282.82 2239.69   2
   2   9  13 18188.3 1423.07   4
  -9  -2  13 18867.6 1286.76   3
   2   9  15 9130.93 986.564   4
  -9  -2  15 8782.00 907.239   3
   2   9  17 10431.8 942.769   4
  -9  -2  17 10638.2 927.773   3
   2   9  19 3961.87 500.309   4
  -9  -2  19 3989.09 509.133   3
  -2  -9  19 3450.27 520.470   3
  -3   9  20 3061.77 426.784   4
  -3   9  18 9924.64 930.287   4
  -9   3  18 9486.98 876.234   3
  -3   9  16 17339.7 1367.60   4
  -9   3  16 19389.6 1331.82   3
  -3   9  14 21501.4 1616.42   4
  -9   3  14 21535.6 1427.96   3
  -3   9  12 7446.65 1005.99   4
   3  -9  10 8360.11 2118.66   1
  -3   9  10 8223.07 1015.57   4
  -3   9   8 20000.8 1526.43   4
   3  -9   8 18376.5 2976.53   1
  -3  -9  -6 13323.3 2890.89   1
  -3   9   6 15583.4 1291.78   4
   3  -9   6 13364.4 2372.50   1
  -3   9   4 21849.3 1487.67   4
   3  -9   4 16693.2 2477.14   1
  -3  -9  -4 22370.0 3486.09   1
  -3   9   2 13685.7 3148.76   2
  -3  -9  -2 19417.1 3053.31   1
  -9  -3   0 31375.5 3448.73   1
   3   9   0 39307.3 6309.30   2
  -3   9   0 32575.8 4652.78   2
  -3  -9   0 34269.3 3992.73   1
   3   9   2 18782.9 4497.15   2
  -3  -9   2 23287.8 3290.14   1
  -3   9  -4 20244.2 1652.34   4
   3   9   4 25860.8 5274.66   2
  -3  -9   4 19289.4 3048.08   1
  -3   9  -4 20833.3 1514.33   5
  -3   9  -6 14154.4 1342.94   5
   3   9   6 13845.7 3711.83   2
  -3  -9   6 12881.2 2696.87   1
  -3  -9   8 15484.9 2930.11   1
   3   9   8 17004.6 4371.36   2
  -3   9  -8 17442.9 1570.54   5
   3   9  10 7680.95 895.738   4
  -3  -9  10 8498.40 2513.82   1
   3   9  10 7615.83 3467.18   2
   3   9  12 8101.34 934.918   4
  -9  -3  12 9206.12 886.242   3
   3   9  14 20075.5 1398.23   4
  -9  -3  14 21021.8 1337.33   3
   3   9  16 19244.7 1258.98   4
  -9  -3  16 19508.6 1257.02   3
  -9  -3  18 10379.9 839.041   3
  -3  -9  20 2716.42 380.384   3
  -9  -3  20 2243.66 323.822   3
  -4   9  19 822.142 291.342   4
  -9   4  19 317.601 226.141   3
  -4   9  17 2408.57 516.801   4
  -9   4  17 3948.51 660.577   3
  -4   9  15 2428.89 586.504   4
  -9   4  15 3036.81 590.894   3
  -4   9  13 642.105 467.250   4
  -9   4  13 492.888 337.322   3
  -4   9  11 3878.99 738.299   4
  -4   9   9 1932.73 578.009   4
  -4   9   7 8214.33 987.001   4
  -4  -9  -7 9337.75 2501.96   1
  -4  -9  -5 3357.44 1524.17   1
  -4   9   5 5009.09 759.464   4
  -4  -9  -3 7509.50 2149.44   1
  -4   9   3 5773.52 818.590   4
  -4   9   3 5722.19 801.522   5
  -4   9   1 1084.04 394.821   5
  -4   9   1 1670.09 525.269   4
  -4  -9  -1 848.052 884.442   1
  -9  -4  -1-754.387 710.035   1
  -4   9  -1 1523.91 434.095   5
  -4  -9   1 1289.22 1000.00   1
  -4   9  -1 921.162 420.328   4
   4   9   1 3154.99 2780.56   2
  -9  -4   1 1549.10 833.889   1
  -9  -4   3 5206.96 1344.73   1
  -4   9  -3 6040.16 858.344   5
  -4   9  -3 6099.06 889.322   4
   4   9   3 4185.81 2628.80   2
  -4  -9   3 6509.86 1834.16   1
  -4   9  -5 5197.70 840.630   5
  -4   9  -5 4608.13 860.073   4
   4   9   5 4037.11 2498.87   2
  -4  -9   5 6826.11 1902.83   1
   4   9   7 6022.29 2948.95   2
  -4  -9   7 9151.60 2272.25   1
  -4   9  -7 7804.15 1067.99   5
  -4  -9   9 1803.50 1038.42   1
  -4   9  -9 1789.47 649.578   5
  -9  -4  13 820.680 400.613   3
  -9  -4  15 3412.97 569.727   3
  -9  -4  17 3351.82 525.467   3
  -4  -9  19 1322.23 339.811   3
  -9  -4  19 1084.96 259.130   3
  -5   9  20-70.8722 157.823   5
  -5   9  18 52.1805 218.220   4
  -5   9  16 2020.00 491.583   4
  -9   5  16 1386.26 443.657   3
  -5   9  14 2611.34 624.592   4
  -9   5  14 1070.40 431.550   3
  -5   9  12 3039.46 656.690   4
  -5   9  10 50.9552 380.133   4
  -5   9   8-182.594 309.165   4
  -5   9   6 369.282 409.988   4
  -5  -9  -6 675.786 1009.74   1
  -5   9   4 1940.02 519.051   5
  -5   9   4 2299.64 534.397   4
  -5  -9  -4 2062.26 1366.39   1
  -9  -5  -2 1813.79 1118.00   1
   5   9  -2 1539.76 1903.47   2
  -5   9   2 834.645 423.845   4
  -5   9   2 1044.51 447.001   5
  -5  -9  -2 185.485 739.611   1
  -5   9   0 18565.1 1442.96   4
   5   9   0 10725.9 3880.17   2
  -5  -9   0 15538.0 2984.89   1
  -9  -5   0 17455.3 3052.39   1
  -5   9   0 17256.1 1390.28   5
  -5   9  -2 1266.41 474.205   5
  -5  -9   2 370.862 748.049   1
  -5   9  -2 836.796 425.148   4
  -5  -9   4 980.325 970.311   1
  -5   9  -4 2607.08 639.140   5
  -5   9  -4 1863.45 579.770   4
   5   9   4 7304.56 3135.03   2
  -9  -5   4-3749.28 1384.41   1
  -5   9  -6-403.524 424.802   5
  -5  -9   6-765.347 795.225   1
  -9   5  -6-62.7912 256.581   5
   5   9   8-1359.00 2017.21   2
  -5   9  -8 448.497 427.975   5
  -9  -5  14 2189.36 496.984   3
  -9  -5  16 1194.21 374.817   3
  -5  -9  18 215.264 245.429   3
  -9  -5  18 80.5391 202.990   3
  -5  -9  20 5.21316 142.818   3
  -6   9  19-43.8876 146.832   5
  -6   9  19-3.29600 144.426   4
  -6   9  17 878.526 345.506   4
  -6   9  15 2617.60 518.847   4
  -9   6  15 1314.78 447.576   3
  -6   9  13 3674.80 661.418   4
  -6   9  11 240.735 373.230   4
  -9   6   9 188.224 258.806   5
  -6   9   9 478.521 426.194   4
  -9   6   7 876.664 352.080   5
  -6   9   7 211.334 370.471   5
  -6   9   7 439.895 404.674   4
  -9   6   5 1398.49 449.737   5
  -6   9   5 1299.65 461.232   5
  -6  -9  -5 2769.81 1716.85   1
  -6   9   5 1480.11 515.778   4
  -6   9   3 8795.75 999.135   4
   6   9  -3 5981.98 2826.00   2
  -6  -9  -3 7124.16 2333.52   1
  -9   6   3 7124.46 803.722   5
  -6   9   3 8649.76 998.172   5
  -9  -6  -3 8983.63 2382.81   1
  -9   6   1 2371.57 501.769   5
  -6   9   1 2059.31 520.935   5
  -6   9   1 1704.15 537.273   4
   6   9  -1 4088.85 2341.28   2
  -6  -9  -1 437.248 836.701   1
  -9  -6  -1 4041.09 1617.81   1
  -9   6  -1 1530.44 449.736   5
  -6   9  -1 1331.69 509.193   5
  -9  -6   1 4795.90 1637.82   1
  -6   9  -1 1476.65 516.387   4
   6   9   1-999.038 1650.15   2
  -6  -9   1 2833.33 1439.08   1
  -6   9  -3 9166.47 1133.89   4
  -6  -9   3 4496.95 1720.68   1
   6   9   3 9313.76 3424.91   2
  -9  -6   3 6534.73 1907.79   1
  -9   6  -3 7577.20 898.197   5
  -6   9  -3 8070.84 1039.54   5
  -9   6  -5 731.633 390.105   5
  -6   9  -5 1488.78 584.671   5
  -6  -9   5 4016.10 1627.22   1
  -9  -6   5 3003.06 1412.46   1
  -6   9  -7 340.598 347.033   5
   6   9   7 759.069 1827.32   2
  -6  -9   7 861.988 1015.48   1
  -9  -6  15 2210.17 464.434   3
  -6  -9  17 574.982 271.224   3
  -9  -6  17 719.885 272.860   3
  -6  -9  19-114.320 150.610   3
  -7   9  18 221.639 165.829   5
  -7   9  18 627.470 197.485   4
  -9   7  16 1028.60 279.269   5
  -7   9  16 1339.06 372.989   5
  -7   9  16 879.408 327.505   4
  -9   7  14 830.040 306.400   5
  -7   9  14 1345.45 410.782   4
  -9   7  12 169.069 282.731   5
  -7   9  12 660.135 339.690   4
  -9   7  10 1261.42 394.972   5
  -7   9  10 1941.76 577.714   5
  -7   9  10 2453.60 582.516   4
  -9   7   8 547.109 258.957   5
  -7   9   8 669.004 418.762   5
  -7   9   8 603.724 328.607   4
  -9   7   6 518.636 339.959   5
  -7   9   6 867.234 462.349   5
  -7   9   6 567.225 332.040   4
  -7   9   4 1695.10 470.114   5
  -9   7   4 1089.90 404.137   5
  -9  -7  -4 285.889 953.150   1
  -7   9   4 1106.73 416.328   4
  -9   7   2 63.4672 262.410   5
  -7   9   2 367.363 303.011   5
  -7   9   2 199.645 289.153   4
   7   9  -2-1143.28 1886.92   2
  -9  -7  -2 674.471 1061.05   1
  -7  -9  -2-108.113 722.530   1
  -7   9   0 11635.1 1185.47   4
   7   9   0 13729.7 4122.13   2
  -9  -7   0 7198.56 2541.17   1
  -7  -9   0 12542.9 2862.84   1
  -9   7   0 12620.4 1166.81   5
  -7   9   0 12486.2 1248.85   5
  -9  -7   2-1850.07 1068.78   1
  -9   7  -2-498.518 340.536   5
  -7   9  -2 510.836 374.911   4
  -7  -9   2 2131.90 1340.03   1
  -7   9  -2-13.5147 326.765   5
  -9   7  -4 1122.28 487.691   5
  -7   9  -4 1928.56 573.593   5
  -7  -9   4 1250.47 1245.22   1
   7   9   4 1851.72 2066.28   2
  -7   9  -6 933.254 521.870   5
  -9   7  -6 717.081 478.484   5
  -7   9  -8 299.376 443.234   5
  -9  -7  14 1413.47 367.878   3
  -9  -7  16 912.897 282.328   3
  -7  -9  18 571.464 207.325   3
  -8   9  17 4462.61 445.366   5
  -8   9  15 8313.77 723.175   4
  -8   9  15 8843.27 792.684   5
  -9   8  15 8096.69 697.924   5
  -8   9  13 14686.8 1133.02   5
  -9   8  13 15635.8 1041.30   4
  -8   9  13 15631.1 1129.32   4
  -9   8  13 14960.1 1095.54   5
  -9   8  11 7238.13 792.358   4
  -8   9  11 8169.33 895.419   4
  -9   8  11 7859.82 870.517   5
  -8   9  11 8187.85 952.113   5
  -9   8   9 2736.74 553.760   5
  -8   9   9 3364.76 665.121   5
  -8   9   9 2962.00 566.180   4
  -8   9   7 3491.04 630.858   4
  -9   8   7 5111.78 778.708   5
  -8   9   7 5102.42 812.322   5
  -8   9   5 10514.8 1061.48   4
  -9   8   5 10187.9 1061.46   5
  -8   9   5 11289.0 1148.34   5
  -8   9   3 18054.2 1478.79   5
  -8   9   3 18530.0 1450.99   4
  -9   8   3 17334.6 1388.41   5
  -8   9   1 15150.1 1397.57   5
  -8   9   1 16026.2 1362.47   4
   8   9  -1 17370.2 4780.97   2
  -8  -9  -1 16393.7 3379.95   1
  -9   8   1 15662.9 1343.81   5
  -9  -8  -1 17703.2 3496.24   1
  -8  -9   1 12134.3 2925.80   1
  -8   9  -1 14883.6 1402.98   4
  -9  -8   1 18940.9 3537.95   1
   8   9   1 18600.9 4963.05   2
  -8   9  -1 15552.5 1397.56   5
  -9   8  -1 15954.8 1370.10   5
  -9  -8   3 18314.7 3370.84   1
  -9   8  -3 17916.2 1490.27   5
  -8   9  -3 18064.2 1530.76   5
  -9   8  -5 9705.76 1157.57   5
  -8   9  -5 10427.3 1209.70   5
  -9   8  -7 3138.39 726.790   5
  -8   9  -7 4263.46 821.368   5
  -9  -8  15 9144.61 721.266   3
  -8  -9  15 9354.97 782.002   3
  -8  -9  17 5034.62 471.338   3
  -9   9  14 9663.82 774.798   5
  -9   9  12 8198.36 769.354   4
  -9   9  12 7832.15 802.649   5
  -9   9  10 1268.71 431.973   5
  -9   9  10 2692.72 523.936   4
  -9   9   8 651.182 353.145   5
  -9   9   8 520.018 299.044   4
  -9   9   6 4056.68 707.538   5
  -9   9   4 7805.94 961.213   5
  -9   9   2 17230.5 1432.69   5
  -9   9   0 254.594 375.119   5
  -9   9  -2 17259.6 1475.70   5
  -9   9  -4 8638.80 1095.71   5
  -9   9  -6 4538.98 842.462   5
  -9  -9  14 10244.0 740.186   3
   0  10   0 139106. 11840.0   2
   0  10   0 124584. 3757.86   4
   0 -10   0 133269. 7564.99   1
   0  10  -2 22102.5 1710.12   4
   0  10   2 24166.2 1618.44   4
   0  10   2 24068.8 4943.09   2
   0 -10   2 22942.8 3185.68   1
   0 -10  -2 25551.5 3488.06   1
   0  10  -4 14945.4 1481.83   4
   0  10   4 17863.5 1387.13   4
   0  10   4 21156.5 4860.51   2
   0 -10   4 17540.7 2867.65   1
   0  10   4 16211.8 1253.14   5
   0  10   6 16650.7 1360.51   4
   0 -10   6 14527.1 2702.39   1
   0  10  -6 12190.6 1220.05   5
   0  10   8 10818.0 1134.99   4
   0  10   8 16753.3 4431.48   2
   0  10  10-111.510 359.310   4
   0  10  10-3436.86 1936.05   2
   0  10  12 47256.9 2351.02   4
   0  10  14 20977.6 1524.50   4
   0  10  16 18548.0 1321.22   4
   0  10  18 6820.68 694.909   4
  -1  10  19 1237.28 311.257   4
  -1  10  17 3187.60 565.259   4
  -1  10  15 7364.47 909.877   4
  -1  10  13 9091.13 1043.59   4
  -1  10  11 6745.57 941.899   4
   1 -10   9-2357.91 1258.85   1
  -1  10   9 465.842 359.627   4
   1 -10   7 6087.18 1636.04   1
  -1  10   7 4200.34 728.043   4
  -1 -10  -5 5123.01 1755.30   1
  -1  10   5 5232.47 766.528   4
  -1  10   5 7516.21 2827.62   2
   1 -10   5 8043.33 1960.49   1
  -1 -10  -3 6287.01 2059.90   1
   1  10  -3 7098.37 1021.50   4
  -1  10   3 10279.5 1087.00   4
  -1  10   3 7992.02 3058.44   2
   1 -10   3 9338.59 2032.79   1
  -1  10   3 7774.37 887.781   5
   1  10  -1 20462.0 1560.82   4
  -1  10   1 23464.5 1620.70   4
   1  10  -1 22559.6 4975.55   2
  -1  10   1 16902.9 4043.27   2
  -1 -10  -1 17811.0 2878.45   1
   1 -10   1 21810.9 2928.47   1
  -1  10  -1 26983.2 5319.52   2
   1  10   1 21003.8 4882.24   2
  -1 -10   1 20951.9 3066.44   1
  -1  10  -1 22728.9 1667.87   4
  -1  10  -3 7903.50 1073.75   4
   1  10   3 8917.90 989.361   4
   1  10   3 8198.27 3054.45   2
  -1 -10   3 8391.44 2008.79   1
  -1  10  -3 8669.68 999.097   5
  -1  10  -5 5069.39 830.656   5
  -1  10  -5 5486.00 1013.50   4
   1  10   5 5324.67 739.908   4
   1  10   5 2543.16 1820.13   2
  -1 -10   5 5091.56 1894.44   1
   1  10   7 4586.81 735.864   4
  -1 -10   7 4114.84 1571.55   1
   1  10   7 2518.44 2226.20   2
  -1  10  -7 3554.18 767.163   5
   1  10   9 939.555 434.055   4
  -1 -10   9-424.146 932.344   1
   1  10  11 6590.94 883.033   4
   1  10  13 9647.50 1046.06   4
   1  10  15 7158.63 872.440   4
   1  10  17 2765.20 506.328   4
  -1 -10  19 1302.74 295.677   3
   1  10  19 1101.47 254.440   4
  -2  10  20 115.532 125.960   5
  -2  10  20-170.298 169.060   4
  -2  10  18 446.273 301.809   4
  -2  10  16 563.714 372.051   4
  -2  10  14 216.606 376.788   4
  -2  10  12 2935.91 671.162   4
  -2  10  10 4174.91 762.319   4
   2 -10   8-5364.36 1759.83   1
  -2  10   8 281.167 394.730   4
  -2  10   6 261.200 260.117   4
   2 -10   6-971.907 912.182   1
  -2  10   4 323.813 342.419   5
  -2  10   4 321.570 332.698   4
  -2 -10  -4-887.693 1082.93   1
  -2  10   4 1489.90 1269.54   2
  -2  10   2 664.058 294.390   5
   2  10  -2 375.890 396.389   4
   2  10  -2-381.185 1468.26   2
  -2  10   2 1750.54 490.730   4
  -2  10   2 3140.82 1846.16   2
  -2 -10  -2 2377.80 1120.23   1
  -2  10   0 1615.61 537.236   5
  -2 -10   0 2278.09 1179.59   1
   2  10   0-599.783 1346.72   2
  -2  10   0 193.790 1432.45   2
  -2  10   0 2052.73 559.729   4
  -2 -10   2 1205.66 941.725   1
  -2  10  -2 1910.61 531.351   5
  -2  10  -2 1312.41 509.438   4
   2  10   2 909.806 442.898   4
  -2  10  -4 809.941 427.794   5
  -2  10  -4 392.577 406.478   4
   2  10   4 699.766 347.206   4
   2  10   4 1616.67 1946.15   2
  -2  10  -6 284.779 427.562   5
   2  10   6 252.821 253.330   4
   2  10   8 312.537 314.293   4
  -2 -10   8 629.044 604.038   1
  -2  10  -8 820.890 527.657   5
   2  10  10 4168.16 714.482   4
   2  10  12 3257.71 661.765   4
   2  10  14 1098.42 430.413   4
   2  10  16 395.689 266.835   4
   2  10  18 450.432 210.166   4
  -3  10  19 453.773 221.142   4
  -3  10  17 1770.13 451.711   4
  -3  10  15 3947.96 714.923   4
  -3  10  13 7753.63 980.894   4
  -3  10  11 837.468 417.957   4
  -3  10   9 1264.16 505.573   4
  -3  10   7 1320.08 501.937   4
  -3 -10  -5 869.517 953.734   1
  -3  10   5 1083.09 477.244   5
  -3  10   5 1349.05 492.954   4
  -3  10   3 327.553 287.358   5
  -3 -10  -3-111.410 670.030   1
  -3  10   3 84.8480 291.975   4
  -3  10   1 10378.7 1095.48   5
  -3  10   1 10693.4 1143.29   4
   3  10  -1 9546.98 3518.84   2
  -3 -10  -1 10571.4 2501.03   1
  -3  10  -1 10973.3 1172.19   4
  -3 -10   1 12927.3 2576.79   1
  -3  10  -1 10900.2 1133.64   5
  -3  10  -3 507.690 353.440   5
  -3  10  -3-341.067 482.553   4
  -3  10  -5 1054.71 454.386   5
  -3  10  -5 1461.82 629.597   4
  -3 -10   5 2043.57 1364.21   1
  -3  10  -7 1141.15 567.168   5
  -3 -10   7 1363.16 1039.73   1
   3  10  11 531.576 315.628   4
   3  10  13 8072.15 888.025   4
  -3 -10  19 701.596 264.453   3
  -4  10  18 334.721 219.814   4
  -4  10  16-214.146 338.745   4
  -4  10  14-309.307 368.478   4
  -4  10  12 288.296 366.546   4
  -4  10  10 268.859 382.969   4
  -4  10   8 1562.90 552.128   4
  -4  10   6 1497.69 509.736   5
  -4  10   6 1732.44 525.551   4
  -4 -10  -6-11.2515 327.327   1
  -4  10   4-19.4002 327.893   5
  -4  10   4-34.2839 317.290   4
  -4  10   2 824.390 427.827   5
  -4  10   2 904.016 504.098   4
  -4 -10  -2 1875.50 1283.07   1
  -4  10   0 404.046 365.754   5
  -4  10   0 632.123 492.362   4
   4  10   0 3518.97 2595.29   2
  -4 -10   0 2755.91 1406.73   1
  -4  10  -2 856.292 485.427   5
  -4 -10   2 1089.32 1039.75   1
  -4  10  -2 253.276 404.196   4
  -4  10  -4 224.965 368.305   5
  -4 -10   4 334.186 752.277   1
  -4  10  -4-311.622 462.380   4
  -4  10  -6 1368.46 471.399   5
  -4 -10   6-99.8417 685.301   1
  -4  10  -8 1882.71 674.300   5
  -4 -10  18 537.734 268.150   3
  -5  10  19 5644.33 474.978   4
  -5  10  19 5028.80 449.909   5
  -5  10  17 4763.40 584.557   4
  -5  10  17 4985.62 607.241   5
  -5  10  15 6007.38 781.640   4
  -5  10  13 10464.0 1092.64   4
  -5  10  11 11491.7 1178.80   4
  -5  10   9 1685.33 546.886   4
  -5  10   7 19991.1 1551.72   4
  -5  10   7 20604.6 1573.20   5
  -5  10   5 15892.0 1383.50   4
  -5 -10  -5 13283.9 3226.34   1
  -5  10   5 16388.8 1409.90   5
  -5  10   3 4340.71 765.545   5
  -5  10   3 4082.92 745.757   4
  -5 -10  -3 5987.59 2129.77   1
 -10  -5  -1 28372.5 3982.97   1
  -5  10   1 32007.6 1966.21   4
   5  10  -1 34079.1 6574.56   2
  -5 -10  -1 26402.4 4244.38   1
  -5  10   1 28675.9 1855.30   5
  -5  10  -1 30186.8 1994.14   4
   5  10   1 29904.1 6535.65   2
  -5 -10   1 27870.4 4060.98   1
  -5  10  -1 30064.6 1910.30   5
  -5  10  -3 4185.58 778.039   5
  -5 -10   3 3547.01 1526.85   1
  -5  10  -3 4373.76 820.050   4
   5  10   3 1024.82 1792.79   2
  -5 -10   5 12166.3 2741.15   1
   5  10   5 10025.3 3908.15   2
  -5  10  -5 17406.7 1571.57   5
  -5  10  -7 18845.9 1679.78   5
  -5 -10  19 5296.23 454.830   3
  -6  10  18 3943.73 432.682   4
  -6  10  18 3916.97 419.502   5
  -6  10  16 7164.04 716.096   4
  -6  10  16 7660.70 745.399   5
  -6  10  14 7167.39 818.593   4
  -6  10  14 7678.74 858.044   5
  -6  10  12 9505.09 1022.28   4
  -6  10  10 5945.83 856.815   4
  -6  10  10 6126.82 892.944   5
  -6  10   8 5807.80 836.872   4
  -6  10   8 6485.64 932.722   5
  -6  10   6 18936.5 1514.01   5
  -6  10   6 17799.5 1452.45   4
  -6  10   4 19891.7 1545.72   5
  -6 -10  -4 18680.0 3820.48   1
  -6  10   4 19493.2 1534.21   4
  -6  10   2 7477.44 978.992   5
  -6  10   2 7563.09 1024.87   4
  -6 -10  -2 5420.88 2086.01   1
   6  10  -2 7842.10 3494.89   2
 -10  -6  -2 8358.51 2379.48   1
  -6  10   0 22603.5 1746.03   4
 -10  -6   0 22738.3 3737.68   1
   6  10   0 27102.6 5991.98   2
  -6 -10   0 17148.5 3432.34   1
  -6  10   0 21958.5 1670.55   5
  -6  10  -2 6524.27 991.730   4
  -6 -10   2 9944.11 2552.18   1
   6  10   2 10104.9 4023.13   2
  -6  10  -2 8600.23 1092.82   5
  -6  10  -4 16821.1 1617.59   4
  -6 -10   4 22117.4 3702.67   1
   6  10   4 18129.7 4975.32   2
 -10   6  -4 18753.6 1437.73   5
  -6  10  -4 19483.9 1649.92   5
  -6  10  -6 18433.0 1677.64   5
  -6  10  -8 5922.08 970.560   5
  -6 -10  18 4386.68 444.223   3
  -7  10  17 921.266 247.280   5
  -7  10  17 630.647 180.293   4
  -7  10  15 257.382 237.630   5
  -7  10  15 275.730 233.380   4
  -7  10  13 331.896 341.432   5
  -7  10  13-67.9511 316.898   4
  -7  10  11 279.545 309.630   5
  -7  10  11 575.724 328.583   4
 -10   7   9 2067.57 468.604   5
  -7  10   9 1923.23 543.093   5
  -7  10   9 2080.19 554.646   4
 -10   7   7 2193.29 485.581   5
  -7  10   7 2079.87 601.563   5
  -7  10   7 2568.83 611.548   4
 -10   7   5 4553.49 667.843   5
  -7  10   5 3938.26 744.638   5
  -7  10   5 3694.13 680.655   4
 -10   7   3 4426.82 690.401   5
  -7  10   3 3924.03 745.952   5
  -7  10   3 3700.62 863.555   4
 -10   7   1 593.647 416.288   5
  -7  10   1 60.5315 329.689   5
  -7  10   1-375.161 436.800   4
  -7  10  -1 347.642 407.054   5
  -7  10  -1 491.847 385.953   4
 -10   7  -3 4406.13 743.398   5
  -7  10  -3 3944.49 780.436   5
  -7  10  -3 3164.85 757.977   4
  -7  10  -5 3706.50 834.048   5
 -10   7  -5 2844.16 570.829   5
  -7  10  -7 1953.04 614.779   5
  -7 -10  17 912.741 243.529   3
  -8  10  16 433.194 173.853   5
  -8  10  14 1481.29 365.194   5
  -8  10  14 686.565 261.756   4
 -10   8  12 4074.02 558.639   5
  -8  10  12 3867.55 635.549   5
  -8  10  12 3939.06 569.276   4
 -10   8  10 55.5088 243.956   5
  -8  10  10 289.789 356.836   5
  -8  10  10-54.6203 246.719   4
 -10   8   8 155.363 228.746   5
  -8  10   8 258.396 377.693   5
  -8  10   8-74.1388 288.328   4
 -10   8   6 60.8219 247.183   5
  -8  10   6-192.634 325.548   5
  -8  10   6 95.7686 318.338   4
  -8  10   4 175.117 355.680   5
 -10   8   4 112.471 317.562   5
  -8  10   4 613.135 331.435   4
 -10   8   2-321.751 368.353   5
  -8  10   2 42.1071 305.296   5
  -8  10   2-133.147 267.935   4
  -8  10   0 15594.9 1422.05   4
 -10   8   0 16761.7 1367.05   5
  -8  10   0 14070.4 1339.46   5
 -10   8  -2-180.646 290.663   5
  -8  10  -2 167.914 409.373   5
  -8  10  -2 235.771 408.136   4
 -10   8  -4 133.679 317.021   5
  -8  10  -4 201.898 392.716   5
  -8  10  -6-41.3292 380.763   5
  -8 -10  16 848.118 224.374   3
 -10   9  13 265.523 203.742   5
  -9  10  13 270.227 254.216   5
  -9  10  13-66.0938 173.419   4
 -10   9  11-111.642 289.835   5
  -9  10  11 120.159 258.514   5
  -9  10  11 109.449 226.272   4
 -10   9   9 305.664 350.672   5
  -9  10   9 488.231 338.340   5
  -9  10   9-132.534 252.268   4
 -10   9   7-26.6799 270.802   5
  -9  10   7-400.256 290.633   5
  -9  10   7 129.622 249.220   4
 -10   9   5 256.911 335.461   5
  -9  10   5 724.395 444.610   5
  -9  10   5 623.926 375.096   4
 -10   9   3 841.961 379.436   5
  -9  10   3 1018.56 391.611   5
  -9  10   3 487.703 353.158   4
 -10   9   1 92.2403 297.470   5
  -9  10   1 122.766 280.540   5
  -9  10   1-494.791 316.525   4
 -10   9  -1 174.217 307.925   5
  -9  10  -1-23.0468 324.801   5
 -10   9  -3 652.816 433.007   5
  -9  10  -3 502.124 408.459   5
  -9  10  -5 209.553 363.127   5
 -10   9  -5 427.178 387.595   5
 -10  10  12 3323.37 445.191   5
 -10  10  10 407.283 251.204   5
 -10  10   8 284.881 241.320   5
 -10  10   6 1881.52 469.338   5
 -10  10   4 248.246 369.362   5
 -10  10   2 867.101 430.650   5
 -10  10   0 23351.1 1615.75   5
 -10  10  -2 1130.21 450.007   5
 -10  10  -4 235.955 409.212   5
   0  11  -1 75727.1 9406.28   2
   0  11   1 71101.2 8932.93   2
   0  11  -1 64791.6 2967.72   4
   0  11   1 69604.0 2953.39   4
   0 -11   1 64724.9 5605.32   1
   0  11  -1 63866.5 2603.10   5
   0  11   1 65520.3 2629.25   5
   0  11   3 46111.6 7366.60   2
   0  11  -3 37194.8 2386.36   4
   0  11   3 40468.7 2199.21   4
   0 -11   3 41385.4 4495.65   1
   0  11  -3 35857.3 2004.52   5
   0  11   3 39903.6 2028.95   5
   0  11   5 24477.5 1710.29   4
   0  11   5 22119.7 1536.98   5
   0  11   5 19915.5 5313.45   2
   0 -11   5 22347.5 3390.45   1
   0  11  -5 18752.3 1509.51   5
   0  11   7 15173.3 1332.37   4
   0 -11   7 16103.8 3020.50   1
   0  11  -7 11058.6 1184.51   5
   0  11   7 14907.3 1271.49   5
   0  11   9 2911.21 649.810   4
   0  11  11 49109.5 2359.88   4
   0  11  13 37100.3 1975.47   4
   0  11  15 25762.2 1515.63   4
   0  11  17 11473.4 874.238   4
  -1  11  18 5116.78 543.922   4
  -1  11  18 4433.01 496.580   5
  -1  11  16 6633.61 758.300   4
  -1  11  14 18802.4 1392.93   4
  -1  11  12 15982.3 1375.62   4
  -1  11  10 14230.6 1328.62   4
  -1  11   8 4426.17 800.879   4
  -1  11   6 11862.3 1221.30   4
   1 -11   6 12090.7 2532.67   1
  -1  11   6 11382.2 1143.64   5
  -1  11   4 13720.0 1308.81   4
   1 -11   4 12696.8 2485.24   1
  -1  11   4 14740.1 1285.44   5
   1  11  -2 35544.7 2273.84   4
  -1  11   2 38995.0 2192.83   4
   1  11  -2 37115.3 6717.83   2
  -1  11   2 40451.2 6455.23   2
  -1 -11  -2 42267.8 4856.69   1
  -1  11   2 40468.0 2114.20   5
   1  11   0 14201.4 1368.72   4
  -1  11   0 15040.0 1422.67   4
   1  11   0 13451.9 4627.01   2
  -1  11   0 13599.1 3952.21   2
  -1 -11   0 16010.7 2877.11   1
  -1  11   0 14130.1 1284.41   5
  -1  11  -2 38125.4 2101.56   5
  -1  11  -2 40758.4 2425.97   4
   1  11   2 40095.2 2185.89   4
  -1  11  -2 38445.7 6448.73   2
   1  11   2 37950.9 6697.98   2
  -1 -11   2 43465.3 4816.57   1
  -1  11  -4 11413.8 1409.36   4
   1  11   4 13296.0 1245.71   4
  -1 -11   4 8931.50 2259.65   1
  -1  11  -4 12330.2 1254.44   5
   1  11   6 12167.6 1199.37   4
   1  11   6 6328.63 2940.65   2
  -1 -11   6 12843.5 2824.37   1
  -1  11  -6 10659.9 1187.04   5
   1  11   6 12102.3 1126.15   5
   1  11   8 5786.04 867.947   4
   1  11  10 14040.2 1266.52   4
   1  11  12 17921.3 1386.21   4
   1  11  14 18808.2 1319.28   4
   1  11  16 7025.35 726.365   4
   1  11  18 4484.73 454.657   4
  -1 -11  18 4171.13 471.174   3
   1  11  18 3506.86 393.650   5
  -2  11  17 678.131 268.288   4
  -2  11  15 54.8902 258.215   4
  -2  11  13 284.767 403.301   4
  -2  11  11 51.3355 334.539   4
  -2  11   9 10741.9 1174.07   4
  -2  11   7 619.544 323.993   5
  -2  11   7 553.105 408.764   4
  -2  11   5 2731.89 670.573   5
  -2  11   5 2210.70 615.598   4
  -2 -11  -5 696.235 688.891   1
  -2  11   3 1922.36 538.098   5
   2  11  -3 820.378 315.007   4
   2  11  -3 376.710 1508.85   2
  -2 -11  -3 1046.91 897.130   1
  -2  11   3 2387.39 671.873   4
  -2  11   1-32.4074 307.624   5
   2  11  -1 55.2950 327.320   4
   2  11  -1-19.4858 1159.91   2
  -2  11   1 102.589 310.957   4
  -2 -11  -1-700.566 836.591   1
  -2  11  -1 231.049 299.503   5
  -2  11  -1-194.947 423.075   4
   2  11   1-49.9932 311.685   4
  -2  11  -3 2008.09 595.330   5
  -2 -11   3 541.387 690.763   1
  -2  11  -3 1417.98 530.753   4
   2  11   3 2591.13 603.329   4
   2  11   3-394.357 2051.33   2
  -2  11  -5 2681.26 675.808   5
   2  11   5 2721.36 609.119   4
   2  11   5 4774.08 2648.97   2
  -2 -11   5 2741.09 1366.87   1
   2  11   7 1156.77 495.618   4
  -2  11  -7 709.281 484.324   5
   2  11   9 9961.68 1052.84   4
   2  11  11 66.8057 250.861   4
   2  11  13 84.3076 233.392   4
   2  11  15 4.68148 258.157   4
  -3  11  18 102.171 178.092   5
  -3  11  18 167.749 193.999   4
  -3  11  16-99.4063 259.098   4
  -3  11  14 1040.24 483.738   4
  -3  11  12 473.848 404.425   4
  -3  11  10 287.670 359.080   4
  -3  11   8 5889.33 871.882   4
  -3  11   8 8024.96 1010.10   5
  -3  11   6 502.922 361.647   5
  -3  11   6 729.667 480.266   4
  -3  11   4 189.916 299.191   5
  -3  11   4 661.156 446.712   4
  -3 -11  -2-361.913 757.158   1
  -3  11   2 108.681 284.276   5
   3  11  -2-256.487 368.372   4
  -3  11   2 103.694 267.732   4
  -3  11   0 3114.99 631.104   5
  -3  11   0 4416.48 832.043   4
   3  11   0 2599.45 2841.71   2
  -3 -11   0 7522.24 2123.38   1
  -3  11  -2-189.849 365.215   5
  -3 -11   2-18.4450 533.691   1
  -3  11  -2 284.442 346.272   4
  -3  11  -4 217.865 315.671   5
  -3  11  -4 158.066 361.115   4
  -3  11  -6-55.3542 406.561   5
  -3  11  -8 6821.00 1006.01   5
  -3 -11  18 163.207 184.402   3
  -4  11  17 2927.86 442.354   5
  -4  11  17 2513.43 416.083   4
  -4  11  15 2664.62 516.482   5
  -4  11  15 1741.69 433.992   4
  -4  11  13 1101.31 450.473   4
  -4  11  11 2847.37 645.035   4
  -4  11   9 4279.04 728.294   5
  -4  11   9 5023.89 832.348   4
  -4  11   7 14388.5 1354.97   4
  -4  11   7 12981.5 1267.12   5
  -4  11   5 1947.70 536.045   5
  -4  11   5 2316.61 608.691   4
  -4  11   3 8242.86 1066.76   4
  -4  11   3 6704.21 940.640   5
  -4  11   1 3083.42 672.980   5
  -4  11   1 3358.81 737.637   4
   4  11  -1 2602.84 2056.47   2
  -4 -11  -1 2462.63 1436.66   1
  -4  11  -1 4856.89 845.900   5
  -4  11  -1 2960.86 672.102   4
   4  11   1 4965.84 3032.01   2
  -4 -11   1 2137.19 1290.98   1
  -4  11  -3 7460.98 1134.65   4
  -4 -11   3 8789.85 2347.87   1
   4  11   3 4929.37 3703.81   2
  -4  11  -3 8725.50 1109.10   5
  -4  11  -5 1708.18 599.193   5
  -4  11  -7 14815.1 1497.40   5
  -5  11  18 8701.81 573.715   5
  -5  11  16 9057.42 773.200   4
  -5  11  16 9533.10 803.219   5
  -5  11  14 14672.6 1141.61   4
  -5  11  14 15613.7 1178.32   5
  -5  11  12 12374.4 1145.26   4
  -5  11  12 14638.8 1252.10   5
  -5  11  10 17563.5 1425.95   4
  -5  11  10 17735.3 1437.00   5
  -5  11   8 15759.6 1400.35   4
  -5  11   8 15243.4 1384.64   5
  -5  11   6 30495.9 1948.77   4
  -5  11   6 29079.9 1882.12   5
  -5  11   4 11141.7 1207.94   4
  -5  11   4 11640.5 1209.19   5
  -5  11   2 37442.3 2217.81   4
  -5  11   2 35007.2 2092.94   5
  -5  11   0 26932.6 1962.31   4
   5  11   0 20643.1 5710.35   2
  -5 -11   0 26931.4 4405.69   1
  -5  11   0 28010.8 1910.61   5
  -5  11  -2 35964.1 2357.55   4
  -5  11  -2 36769.4 2199.29   5
  -5  11  -4 10077.5 1314.67   4
  -5  11  -4 11729.4 1310.92   5
  -5  11  -6 30079.9 2109.02   5
  -5  11  -8 16076.6 1572.34   5
  -5 -11  18 7325.93 512.283   3
  -6  11  17 7332.48 555.597   4
  -6  11  17 8106.93 590.790   5
  -6  11  15 12076.0 903.023   4
  -6  11  15 13395.1 948.188   5
  -6  11  13 11683.7 1024.39   4
  -6  11  13 12597.3 1064.34   5
  -6  11  11 12849.8 1131.98   4
  -6  11  11 16327.6 1318.90   5
  -6  11   9 22110.2 1569.63   4
  -6  11   9 21135.2 1563.23   5
  -6  11   7 15885.4 1382.97   4
  -6  11   7 15905.0 1404.80   5
  -6  11   5 25455.3 1774.92   4
  -6  11   5 25935.3 1780.95   5
  -6  11   3 18342.3 1536.40   4
  -6  11   3 17955.5 1524.64   5
  -6  11   1 28908.1 2002.74   4
  -6  11   1 28769.1 1949.13   5
  -6  11  -1 27908.7 2036.93   4
  -6  11  -1 27939.1 1945.70   5
  -6  11  -3 20599.7 1714.39   5
  -6  11  -3 16470.9 1620.26   4
  -6  11  -5 27214.0 1996.36   5
  -6  11  -7 15942.0 1566.00   5
  -6 -11  17 7312.47 543.004   3
  -7  11  16 2770.31 357.391   4
  -7  11  16 2878.32 378.080   5
  -7  11  14 1392.71 367.903   5
  -7  11  14 1306.26 343.839   4
  -7  11  12 3697.77 619.340   5
  -7  11  12 3325.96 567.459   4
  -7  11  10 4583.13 710.317   4
  -7  11  10 5114.28 775.177   5
  -7  11   8 8510.38 962.918   4
  -7  11   8 10928.6 1117.07   5
  -7  11   6 5072.77 799.071   4
  -7  11   6 5163.83 832.030   5
  -7  11   4 14930.3 1364.80   4
  -7  11   4 14280.1 1360.63   5
  -7  11   2 2200.52 630.710   5
  -7  11   2 1963.49 552.754   4
  -7  11   0 6639.26 992.947   4
  -7  11   0 6395.11 956.455   5
  -7  11  -2 1591.65 580.171   5
  -7  11  -2 1910.70 667.021   4
  -7  11  -4 14074.3 1422.81   5
  -7  11  -6 4578.03 893.492   5
  -7 -11  16 3195.44 366.356   3
  -8  11  15-119.167 155.672   5
  -8  11  13-82.5415 234.796   5
  -8  11  13 160.979 195.595   4
  -8  11  11-186.184 314.157   5
  -8  11  11 161.801 277.245   4
  -8  11   9 200.894 296.230   5
  -8  11   9 168.369 274.629   4
  -8  11   7 266.996 348.099   5
  -8  11   7 58.3074 271.641   4
  -8  11   5-369.706 371.855   5
  -8  11   5 51.7506 261.479   4
 -11   8   3 4003.79 646.981   5
  -8  11   3 3182.97 658.693   5
  -8  11   3 3482.63 709.231   4
 -11   8   1 978.900 425.944   5
  -8  11   1 1214.64 513.888   5
  -8  11   1 956.664 446.803   4
 -11   8  -1 1280.44 434.448   5
  -8  11  -1 900.351 463.095   5
  -8  11  -1 1215.43 454.284   4
  -8  11  -3 3604.82 779.036   5
 -11   8  -3 2481.70 607.705   5
  -8  11  -5 808.546 551.138   5
  -9  11  12 811.558 270.684   5
  -9  11  12 471.897 220.845   4
  -9  11  10 34.1720 229.330   5
  -9  11  10 466.623 268.212   4
 -11   9   8-167.528 213.865   5
  -9  11   8 66.7190 248.844   5
  -9  11   8-110.216 253.983   4
 -11   9   6-678.836 307.661   5
  -9  11   6 327.874 342.973   5
  -9  11   6 212.613 292.103   4
 -11   9   4 608.505 307.680   5
  -9  11   4 851.214 399.759   5
  -9  11   4 703.707 396.503   4
 -11   9   2 6280.87 793.380   5
  -9  11   2 5187.89 832.005   5
 -11   9   0 181.769 271.599   5
  -9  11   0 204.527 331.894   5
 -11   9  -2 5391.36 798.656   5
  -9  11  -2 5603.63 874.106   5
  -9  11  -4 468.032 394.980   5
 -11   9  -4-582.455 353.075   5
  -9  11  -6 792.508 483.340   5
 -10  11  11 4276.80 466.026   5
 -11  10   9 2531.38 400.641   5
 -10  11   9 2632.26 448.825   5
 -11  10   7 3185.94 501.189   5
 -10  11   7 2795.46 510.056   5
 -11  10   5 4055.67 592.516   5
 -10  11   5 4442.36 694.387   5
 -11  10   3 5531.46 728.450   5
 -10  11   3 6404.55 798.216   5
 -11  10   1 12477.2 1074.44   5
 -10  11   1 13493.2 1193.99   5
 -11  10  -1 12952.0 1135.58   5
 -10  11  -1 12664.3 1186.95   5
 -11  10  -3 6589.73 835.159   5
 -10  11  -3 5278.64 799.926   5
 -11  11   8 6928.13 601.785   5
 -11  11   6 7596.97 716.662   5
 -11  11   4 8624.25 813.153   5
 -11  11   2 16559.5 1170.80   5
 -11  11   0 18872.6 1296.23   5
 -11  11  -2 16011.5 1180.92   5
   0  12   0 49564.5 2693.61   4
   0  12   0 46258.0 7535.94   2
   0  12   0 50178.2 2365.02   5
   0  12  -2 24422.4 1997.69   4
   0  12   2 24266.2 1812.08   4
   0  12  -2 22274.1 5335.75   2
   0  12   2 17645.1 4856.60   2
   0  12  -2 26588.9 1737.47   5
   0  12   2 26638.7 1716.44   5
   0  12   4 38299.9 2221.00   4
   0  12   4 38408.7 2041.27   5
   0  12   6 11513.2 1202.86   4
   0  12   6 11296.0 1110.53   5
   0  12   8 11936.8 1214.37   4
   0  12   8 10551.9 1063.00   5
   0  12  10 29850.5 1838.96   4
   0  12  10 27463.6 1661.16   5
   0  12  12 18978.3 1391.93   4
   0  12  12 21212.2 1381.94   5
   0  12  14 11516.8 988.760   4
   0  12  14 12402.1 976.621   5
   0  12  16 8628.54 732.021   4
   0  12  16 7401.60 635.857   5
  -1  12  17 2734.21 379.703   4
  -1  12  17 2834.67 374.833   5
  -1  12  15 3382.07 506.191   5
  -1  12  15 3539.61 549.651   4
  -1  12  13 7022.36 853.679   4
  -1  12  13 8422.73 875.331   5
  -1  12  11 9717.82 1070.60   4
  -1  12  11 8850.08 985.987   5
  -1  12   9 12064.1 1235.93   4
  -1  12   9 11683.9 1143.65   5
  -1  12   7 8441.40 1071.66   4
  -1  12   7 7223.19 918.213   5
  -1  12   5 11943.3 1273.22   4
  -1  12   5 11821.3 1171.86   5
   1  12  -3 11604.7 1375.53   4
  -1  12   3 16117.9 1484.94   4
  -1  12   3 15677.8 1380.63   5
   1  12  -1 17931.4 1669.89   4
  -1  12   1 18184.1 1630.47   4
   1  12  -1 16660.7 4700.90   2
  -1  12   1 19780.1 4834.92   2
  -1  12   1 16341.7 1400.91   5
  -1  12  -1 16646.1 1641.06   4
   1  12   1 17122.5 1542.82   4
  -1  12  -1 17954.9 4773.99   2
   1  12   1 23763.8 5510.77   2
  -1 -12   1 22098.1 3516.36   1
  -1  12  -1 17800.0 1463.96   5
  -1  12  -3 15128.3 1620.24   4
  -1 -12   3 21476.8 3458.45   1
   1  12   3 15937.7 1445.50   4
  -1  12  -3 17050.2 4663.51   2
  -1  12  -3 14452.4 1343.62   5
   1  12   5 11445.7 1217.40   4
  -1  12  -5 10347.7 1204.67   5
   1  12   7 8175.78 998.717   4
  -1  12  -7 6484.98 994.098   5
   1  12   9 11861.7 1170.89   4
   1  12   9 10932.0 1039.76   5
   1  12  11 9976.09 1029.16   4
   1  12  11 10075.2 960.503   5
   1  12  13 8072.22 863.322   4
   1  12  13 7882.47 785.903   5
   1  12  15 3505.49 497.371   4
   1  12  15 4127.29 508.013   5
  -2  12  16 299.647 231.853   5
  -2  12  16-158.270 202.192   4
  -2  12  14 144.426 233.677   5
  -2  12  14 283.395 255.027   4
  -2  12  12 146.698 276.186   5
  -2  12  12 25.6500 318.535   4
  -2  12  10 181.957 312.301   5
  -2  12  10 272.576 398.212   4
  -2  12   8 2439.00 593.774   5
  -2  12   8 2868.10 672.503   4
  -2  12   6 3473.31 697.356   5
  -2  12   6 3711.76 728.332   4
  -2  12   4 299.467 349.668   5
  -2  12   4 480.235 360.727   4
  -2  12   2 411.564 400.860   5
   2  12  -2 59.0446 339.348   4
  -2  12   2-25.6208 360.233   4
  -2  12   0 4203.19 781.397   5
   2  12   0 2370.94 671.147   4
  -2  12   0 3190.27 762.032   4
  -2  12  -2 328.694 317.869   5
  -2  12  -2 504.588 522.738   4
   2  12   2 12.2812 343.862   4
  -2  12  -4-41.2774 305.381   5
  -2  12  -4 31.8930 456.049   4
   2  12   4 466.235 323.192   4
  -2  12  -6 2719.45 640.539   5
   2  12   6 4153.82 726.054   4
   2  12   8 2512.14 578.967   4
   2  12  10 687.687 388.858   4
   2  12  12 27.3571 296.537   4
   2  12  14 219.632 201.983   4
  -3  12  17 256.418 181.206   5
  -3  12  17-52.4389 148.277   4
  -3  12  15 174.025 261.239   5
  -3  12  15 30.3658 238.258   4
  -3  12  13 1167.67 427.333   5
  -3  12  13 1041.27 422.332   4
  -3  12  11 14.3643 389.337   5
  -3  12  11 134.399 342.716   4
  -3  12   9 1725.66 487.420   5
  -3  12   9 2175.79 613.444   4
  -3  12   7 2798.82 629.702   5
  -3  12   7 3278.10 705.298   4
  -3  12   5 1298.31 487.678   5
  -3  12   5 1904.29 584.441   4
  -3  12   3 1849.72 558.092   5
  -3  12   3 2872.46 716.896   4
  -3  12   1-37.2380 384.351   5
  -3  12   1-515.061 488.927   4
  -3  12  -1 267.018 369.700   5
  -3  12  -1 259.245 456.799   4
  -3  12  -3 1624.12 551.732   5
  -3  12  -3 1543.42 580.498   4
  -3  12  -5 1350.74 517.029   5
  -3  12  -7 3408.43 784.786   5
  -4  12  16 1972.44 361.612   5
  -4  12  16 1730.81 347.131   4
  -4  12  14 1474.28 406.270   5
  -4  12  14 1305.43 427.386   4
  -4  12  12 1802.62 516.234   5
  -4  12  12 1323.34 466.024   4
  -4  12  10 1124.34 479.539   5
  -4  12  10 583.834 405.988   4
  -4  12   8 1147.94 476.808   5
  -4  12   8 1112.31 538.077   4
  -4  12   6 3115.49 675.207   5
  -4  12   6 3484.01 743.538   4
  -4  12   4 7220.32 1028.32   4
  -4  12   4 7146.62 993.803   5
  -4  12   2 312.971 365.480   5
  -4  12   2 851.430 489.781   4
  -4  12   0 3753.59 767.406   5
  -4  12   0 2938.33 760.316   4
  -4  12  -2 554.299 390.577   5
  -4  12  -2 985.966 521.054   4
  -4  12  -4 7374.70 1055.20   5
  -4  12  -6 2854.68 758.146   5
  -5  12  15 6572.85 649.538   4
  -5  12  15 6986.17 660.342   5
  -5  12  13 11873.7 997.241   4
  -5  12  13 11350.8 968.156   5
  -5  12  11 9409.17 1001.62   4
  -5  12  11 9380.91 980.672   5
  -5  12   9 13189.3 1246.04   4
  -5  12   9 12970.1 1213.11   5
  -5  12   7 5811.50 885.506   4
  -5  12   7 6097.51 901.224   5
  -5  12   5 10370.0 1171.89   4
  -5  12   5 11135.6 1218.28   5
  -5  12   3 22347.8 1746.37   4
  -5  12   3 21936.8 1692.20   5
  -5  12   1 18146.4 1612.68   4
  -5  12   1 18221.4 1552.60   5
  -5  12  -1 17910.9 1723.03   4
  -5  12  -1 18375.1 1575.92   5
  -5  12  -3 19123.9 1805.53   4
  -5  12  -3 21660.6 1743.11   5
  -5  12  -5 10657.0 1277.46   5
  -5  12  -7 6646.26 1048.87   5
  -6  12  14 7715.15 706.748   4
  -6  12  14 8972.43 757.508   5
  -6  12  12 6982.94 770.408   4
  -6  12  12 7728.39 825.793   5
  -6  12  10 16726.6 1283.93   4
  -6  12  10 16298.6 1280.14   5
  -6  12   8 13565.4 1234.37   4
  -6  12   8 14565.6 1288.69   5
  -6  12   6 9206.90 1099.82   4
  -6  12   6 9201.36 1064.52   5
  -6  12   4 8382.98 1095.29   4
  -6  12   4 8330.74 1049.39   5
  -6  12   2 24710.2 1849.20   4
  -6  12   2 24299.0 1763.27   5
  -6  12   0 19692.9 1709.19   4
  -6  12   0 21819.1 1710.08   5
  -6  12  -2 21492.3 1836.22   4
  -6  12  -2 25429.2 1861.29   5
  -6  12  -4 9063.68 1177.00   5
  -6  12  -6 8836.19 1153.37   5
  -7  12  15 307.600 155.905   5
  -7  12  13 1080.60 323.813   5
  -7  12  13 1407.75 333.686   4
  -7  12  11 3026.56 535.483   5
  -7  12  11 2711.75 499.696   4
  -7  12   9 1069.45 423.355   5
  -7  12   9 1370.55 426.144   4
  -7  12   7 4394.39 746.351   5
  -7  12   7 5141.87 766.002   4
  -7  12   5 2862.76 658.841   5
  -7  12   5 2549.89 608.538   4
  -7  12   3 871.921 497.274   5
  -7  12   3 35.4364 345.789   4
  -7  12   1 8469.18 1091.99   4
  -7  12   1 9617.52 1139.54   5
  -7  12  -1 7437.61 1062.48   4
  -7  12  -1 8717.69 1098.07   5
  -7  12  -3-202.166 424.098   5
  -7  12  -5 1852.59 621.960   5
  -8  12  12 65.2613 182.085   5
  -8  12  12-19.6475 185.398   4
  -8  12  10 653.188 317.288   5
  -8  12  10 794.499 330.512   4
  -8  12   8-107.849 334.332   5
  -8  12   8-466.463 340.009   4
  -8  12   6 26.6295 340.916   5
  -8  12   6 476.877 303.708   4
  -8  12   4 459.104 409.884   5
  -8  12   4-281.250 338.577   4
  -8  12   2 450.219 430.700   5
  -8  12   2-106.610 370.682   4
  -8  12   0 952.459 436.418   5
  -8  12   0 204.148 308.056   4
  -8  12  -2 403.127 429.870   5
  -8  12  -4 181.540 356.812   5
  -8  12  -6 22.3855 402.017   5
  -9  12  11 76.8771 203.792   5
  -9  12   9 181.520 224.483   5
  -9  12   9-307.106 213.919   4
  -9  12   7 645.132 334.770   5
  -9  12   7 294.943 220.726   4
  -9  12   5 97.6680 282.364   5
  -9  12   5 898.695 302.990   4
  -9  12   3-54.1378 341.267   5
  -9  12   3 507.415 337.806   4
  -9  12   1-65.5825 309.482   5
  -9  12  -1-74.9219 335.355   5
  -9  12  -3 364.724 400.774   5
  -9  12  -5 821.808 405.263   5
 -10  12  10 1706.94 286.019   5
 -10  12   8 1243.67 332.574   5
 -10  12   6 970.879 323.704   5
 -10  12   4 5379.11 689.184   5
 -10  12   2 1943.38 474.286   5
 -10  12   0 3708.62 621.951   5
 -12  10   0 3086.10 501.450   5
 -10  12  -2 2522.10 565.555   5
 -11  12   7 4010.42 435.532   5
 -11  12   5 3761.88 486.602   5
 -11  12   3 6674.10 665.692   5
 -12  11   1 6055.81 605.084   5
 -11  12   1 6561.80 702.432   5
 -11  12  -1 6647.78 706.017   5
   0  13  -1 1128.31 558.691   4
   0  13   1 547.813 469.327   4
   0  13   3 4608.96 762.316   5
   0  13   3 3253.78 751.187   4
   0  13   5 1470.18 450.339   5
   0  13   5 1546.93 536.616   4
   0  13   7 52.2768 239.820   5
   0  13   7-175.170 315.123   4
   0  13   9 12604.8 1194.57   4
   0  13   9 10988.7 1012.94   5
   0  13  11 2463.04 495.352   5
   0  13  11 2090.76 534.739   4
   0  13  13 585.585 250.086   5
   0  13  13 243.061 274.080   4
   0  13  15 609.033 233.485   4
  -1  13  16 204.930 179.880   4
  -1  13  14 86.0123 198.378   5
  -1  13  14 310.807 245.290   4
  -1  13  12-396.334 260.944   5
  -1  13  12-146.787 248.238   4
  -1  13  10 877.197 388.368   5
  -1  13  10 620.795 376.679   4
  -1  13   8 1654.48 445.340   5
  -1  13   8 1722.98 565.378   4
  -1  13   6 528.402 358.206   5
  -1  13   6 25.3350 352.781   4
  -1  13   4-180.182 321.462   5
  -1  13   4 308.632 335.871   4
  -1  13   2 987.930 436.526   5
  -1  13   2 527.081 426.098   4
  -1  13   0 1600.30 485.641   5
   1  13   0 1591.38 647.134   4
  -1  13   0 1766.18 645.381   4
  -1  13  -2 866.506 439.761   5
  -1  13  -2 448.372 557.117   4
   1  13   2 28.2975 342.967   4
  -1  13  -4-388.250 389.942   5
   1  13   4 116.500 386.146   4
   1  13   6 74.3895 296.506   4
  -1  13  -6-399.191 336.544   5
   1  13   8 2315.23 572.561   4
   1  13  10 663.638 342.057   4
   1  13  12 303.871 285.882   4
   1  13  14-78.9197 175.297   4
  -2  13  15 2511.40 373.380   5
  -2  13  15 2425.15 413.652   4
  -2  13  13 2871.43 484.762   5
  -2  13  13 2980.41 544.816   4
  -2  13  11 3739.50 622.321   5
  -2  13  11 4418.24 713.443   4
  -2  13   9 6637.56 902.330   4
  -2  13   9 5950.69 818.825   5
  -2  13   7 241.094 305.181   5
  -2  13   7 277.498 413.322   4
  -2  13   5 6448.28 989.689   4
  -2  13   5 6025.63 884.566   5
  -2  13   3 6711.26 1030.53   4
  -2  13   3 6276.10 911.620   5
  -2  13   1 4504.81 791.987   5
   2  13  -1 4045.65 867.937   4
  -2  13   1 4889.57 915.584   4
  -2  13  -1 5273.63 845.944   5
   2  13   1 5211.91 906.987   4
  -2  13  -1 4527.33 894.949   4
  -2  13  -3 5267.47 861.318   5
   2  13   3 6186.40 954.803   4
  -2  13  -3 5718.90 1055.12   4
   2  13   5 5602.76 862.011   4
  -2  13  -5 6371.24 934.698   5
   2  13   7 231.225 281.275   4
   2  13   9 5351.75 740.955   4
   2  13  11 4291.73 621.731   4
  -3  13  16 3169.87 378.878   4
  -3  13  14 1648.12 369.044   5
  -3  13  14 1439.58 377.240   4
  -3  13  12 5229.94 706.592   4
  -3  13  12 6372.76 747.479   5
  -3  13  10 9037.07 991.188   4
  -3  13  10 8717.53 944.720   5
  -3  13   8 12865.2 1274.13   4
  -3  13   8 13326.1 1211.89   5
  -3  13   6 1217.04 490.014   5
  -3  13   6 1527.29 570.943   4
  -3  13   4 11408.8 1287.45   4
  -3  13   4 10926.8 1156.05   5
  -3  13   2 6027.11 993.829   4
  -3  13   2 6659.87 937.865   5
  -3  13   0 12031.9 1410.07   4
  -3  13   0 12879.2 1299.61   5
  -3  13  -2 4205.05 913.455   4
  -3  13  -2 5815.83 914.543   5
  -3  13  -4 12033.6 1293.18   5
  -3  13  -6 1285.27 552.281   5
  -4  13  15-95.9036 173.889   5
  -4  13  15 57.2820 182.251   4
  -4  13  13 203.544 253.910   5
  -4  13  13-44.9063 227.577   4
  -4  13  11 628.006 358.062   5
  -4  13  11 39.3252 287.962   4
  -4  13   9 1540.74 497.385   5
  -4  13   9 1225.87 484.684   4
  -4  13   7 6220.86 936.431   4
  -4  13   7 7391.57 942.240   5
  -4  13   5-263.463 398.792   5
  -4  13   5-79.2564 389.340   4
  -4  13   3 32.1806 404.007   5
  -4  13   3-124.082 381.884   4
  -4  13   1 2279.63 631.731   5
  -4  13   1 2329.49 701.078   4
  -4  13  -1 2139.10 595.325   5
  -4  13  -1 1633.96 637.653   4
  -4  13  -3 181.222 458.933   5
  -4  13  -5 580.950 517.751   5
  -5  13  14 970.293 267.775   5
  -5  13  14 833.946 267.694   4
  -5  13  12 2623.06 496.280   5
  -5  13  12 2838.13 500.479   4
  -5  13  10 1376.64 406.327   5
  -5  13  10 1338.30 456.825   4
  -5  13   8 547.367 405.213   5
  -5  13   8 650.167 349.610   4
  -5  13   6 688.963 421.861   5
  -5  13   6 527.064 441.867   4
  -5  13   4 5564.82 912.539   4
  -5  13   4 6878.25 967.681   5
  -5  13   2 2815.56 670.192   5
  -5  13   2 1443.27 556.302   4
  -5  13   0 620.102 423.361   5
  -5  13   0-6.99475 403.186   4
  -5  13  -2 2485.92 691.936   5
  -5  13  -2 2135.05 612.488   4
  -5  13  -4 6471.94 989.513   5
  -5  13  -6 386.971 495.360   5
  -6  13  13 566.731 246.305   5
  -6  13  13 961.539 285.595   4
  -6  13  11 1223.84 365.699   5
  -6  13  11 1530.31 391.727   4
  -6  13   9 3435.96 611.489   5
  -6  13   9 3412.52 594.196   4
  -6  13   7 565.214 387.102   5
  -6  13   7 1764.12 541.073   4
  -6  13   5-8.50541 332.838   5
  -6  13   5 259.602 346.961   4
  -6  13   3 4715.20 821.721   5
  -6  13   3 4387.70 809.991   4
  -6  13   1 1679.91 598.703   5
  -6  13   1 1447.75 595.706   4
  -6  13  -1 1879.65 604.692   5
  -6  13  -1 1182.31 559.780   4
  -6  13  -3 4869.58 822.985   5
  -6  13  -5-205.952 453.654   5
  -7  13  12 264.439 218.165   5
  -7  13  12-106.992 171.811   4
  -7  13  10-134.738 285.064   5
  -7  13  10-328.540 285.536   4
  -7  13   8-158.375 316.504   5
  -7  13   8 13.7064 262.123   4
  -7  13   6 209.535 357.840   5
  -7  13   6-78.9640 370.455   4
  -7  13   4 3482.30 688.076   5
  -7  13   4 3789.53 705.803   4
  -7  13   2-132.942 369.352   5
  -7  13   2-389.894 402.666   4
  -7  13   0 19.7242 388.298   5
  -7  13   0-34.1373 419.842   4
  -7  13  -2-29.5416 389.550   5
  -7  13  -4 3831.38 770.580   5
  -7  13  -6-376.777 438.362   5
  -8  13  11 2625.61 378.185   4
  -8  13  11 2758.07 405.692   5
  -8  13   9 2707.14 464.284   4
  -8  13   9 3938.25 532.442   5
  -8  13   7 2347.92 488.404   5
  -8  13   7 2149.00 464.094   4
  -8  13   5 3086.01 589.792   5
  -8  13   5 2188.19 510.271   4
  -8  13   3 5640.67 792.175   4
  -8  13   3 5801.54 798.960   5
  -8  13   1 1580.44 514.343   5
  -8  13  -1 1702.07 532.352   5
  -8  13  -3 7762.22 969.076   5
  -8  13  -5 2917.55 611.385   5
  -9  13  10 1514.67 300.477   5
  -9  13   8 2393.79 409.264   5
  -9  13   8 2116.42 377.043   4
  -9  13   6 2044.72 442.572   5
  -9  13   6 1473.20 363.273   4
  -9  13   4 1397.25 411.795   5
  -9  13   4 1482.25 399.288   4
  -9  13   2 1602.70 456.661   5
  -9  13   0 3566.42 619.526   5
  -9  13  -2 1065.94 424.595   5
  -9  13  -4 1084.90 402.463   5
 -10  13   7 321.768 192.935   5
 -10  13   5 94.1111 174.822   5
 -10  13   3 233.765 238.563   5
 -10  13   1 416.169 294.950   5
 -10  13  -1 199.830 250.994   5
 -11  13   2 938.991 263.397   5
   0  14   0 1468.57 532.957   4
   0  14   2 144.547 311.708   4
   0  14   4 2022.44 591.023   4
   0  14   6 3300.63 677.895   4
   0  14   8 2280.69 528.404   4
   0  14  10 1227.52 382.445   4
   0  14  12 442.996 288.620   4
  -1  14  13-157.806 154.751   5
  -1  14  13 624.224 273.750   4
  -1  14  11 52.4802 213.640   5
  -1  14  11-148.027 260.908   4
  -1  14   9 252.667 267.462   5
  -1  14   9 3.00596 285.487   4
  -1  14   7 669.175 324.139   5
  -1  14   7 25.9298 318.652   4
  -1  14   5 132.300 266.869   5
  -1  14   5 310.863 394.117   4
  -1  14   3 464.387 313.740   5
  -1  14   3-267.035 431.513   4
  -1  14   1-278.970 305.210   5
  -1  14   1-178.871 369.825   4
  -1  14  -1 325.494 302.710   5
  -1  14  -1 89.1828 429.551   4
   1  14   1 323.100 392.225   4
  -1  14  -3 581.514 309.137   5
   1  14   3 302.035 371.191   4
   1  14   5 246.848 306.568   4
   1  14   7 136.957 296.025   4
   1  14   9-534.871 358.530   4
   1  14  11 177.941 230.195   4
  -2  14  14 3426.89 425.686   4
  -2  14  12 2547.93 419.953   5
  -2  14  12 2843.51 471.405   4
  -2  14  10 6155.55 769.689   4
  -2  14  10 6669.89 735.089   5
  -2  14   8 3270.82 633.160   4
  -2  14   8 4071.75 630.846   5
  -2  14   6 5508.87 848.760   4
  -2  14   6 6462.22 827.026   5
  -2  14   4 4402.59 838.547   4
  -2  14   4 4638.03 748.173   5
  -2  14   2 6637.30 1026.47   4
  -2  14   2 5136.44 782.380   5
  -2  14   0 1651.71 526.584   5
  -2  14   0 858.765 574.883   4
   2  14   2 5575.27 865.405   4
  -2  14  -2 6065.44 892.865   5
   2  14   4 5018.33 864.467   4
  -2  14  -4 3979.28 701.894   5
   2  14   6 5235.42 797.781   4
   2  14   8 3210.80 592.490   4
  -3  14  13 1916.36 332.308   5
  -3  14  13 2342.67 407.390   4
  -3  14  11 9257.34 870.802   4
  -3  14  11 8080.84 757.419   5
  -3  14   9 7867.38 891.497   4
  -3  14   9 8149.21 838.688   5
  -3  14   7 12760.2 1201.36   4
  -3  14   7 11034.3 1052.97   5
  -3  14   5 8414.42 1050.32   4
  -3  14   5 9557.82 1024.69   5
  -3  14   3 7597.34 1080.91   4
  -3  14   3 8052.92 963.042   5
  -3  14   1 5123.15 768.696   5
  -3  14   1 5681.59 979.482   4
  -3  14  -1 4454.69 945.074   4
  -3  14  -1 5906.37 887.476   5
  -3  14  -3 7059.89 958.638   5
  -3  14  -5 8888.97 1023.64   5
  -4  14  12 1258.02 321.273   5
  -4  14  12 643.428 274.953   4
  -4  14  10 1412.98 343.172   5
  -4  14  10 1246.44 372.380   4
  -4  14   8 3582.02 600.406   5
  -4  14   8 3736.45 670.041   4
  -4  14   6 2469.87 571.789   5
  -4  14   6 1589.70 519.153   4
  -4  14   4 1285.92 430.651   5
  -4  14   4 437.497 464.410   4
  -4  14   2 1747.53 540.753   5
  -4  14   2 1018.09 558.642   4
  -4  14   0 1641.52 529.796   5
  -4  14   0 1518.63 673.281   4
  -4  14  -2 1141.53 500.054   5
  -4  14  -4 1455.72 511.480   5
  -5  14  13 220.948 158.733   5
  -5  14  13 353.382 206.767   4
  -5  14  11 1255.15 322.420   5
  -5  14  11 633.197 282.453   4
  -5  14   9-189.981 293.461   5
  -5  14   9-133.676 313.457   4
  -5  14   7 465.349 298.411   5
  -5  14   7 830.988 421.141   4
  -5  14   5 612.155 363.296   5
  -5  14   5 354.529 341.295   4
  -5  14   3 11.4962 336.603   5
  -5  14   3-209.771 485.912   4
  -5  14   1 1015.16 464.158   5
  -5  14   1 110.866 435.653   4
  -5  14  -1 253.971 330.882   5
  -5  14  -3 207.412 339.122   5
  -5  14  -5 706.973 416.405   5
  -6  14  12-34.1490 147.036   5
  -6  14  12-241.658 178.615   4
  -6  14  10 741.582 287.044   5
  -6  14  10 213.978 268.366   4
  -6  14   8 1185.36 396.456   5
  -6  14   8 676.839 305.906   4
  -6  14   6 906.394 388.344   5
  -6  14   6 516.809 358.313   4
  -6  14   4 358.188 306.004   5
  -6  14   4 175.820 387.642   4
  -6  14   2 511.428 379.182   5
  -6  14   2-159.056 359.863   4
  -6  14   0 314.896 363.306   5
  -6  14  -2 32.3129 350.618   5
  -6  14  -4 789.438 432.967   5
  -7  14  11 1149.97 254.967   5
  -7  14   9 10.1941 204.327   5
  -7  14   9 345.683 255.521   4
  -7  14   7 405.441 279.120   5
  -7  14   7 456.218 244.094   4
  -7  14   5 431.199 335.635   5
  -7  14   5 151.293 263.537   4
  -7  14   3 2120.59 542.744   5
  -7  14   3 1201.36 448.981   4
  -7  14   1 655.648 401.030   5
  -7  14  -1 372.422 297.503   5
  -7  14  -3 1140.11 432.073   5
  -8  14   8 2122.42 359.021   4
  -8  14   8 3167.65 443.810   5
  -8  14   6 3647.10 532.227   4
  -8  14   6 4026.67 549.834   5
  -8  14   4 3400.09 536.339   4
  -8  14   4 4120.03 595.995   5
  -8  14   2 5658.35 724.804   5
  -8  14   0 2763.88 547.629   5
  -8  14  -2 4949.76 697.531   5
  -9  14   7 2022.17 339.396   5
  -9  14   5 2583.74 403.977   5
  -9  14   3 2965.58 484.049   5
  -9  14   1 2436.69 457.309   5
  -9  14  -1 2280.88 445.979   5
 -10  14   2 85.2822 173.567   5
 -10  14   0 66.4667 160.180   5
   0  15   1 717.794 431.223   4
   0  15   3 1575.66 462.215   4
   0  15   5 6378.37 872.150   4
   0  15   7 8149.93 889.914   4
   0  15   9 814.573 317.859   4
   0  15  11 1487.33 326.776   4
  -1  15  12 189.624 159.286   4
  -1  15  10 354.036 280.483   4
  -1  15   8 387.688 192.170   5
  -1  15   8 264.359 282.182   4
  -1  15   6 1983.56 405.977   5
  -1  15   6 1702.87 504.899   4
  -1  15   4 1044.62 368.652   5
  -1  15   4 381.665 360.839   4
  -1  15   2 147.056 394.169   4
   1  15   2-313.559 400.175   4
   1  15   4 490.112 293.953   4
   1  15   6 1704.83 476.904   4
   1  15   8 211.571 246.241   4
   1  15  10-6.32681 172.091   4
  -2  15  11 327.710 161.009   5
  -2  15  11 196.133 217.603   4
  -2  15   9 1027.15 266.842   5
  -2  15   9 759.564 333.854   4
  -2  15   7 4586.83 716.043   4
  -2  15   7 4671.32 588.728   5
  -2  15   5 2134.67 466.365   5
  -2  15   5 1209.95 472.473   4
  -2  15   3 358.049 320.662   5
  -2  15   3-192.544 428.472   4
  -2  15   1 281.472 254.490   5
  -2  15   1 496.317 461.927   4
  -2  15  -1 715.790 381.062   5
  -2  15  -3 127.744 253.217   5
  -3  15  12 877.045 233.030   4
  -3  15  10 1219.26 297.097   5
  -3  15  10 869.732 309.721   4
  -3  15   8 2359.49 438.186   5
  -3  15   8 2269.81 509.465   4
  -3  15   6 9610.25 1016.23   4
  -3  15   6 9575.14 874.714   5
  -3  15   4 2356.55 528.716   5
  -3  15   4 1860.45 534.446   4
  -3  15   2 889.334 399.555   5
  -3  15   2 140.909 383.304   4
  -3  15   0 565.600 267.779   5
  -3  15  -2 1.52333 292.291   5
  -3  15  -4 2542.02 545.277   5
  -4  15  11-101.527 126.940   5
  -4  15  11 133.485 236.801   4
  -4  15   9-244.093 233.711   5
  -4  15   9-265.043 258.642   4
  -4  15   7-121.760 239.424   5
  -4  15   7-85.0522 274.385   4
  -4  15   5 1352.66 405.108   5
  -4  15   5 1256.81 479.229   4
  -4  15   3 354.695 352.798   5
  -4  15   3-280.204 376.231   4
  -4  15   1-194.043 359.413   5
  -4  15   1-119.231 431.989   4
  -4  15  -1 104.415 310.641   5
  -4  15  -3 92.2349 277.069   5
  -5  15  10 336.278 172.235   5
  -5  15  10 655.769 293.544   4
  -5  15   8 2337.14 455.982   4
  -5  15   8 3743.62 498.323   5
  -5  15   6 5932.56 753.095   4
  -5  15   6 5760.73 676.412   5
  -5  15   4 762.414 354.232   5
  -5  15   4 298.789 357.635   4
  -5  15   2 939.961 328.671   5
  -5  15   2 698.760 394.001   4
  -5  15   0 2314.73 517.666   5
  -5  15  -2 842.788 384.888   5
  -5  15  -4 317.852 274.055   5
  -6  15   9 1283.03 276.605   5
  -6  15   9 1496.25 332.454   4
  -6  15   7 2777.11 488.392   4
  -6  15   7 3791.62 509.412   5
  -6  15   5 4886.93 679.926   4
  -6  15   5 5445.91 654.831   5
  -6  15   3 1949.31 451.630   5
  -6  15   3 1042.84 374.275   4
  -6  15   1 664.262 313.720   5
  -6  15  -1 549.402 312.401   5
  -6  15  -3 1366.63 395.209   5
  -7  15   8-87.8808 161.793   5
  -7  15   6-103.352 191.472   5
  -7  15   6 173.511 184.905   4
  -7  15   4 1073.24 341.629   5
  -7  15   2-163.927 234.946   5
  -7  15   0 448.108 256.449   5
  -7  15  -2-321.874 282.259   5
  -8  15   5 1215.21 291.251   5
  -8  15   3 353.432 237.836   5
  -8  15   1 1499.28 350.336   5
  -8  15  -1 1901.17 394.587   5
  -9  15   2 127.849 147.183   5
   0  16   6 8427.15 805.656   4
   0  16   8 6402.06 615.724   4
  -1  16   9 1828.57 351.933   4
  -1  16   7 3218.60 524.317   4
  -1  16   5 3637.07 607.858   4
  -2  16   8-11.8198 205.285   4
  -2  16   6-155.265 288.485   4
  -2  16   4 562.417 194.775   5
  -2  16   4-36.9056 289.882   4
  -3  16   9-331.302 191.839   4
  -3  16   7 334.123 169.386   5
  -3  16   7 65.5811 250.413   4
  -3  16   5 800.806 251.771   5
  -3  16   5 756.673 308.964   4
  -3  16   3-426.876 236.287   5
  -3  16   1-142.639 283.603   5
  -3  16  -1-216.523 226.995   5
  -4  16   8 951.576 266.011   4
  -4  16   6 292.166 198.819   5
  -4  16   6 469.309 296.704   4
  -4  16   4-129.804 182.567   5
  -4  16   4 215.005 247.176   4
  -4  16   2 903.966 309.511   5
  -4  16   0 1950.51 415.264   5
  -4  16  -2 308.664 194.565   5
  -5  16   7 7379.32 661.891   4
  -5  16   5 6698.90 600.968   5
  -5  16   3 2413.03 414.467   5
  -5  16   1 3493.29 499.971   5
  -5  16  -1 4134.18 542.659   5
  -6  16   4 6083.37 563.497   5
  -6  16   2 3168.32 453.146   5
  -6  16   0 2832.00 440.497   5
  -7  16   1 275.272 167.461   5
   0   0   0    0.00    0.00   0

TITL FJU-14-BF4 in I-42m
REM I-42m (#121 in standard setting)
CELL 1.54184  14.112531  14.112531  19.858307  90.0000  90.0000  90.0000
ZERR   55.00   0.000454   0.000454   0.000723   0.0000   0.0000   0.0000
LATT -2
SYMM -x,-y, z
SYMM  y,-x,-z
SYMM -y, x,-z
SYMM -x, y,-z
SYMM  x,-y,-z
SYMM -y,-x, z
SYMM  y, x, z
SFAC C H N O Cu
UNIT 55.00 55.00 55.00 55.00 55.00
TREF
HKLF 4
END
;
_shelx_hkl_checksum              31115
_shelx_fab_checksum              68409
_shelx_fab_file
;
    1    1    0     91.25      3.19
    0    2    0     81.27     -6.93
    2    2    0     42.00      0.36
    1    3    0     38.67      5.70
    3    3    0     23.74     -4.91
    0    4    0      9.47     12.75
    2    4    0     -1.48      7.46
    4    4    0    -31.27      2.01
    1    5    0     23.88      3.35
    3    5    0     -0.62     -1.74
    5    5    0     10.48     -0.03
    0    6    0     15.80     -4.16
    2    6    0      2.49      0.08
    4    6    0     -2.01      6.80
    6    6    0      0.22      1.93
    1    7    0      3.44      0.50
    3    7    0      3.64      1.56
    5    7    0     -0.25      0.71
    7    7    0      2.32      0.54
    0    8    0     24.19     -1.05
    2    8    0     10.23     -1.16
    4    8    0      1.97     -0.09
    6    8    0     -0.22     -0.57
    8    8    0      1.81     -0.29
    1    9    0     -3.64      1.10
    3    9    0     -1.21      0.98
    5    9    0     -0.41      0.38
    7    9    0     -1.72      0.11
    9    9    0     -0.78     -0.01
    0   10    0      6.34     -1.13
    2   10    0      2.97     -0.71
    4   10    0     -1.39     -0.53
    6   10    0     -1.21     -0.93
    8   10    0      2.11     -0.05
   10   10    0     -1.62     -0.40
    1   11    0     -1.06      0.49
    3   11    0     -2.05      0.17
    5   11    0      0.21     -1.26
    7   11    0     -1.90     -0.34
    9   11    0     -0.14      0.51
   11   11    0      1.50      0.07
    0   12    0      0.11      0.03
    2   12    0     -1.74     -0.41
    4   12    0     -5.53     -0.24
    6   12    0      1.95     -0.27
    8   12    0     -1.58     -0.24
   10   12    0     -0.82      0.20
    1   13    0      1.45      0.37
    3   13    0     -0.77     -0.79
    5   13    0      0.91     -1.27
    7   13    0     -3.82     -0.69
    9   13    0     -0.58      0.96
    0   14    0      3.04      0.39
    2   14    0      0.45      1.03
    4   14    0     -1.83      0.41
    6   14    0      0.15      0.55
    8   14    0     -2.94      0.53
   10   14    0      1.18     -0.32
    3   15    0      5.88     -1.15
    5   15    0      1.10     -0.41
    7   15    0      0.83      0.20
    4   16    0      1.53     -0.09
    6   16    0      0.90      0.22
    0    1    1    -69.25      1.39
    1    2    1     32.63      2.81
    0    3    1     -3.92      0.24
    2    3    1    -21.49     -2.30
    1    4    1     22.73    -12.53
    3    4    1     17.12      1.46
    0    5    1     -9.40     -1.09
    2    5    1     -5.29     -0.81
    4    5    1     -1.20     -1.45
    1    6    1      6.01      1.16
    3    6    1      1.36     -1.44
    5    6    1     -0.13     -0.53
    0    7    1      6.23      0.83
    2    7    1      4.86      0.46
    4    7    1      2.38     -2.22
    6    7    1      3.97      0.19
    1    8    1     -4.10     -0.61
    3    8    1     -6.36      2.30
    5    8    1      2.51      2.34
    7    8    1      1.20      0.11
    0    9    1      5.55      0.56
    2    9    1      5.32     -0.36
    4    9    1      1.92     -0.70
    6    9    1      2.44     -0.36
    8    9    1     -2.47      0.03
    1   10    1      0.31      1.29
    3   10    1     -4.37      0.96
    5   10    1     -1.26      1.39
    7   10    1     -0.25      0.30
    9   10    1     -1.49     -0.17
    0   11    1     -0.87      0.38
    2   11    1     -1.20     -0.07
    4   11    1      4.08      0.35
    6   11    1      0.47     -0.05
    8   11    1     -3.02     -0.45
   10   11    1     -0.25      0.37
    1   12    1      4.00     -0.18
    3   12    1      1.28      0.14
    5   12    1     -2.82      0.70
    7   12    1      1.19      0.76
    9   12    1     -0.65     -0.16
   11   12    1     -0.38     -0.47
    0   13    1     -2.28      0.90
    2   13    1     -0.27      0.46
    4   13    1      4.24      0.44
    6   13    1     -0.62      0.19
    8   13    1      1.19     -0.07
   10   13    1     -1.09      0.43
    1   14    1      4.37     -2.18
    3   14    1     -1.87     -0.38
    5   14    1      0.21      0.29
    7   14    1      1.51     -0.08
    9   14    1      0.15     -0.10
    0   15    1      0.78      0.34
    2   15    1      0.01      0.75
    4   15    1     -1.98      0.24
    6   15    1     -0.68     -0.30
    8   15    1     -0.61     -0.10
    3   16    1     -2.56      0.30
    5   16    1      0.42      0.40
    7   16    1     -1.47     -0.09
    0    0    2     22.41     -0.08
    1    1    2    -97.17     -0.41
    0    2    2    -74.08    -12.62
    2    2    2    -29.34     -1.92
    1    3    2    -28.88      0.00
    3    3    2     18.63     -3.83
    0    4    2    -37.51      3.95
    2    4    2     -8.80      4.00
    4    4    2     -4.47     -0.50
    1    5    2     -4.22      0.47
    3    5    2      6.16     -2.10
    5    5    2     11.59     -1.89
    0    6    2    -10.94     -3.45
    2    6    2     -3.12     -0.74
    4    6    2      3.02      1.71
    6    6    2     -5.92     -0.93
    1    7    2    -15.85      2.15
    3    7    2      1.40     -0.81
    5    7    2     -5.91     -1.68
    7    7    2     -1.12     -0.30
    0    8    2     -3.95      2.08
    2    8    2      0.15      0.69
    4    8    2      0.37     -1.49
    6    8    2     -4.25     -0.30
    8    8    2      0.36      0.19
    1    9    2    -10.13      1.92
    3    9    2      1.60     -0.57
    5    9    2      0.15     -0.47
    7    9    2      1.63      0.04
    9    9    2      3.93      0.01
    0   10    2      0.14     -1.55
    2   10    2      4.09     -0.60
    4   10    2      1.48     -0.67
    6   10    2     -0.24      0.01
    8   10    2      6.08      0.08
   10   10    2      0.01     -0.38
    1   11    2      0.97      0.31
    3   11    2      2.48      0.05
    5   11    2      0.16     -0.75
    7   11    2      1.05      0.29
    9   11    2      1.77      0.07
   11   11    2      0.13      0.16
    0   12    2     -0.58     -0.62
    2   12    2      0.60     -0.51
    4   12    2     -0.95     -0.10
    6   12    2      2.61      0.37
    8   12    2      3.49     -0.41
   10   12    2      0.69     -0.76
    1   13    2     -1.69      0.23
    3   13    2      0.57     -0.09
    5   13    2      0.63     -0.70
    7   13    2     -1.06     -0.35
    9   13    2      2.04     -0.06
   11   13    2      0.13     -0.02
    0   14    2     -3.95      0.12
    2   14    2     -2.04      0.59
    4   14    2     -0.30      0.17
    6   14    2     -0.03      0.42
    8   14    2      1.31      0.15
   10   14    2      1.29     -1.29
    1   15    2     -6.16      0.13
    3   15    2      2.54     -0.33
    5   15    2     -0.44     -0.23
    7   15    2      2.22      0.08
    9   15    2      1.39     -0.11
    4   16    2     -0.81     -0.02
    6   16    2     -1.45      0.01
    0    1    3     -8.08      3.19
    1    2    3     17.51      5.17
    0    3    3     -4.65      5.45
    2    3    3    -29.16     -0.19
    1    4    3      1.66     -1.44
    3    4    3     -1.28      2.36
    0    5    3    -11.21      3.38
    2    5    3     -8.13      0.51
    4    5    3     -7.64     -0.05
    1    6    3     -8.81      0.47
    3    6    3     -6.07      0.21
    5    6    3     -0.10      0.62
    0    7    3      1.40     -2.09
    2    7    3     -0.91     -1.42
    4    7    3     -1.19     -0.53
    6    7    3     -1.03     -0.30
    1    8    3     -2.09     -6.19
    3    8    3     -3.51      0.10
    5    8    3      1.89      0.39
    7    8    3     -0.62     -0.77
    0    9    3      2.47     -1.78
    2    9    3      1.87     -1.68
    4    9    3      0.15      0.18
    6    9    3     -0.06     -0.20
    8    9    3     -1.55      0.72
    1   10    3     -1.30     -0.87
    3   10    3      0.32      0.16
    5   10    3      0.55      0.60
    7   10    3     -2.64      0.45
    9   10    3      0.14      0.07
    0   11    3     -6.07      0.02
    2   11    3     -1.79     -0.37
    4   11    3      3.47      0.42
    6   11    3      1.86     -0.26
    8   11    3     -1.82     -0.05
   10   11    3      3.00      0.29
    1   12    3     -0.17      0.37
    3   12    3      0.32      0.22
    5   12    3     -3.00      0.42
    7   12    3     -1.50      0.43
    9   12    3     -0.87      0.14
   11   12    3     -0.80     -0.48
    0   13    3     -5.54      0.51
    2   13    3     -0.30      0.24
    4   13    3      1.57      0.30
    6   13    3      0.40     -0.20
    8   13    3     -0.81     -0.27
   10   13    3     -0.93      0.39
    1   14    3      1.55     -0.45
    3   14    3     -2.09      0.01
    5   14    3     -1.40      0.33
    7   14    3     -0.60     -0.08
    9   14    3     -0.82      0.01
    0   15    3      0.96      0.31
    2   15    3      0.89      0.36
    4   15    3     -0.43      0.10
    6   15    3      0.05     -0.48
    8   15    3     -2.84     -0.27
    3   16    3      1.76     -0.11
    5   16    3      3.01      0.40
    0    0    4     76.67      0.08
    1    1    4     18.95      1.47
    0    2    4     12.32     -3.12
    2    2    4     18.01      0.54
    1    3    4     15.27      1.16
    3    3    4      8.14     -0.52
    0    4    4     -1.04      0.36
    2    4    4     -2.73      0.57
    4    4    4     -5.97     -1.24
    1    5    4      4.89     -0.26
    3    5    4     -3.76     -0.16
    5    5    4     -0.63      0.63
    0    6    4     12.05     -1.13
    2    6    4      4.33     -0.39
    4    6    4     -0.13     -0.18
    6    6    4     -2.42     -0.77
    1    7    4     -1.54      1.79
    3    7    4      0.69     -0.75
    5    7    4     -2.78     -0.25
    7    7    4      4.43      0.32
    0    8    4      1.93      2.73
    2    8    4      1.21      1.60
    4    8    4     -1.15     -0.30
    6    8    4     -2.29      0.70
    8    8    4     -3.94      0.12
    1    9    4     -2.72      1.17
    3    9    4     -3.82     -1.16
    5    9    4     -0.92     -0.95
    7    9    4     -0.49     -0.75
    9    9    4     -0.89     -0.14
    0   10    4      0.64     -0.92
    2   10    4     -2.95      0.01
    4   10    4     -4.89      0.29
    6   10    4     -1.65     -0.03
    8   10    4      3.92     -0.52
   10   10    4     -3.13      0.01
    1   11    4      0.76      0.29
    3   11    4     -2.81     -0.07
    5   11    4     -0.74     -0.59
    7   11    4     -0.08     -0.15
    9   11    4     -3.48      0.43
   11   11    4      0.19      0.39
    0   12    4      1.72     -0.90
    2   12    4     -3.42     -0.56
    4   12    4     -1.84      0.03
    6   12    4      1.37      0.27
    8   12    4      1.80     -0.10
   10   12    4      0.83      0.03
    1   13    4      1.29      0.12
    3   13    4     -0.56      0.03
    5   13    4      0.25     -0.23
    7   13    4     -1.62     -0.32
    9   13    4     -0.37      0.40
    0   14    4      2.01     -0.13
    2   14    4     -0.25     -0.08
    4   14    4      1.20     -0.54
    6   14    4      0.05      0.14
    8   14    4      0.02      0.21
    1   15    4      0.85     -0.03
    3   15    4      0.94      0.09
    5   15    4      1.02      0.07
    7   15    4      1.35     -0.06
    2   16    4      1.47     -0.09
    4   16    4     -2.85     -0.80
    6   16    4     -2.16     -0.07
    0    1    5     -2.22     -0.81
    1    2    5     12.74      0.70
    0    3    5      7.34     -1.69
    2    3    5     -0.18     -0.80
    1    4    5     12.70      0.06
    3    4    5      1.94      1.16
    0    5    5      8.97     -0.97
    2    5    5      6.30     -0.81
    4    5    5     -5.01     -0.23
    1    6    5      3.61      0.29
    3    6    5     -3.00      0.70
    5    6    5      4.18      0.77
    0    7    5     14.33      1.24
    2    7    5      4.75      0.97
    4    7    5      2.16      0.13
    6    7    5      1.82     -0.02
    1    8    5      5.66     -0.46
    3    8    5     -2.83      0.78
    5    8    5      1.05      0.37
    7    8    5      2.37     -0.58
    0    9    5      4.97      1.93
    2    9    5      0.75      1.14
    4    9    5      1.83      0.43
    6    9    5      3.82      0.25
    8    9    5     -1.81      0.73
    1   10    5      2.31      0.33
    3   10    5      0.24     -0.51
    5   10    5     -1.64     -0.07
    7   10    5     -3.98      0.44
    9   10    5     -2.00     -0.10
    0   11    5     -2.77      0.43
    2   11    5     -1.49      0.00
    4   11    5     -0.07     -0.20
    6   11    5      0.50     -0.17
    8   11    5     -2.62      0.18
   10   11    5      1.70      0.14
    1   12    5      4.55      0.20
    3   12    5      0.02     -0.30
    5   12    5     -2.14     -0.33
    7   12    5     -0.47      0.16
    9   12    5      0.90     -0.27
   11   12    5     -3.57     -0.13
    0   13    5     -3.29     -0.14
    2   13    5      0.51     -0.11
    4   13    5      1.44      0.11
    6   13    5      2.25      0.22
    8   13    5      0.10      0.14
   10   13    5     -2.50      0.30
    1   14    5      3.22     -0.02
    3   14    5     -1.19      0.00
    5   14    5     -0.22     -0.02
    7   14    5      2.20      0.23
    9   14    5      1.92      0.02
    0   15    5      1.83     -0.20
    2   15    5     -1.70     -0.45
    4   15    5     -0.35     -0.01
    6   15    5     -0.25     -0.46
    8   15    5     -0.23      0.02
    1   16    5     -3.33      0.17
    3   16    5      0.94      0.22
    5   16    5      0.78      0.49
    0    0    6     22.73      0.01
    1    1    6      4.56     -0.65
    0    2    6     -0.14     -0.13
    2    2    6     -3.20     -0.80
    1    3    6      0.81     -0.80
    3    3    6      3.17     -0.32
    0    4    6     -7.07      0.59
    2    4    6     -4.32     -0.65
    4    4    6     12.57     -0.62
    1    5    6     -4.79      0.63
    3    5    6      7.43      0.73
    5    5    6      6.82      1.10
    0    6    6      1.17      0.16
    2    6    6      3.09      0.38
    4    6    6      2.48     -0.16
    6    6    6     -1.73     -0.33
    1    7    6     -9.07     -0.72
    3    7    6      2.61      0.27
    5    7    6     -0.47      0.66
    7    7    6      2.98      0.53
    0    8    6     -3.35     -0.53
    2    8    6      4.89      0.36
    4    8    6      1.15      0.35
    6    8    6     -1.67      0.38
    8    8    6     -0.82     -0.75
    1    9    6     -1.99     -0.42
    3    9    6      1.25     -0.07
    5    9    6     -0.10     -0.41
    7    9    6     -1.87     -0.27
    9    9    6      1.24     -0.28
    0   10    6      1.89     -0.17
    2   10    6      2.79      0.77
    4   10    6     -1.46      0.79
    6   10    6     -0.64      0.12
    8   10    6      7.27     -1.21
   10   10    6     -1.99     -0.56
    1   11    6      1.14      0.52
    3   11    6      3.57     -0.06
    5   11    6      1.92     -0.57
    7   11    6     -0.07     -0.25
    9   11    6     -3.86     -0.02
   11   11    6      1.77      0.08
    0   12    6     -0.42     -0.19
    2   12    6     -2.82      0.16
    4   12    6     -0.89      0.20
    6   12    6     -0.02      0.24
    8   12    6      1.34      0.00
   10   12    6      1.98      0.09
    1   13    6      1.38      0.03
    3   13    6      2.05     -0.41
    5   13    6     -1.00     -0.35
    7   13    6     -2.19     -0.55
    9   13    6      1.10      0.06
    0   14    6     -3.37     -0.10
    2   14    6     -1.15      0.17
    4   14    6     -0.58     -0.11
    6   14    6     -2.65      0.22
    8   14    6     -1.48      0.03
    1   15    6     -1.28      0.15
    3   15    6      0.17      0.70
    5   15    6      1.01      0.57
    7   15    6     -0.68      0.08
    0   16    6     -2.19     -0.15
    2   16    6      3.49     -0.04
    4   16    6     -2.64     -0.67
    0    1    7    -28.14     -0.81
    1    2    7     -8.65     -0.25
    0    3    7     -8.23     -0.97
    2    3    7      8.98     -0.30
    1    4    7      6.15      0.76
    3    4    7      4.52      0.44
    0    5    7     -2.64     -1.37
    2    5    7      3.49     -0.54
    4    5    7     -4.45      0.45
    1    6    7     -6.99     -0.13
    3    6    7     -1.38      0.93
    5    6    7      1.25      0.28
    0    7    7     -3.78      0.20
    2    7    7     -2.36     -0.41
    4    7    7      3.32     -0.25
    6    7    7     -3.01      0.10
    1    8    7     -3.46      0.03
    3    8    7     -3.37      0.13
    5    8    7     -1.12      0.40
    7    8    7      1.33      0.21
    0    9    7     -1.33      0.49
    2    9    7     -1.00     -0.33
    4    9    7      6.21      0.08
    6    9    7      4.36     -0.33
    8    9    7     -0.20      0.70
    1   10    7     -1.27     -0.53
    3   10    7      2.67     -0.08
    5   10    7      1.57      0.21
    7   10    7     -1.41      0.34
    9   10    7      0.65      0.23
    0   11    7     -4.28      0.03
    2   11    7      0.75      0.01
    4   11    7      3.25      0.54
    6   11    7      1.51     -0.22
    8   11    7     -2.02      0.39
   10   11    7      2.44      0.01
    1   12    7      3.50     -0.33
    3   12    7      1.55     -0.05
    5   12    7     -1.55     -0.09
    7   12    7     -1.73     -0.34
    9   12    7      0.13     -0.61
   11   12    7     -5.41     -0.44
    0   13    7     -7.12      0.30
    2   13    7     -0.55      0.40
    4   13    7      0.30      0.49
    6   13    7     -0.17      0.37
    8   13    7     -2.93      0.15
   10   13    7     -5.10      0.00
    1   14    7      1.28     -0.09
    3   14    7     -0.11     -0.13
    5   14    7     -0.25     -0.25
    7   14    7      1.14     -0.03
    9   14    7     -0.60     -0.22
    0   15    7      2.84     -0.14
    2   15    7     -2.06     -0.68
    4   15    7      0.45     -0.30
    6   15    7     -1.47     -0.41
    1   16    7     -1.23      0.20
    3   16    7      3.01      0.15
    5   16    7      0.11      0.15
    0    0    8      0.64     -0.01
    1    1    8     -0.70      0.65
    0    2    8      0.77      1.15
    2    2    8     -9.87      0.61
    1    3    8     -3.43     -0.19
    3    3    8    -11.19     -0.30
    0    4    8     -8.90      0.20
    2    4    8    -10.53     -0.49
    4    4    8      5.11     -0.42
    1    5    8     -5.65     -0.19
    3    5    8     -1.84     -1.59
    5    5    8     -1.69     -0.59
    0    6    8      5.63      0.33
    2    6    8     -0.56     -0.35
    4    6    8     -4.67     -1.23
    6    6    8     -2.76     -0.52
    1    7    8      1.35     -0.15
    3    7    8     -0.96     -0.33
    5    7    8     -2.59     -0.13
    7    7    8      0.50     -0.21
    0    8    8      1.22     -0.09
    2    8    8      3.52      0.16
    4    8    8     -1.73     -0.20
    6    8    8     -1.73     -0.22
    8    8    8     -2.86     -0.47
    1    9    8     -0.18     -0.25
    3    9    8     -1.22      0.06
    5    9    8     -1.00      0.35
    7    9    8     -1.63      0.42
    9    9    8      1.17      0.62
    0   10    8      5.16     -0.11
    2   10    8      2.15     -0.13
    4   10    8     -4.40      0.07
    6   10    8     -1.37      0.64
    8   10    8      6.03     -0.52
   10   10    8     -2.25      0.05
    1   11    8      1.62      0.19
    3   11    8     -0.23     -0.11
    5   11    8     -0.63     -0.01
    7   11    8      1.63      0.40
    9   11    8     -2.10      0.21
   11   11    8      0.74      0.21
    0   12    8      1.31     -0.01
    2   12    8     -3.21      0.36
    4   12    8      0.27      0.57
    6   12    8      3.29      0.33
    8   12    8      2.76      0.05
   10   12    8      0.15      0.08
    1   13    8      2.85     -0.01
    3   13    8      0.63     -0.20
    5   13    8     -0.08     -0.28
    7   13    8      1.49     -0.27
    9   13    8      1.99     -0.02
    0   14    8      0.13     -0.03
    2   14    8     -0.02      0.29
    4   14    8      0.04      0.30
    6   14    8      0.29      0.02
    8   14    8      1.46     -0.13
    1   15    8      1.99      0.21
    3   15    8      0.69      0.44
    5   15    8      1.99      0.00
    7   15    8      1.32     -0.13
    0   16    8     -1.90     -0.06
    2   16    8      3.42      0.11
    4   16    8     -3.14     -0.28
    0    1    9     14.15      0.17
    1    2    9     -0.91     -0.53
    0    3    9     -4.47      0.36
    2    3    9     -4.17     -0.32
    1    4    9      0.87      0.26
    3    4    9    -10.42      0.06
    0    5    9      9.33      0.14
    2    5    9     -0.24      0.15
    4    5    9     -7.94      0.50
    1    6    9      0.45      0.07
    3    6    9      0.04      0.53
    5    6    9      3.55      0.12
    0    7    9      2.29     -0.71
    2    7    9     -0.70     -0.47
    4    7    9      0.15     -0.25
    6    7    9      0.22      0.40
    1    8    9      1.50      0.23
    3    8    9     -3.79     -0.31
    5    8    9     -0.71      0.00
    7    8    9      2.44      0.12
    0    9    9      0.52     -0.10
    2    9    9     -4.38     -0.22
    4    9    9     -2.72     -0.55
    6    9    9     -1.80     -0.26
    8    9    9     -3.76      0.01
    1   10    9     -5.85      0.28
    3   10    9     -3.47      0.31
    5   10    9     -0.68     -0.04
    7   10    9     -3.32      0.03
    9   10    9     -2.19     -0.20
    0   11    9     -4.03     -0.32
    2   11    9     -2.74      0.36
    4   11    9     -0.88     -0.08
    6   11    9     -0.18     -0.16
    8   11    9     -2.37      0.16
   10   11    9      3.37     -0.09
    1   12    9      0.93     -0.45
    3   12    9     -1.10     -0.27
    5   12    9     -1.73      0.23
    7   12    9     -1.95      0.11
    9   12    9      3.66      0.01
    0   13    9     -2.38      0.11
    2   13    9      1.14      0.22
    4   13    9      1.00     -0.13
    6   13    9      0.31      0.04
    8   13    9      0.56      0.33
    1   14    9      0.92     -0.28
    3   14    9     -0.33     -0.10
    5   14    9      1.50      0.05
    7   14    9     -0.15      0.09
    0   15    9      1.20      0.37
    2   15    9     -2.87     -0.15
    4   15    9      0.00     -0.01
    6   15    9     -1.22      0.03
    1   16    9     -1.78     -0.03
    3   16    9      0.36     -0.06
    0    0   10      1.51      0.00
    1    1   10      4.35      0.94
    0    2   10     10.08      0.40
    2    2   10      8.79      1.48
    1    3   10     11.82      0.71
    3    3   10      3.45      1.06
    0    4   10     -2.18     -0.19
    2    4   10      5.62      0.80
    4    4   10      9.73      0.42
    1    5   10     -0.59     -0.09
    3    5   10      2.32     -0.23
    5    5   10      0.90     -0.49
    0    6   10     -0.31      0.24
    2    6   10      0.65      0.34
    4    6   10      0.83     -0.02
    6    6   10      3.57     -0.15
    1    7   10      0.89      0.22
    3    7   10      0.04      0.09
    5    7   10      0.44     -0.39
    7    7   10      0.24     -0.21
    0    8   10     -2.54      0.40
    2    8   10     -0.15      0.11
    4    8   10      1.19      0.29
    6    8   10      0.81     -0.34
    8    8   10     -0.60      0.07
    1    9   10      0.47     -0.05
    3    9   10      1.52      0.18
    5    9   10      3.16      0.10
    7    9   10      2.28     -0.18
    9    9   10      2.56      0.30
    0   10   10      2.67     -0.01
    2   10   10      1.28     -0.80
    4   10   10     -1.03     -0.10
    6   10   10      0.67     -0.04
    8   10   10      3.66      0.11
   10   10   10     -0.63      0.25
    1   11   10     -0.45     -0.14
    3   11   10     -0.75     -0.38
    5   11   10     -0.55     -0.19
    7   11   10      1.21      0.06
    9   11   10     -1.14      0.34
    0   12   10     -1.82      0.18
    2   12   10     -3.66     -0.42
    4   12   10      0.20     -0.01
    6   12   10      2.67     -0.05
    8   12   10     -1.80     -0.14
   10   12   10     -2.83      0.13
    1   13   10     -0.84      0.38
    3   13   10     -1.93     -0.25
    5   13   10     -1.45      0.22
    7   13   10      0.74      0.32
    9   13   10     -0.80      0.03
    0   14   10     -1.13      0.01
    2   14   10     -1.42      0.00
    4   14   10     -0.75      0.09
    6   14   10      0.43      0.32
    1   15   10     -1.86      0.15
    3   15   10      0.55     -0.04
    5   15   10     -0.21     -0.06
    0    1   11    -10.64     -0.13
    1    2   11     -3.73     -0.27
    0    3   11     -4.28      0.28
    2    3   11      3.13     -0.72
    1    4   11      1.78     -0.08
    3    4   11      6.98      0.20
    0    5   11      5.88      0.54
    2    5   11      0.36      0.15
    4    5   11      3.13      0.39
    1    6   11     -1.56     -0.29
    3    6   11      4.18     -0.24
    5    6   11     -0.47      0.32
    0    7   11     -0.06     -0.47
    2    7   11      3.49      0.11
    4    7   11      2.75      0.08
    6    7   11     -1.99      0.25
    1    8   11      2.80      0.16
    3    8   11      3.37     -0.10
    5    8   11      1.85     -0.07
    7    8   11      1.88     -0.22
    0    9   11      1.42     -0.20
    2    9   11      3.80     -0.07
    4    9   11      2.96     -0.36
    6    9   11     -1.35      0.17
    8    9   11     -0.93     -0.27
    1   10   11      1.63      0.21
    3   10   11      4.27      0.26
    5   10   11      1.88     -0.28
    7   10   11     -0.33     -0.22
    9   10   11      1.43     -0.34
    0   11   11      0.95      0.11
    2   11   11      3.53      0.59
    4   11   11      1.88     -0.36
    6   11   11     -0.36     -0.17
    8   11   11     -0.46     -0.10
   10   11   11     -0.83     -0.10
    1   12   11      2.68     -0.05
    3   12   11      2.68      0.22
    5   12   11     -0.54      0.12
    7   12   11     -1.18      0.07
    9   12   11      2.54     -0.01
    0   13   11     -3.52     -0.07
    2   13   11      1.26      0.15
    4   13   11      1.16     -0.22
    6   13   11     -2.46     -0.65
    8   13   11      0.11      0.03
    1   14   11     -0.80     -0.51
    3   14   11     -0.52      0.42
    5   14   11      1.10      0.07
    7   14   11     -1.07      0.12
    0   15   11      1.21      0.08
    2   15   11      1.09     -0.11
    4   15   11      0.59     -0.09
    0    0   12     13.03     -0.01
    1    1   12     -5.19     -0.29
    0    2   12     -2.10     -0.57
    2    2   12     -5.01      0.12
    1    3   12     -0.65      0.09
    3    3   12     -2.93      0.10
    0    4   12     -7.65      0.18
    2    4   12      1.71      0.11
    4    4   12     -1.49     -0.35
    1    5   12     -0.01     -0.03
    3    5   12      2.12      0.07
    5    5   12      0.72     -0.01
    0    6   12     -2.89     -0.05
    2    6   12      0.41      0.34
    4    6   12     -0.92      0.39
    6    6   12      2.66     -0.09
    1    7   12     -3.46     -0.22
    3    7   12     -1.34     -0.06
    5    7   12     -1.62     -0.45
    7    7   12     -2.79      0.05
    0    8   12     -1.94     -0.21
    2    8   12     -1.72     -0.24
    4    8   12     -1.18      0.01
    6    8   12     -1.05     -0.22
    8    8   12      1.37      0.12
    1    9   12     -1.90      0.54
    3    9   12     -0.49     -0.15
    5    9   12     -0.73     -0.27
    7    9   12      0.26     -0.11
    9    9   12     -2.04      0.03
    0   10   12      1.95     -0.17
    2   10   12      0.26     -0.28
    4   10   12     -0.89      0.22
    6   10   12     -0.27      0.18
    8   10   12      0.50      0.36
   10   10   12     -2.59     -0.18
    1   11   12      0.87     -0.34
    3   11   12      2.31     -0.14
    5   11   12      0.51     -0.04
    7   11   12      0.24     -0.02
    9   11   12     -1.46     -0.05
    0   12   12      0.30     -0.27
    2   12   12     -0.90     -0.40
    4   12   12     -0.11      0.20
    6   12   12      0.19     -0.10
    8   12   12     -2.04     -0.03
    1   13   12      2.39      0.10
    3   13   12      1.04     -0.22
    5   13   12     -0.16      0.04
    7   13   12      1.09      0.09
    0   14   12      3.08     -0.07
    2   14   12      0.91     -0.36
    4   14   12     -1.36     -0.31
    6   14   12     -1.28     -0.12
    1   15   12     -1.53      0.25
    3   15   12      1.00      0.01
    0    1   13     -0.18     -0.09
    1    2   13      8.05      0.03
    0    3   13      1.04     -0.50
    2    3   13     -2.60     -0.67
    1    4   13      1.42     -0.92
    3    4   13     -4.50      0.26
    0    5   13      4.26      0.17
    2    5   13     -7.16     -0.08
    4    5   13     -3.71     -0.12
    1    6   13      1.18     -0.11
    3    6   13     -2.96     -0.36
    5    6   13     -1.38      0.12
    0    7   13      2.23      0.52
    2    7   13     -0.02      0.34
    4    7   13     -0.45      0.08
    6    7   13      2.39      0.05
    1    8   13      0.30     -0.29
    3    8   13     -4.76      0.31
    5    8   13      0.65      0.34
    7    8   13      0.86      0.03
    0    9   13     -0.45     -0.92
    2    9   13     -1.34     -0.58
    4    9   13      0.79      0.20
    6    9   13      1.08     -0.04
    8    9   13     -1.76     -0.18
    1   10   13     -2.26     -0.58
    3   10   13     -3.19      0.25
    5   10   13     -0.28      0.10
    7   10   13      0.02     -0.59
    9   10   13      2.59     -0.22
    0   11   13     -1.81      0.32
    2   11   13     -3.08      0.34
    4   11   13     -2.21     -0.11
    6   11   13      1.31     -0.12
    8   11   13     -0.56     -0.22
    1   12   13      2.47      0.24
    3   12   13     -0.78     -0.16
    5   12   13      0.38      0.14
    7   12   13      0.90     -0.16
    0   13   13      0.63      0.32
    2   13   13      0.01      0.22
    4   13   13     -0.35     -0.13
    6   13   13     -0.31     -0.28
    1   14   13      1.92      0.11
    3   14   13      0.09      0.32
    5   14   13      2.49      0.13
    0    0   14     19.12     -0.01
    1    1   14     -1.26      0.05
    0    2   14     -0.40     -0.44
    2    2   14     -5.22     -0.06
    1    3   14     -1.62      0.25
    3    3   14     -3.22     -0.51
    0    4   14     -4.75      0.38
    2    4   14     -1.12      0.08
    4    4   14     -3.12     -0.62
    1    5   14     -0.93      0.01
    3    5   14      0.90     -0.39
    5    5   14      2.11     -0.05
    0    6   14      0.21     -0.43
    2    6   14      0.29     -0.25
    4    6   14      0.04      0.03
    6    6   14      0.57      0.13
    1    7   14      0.97      0.00
    3    7   14      1.82     -0.16
    5    7   14     -0.13     -0.02
    7    7   14     -2.50      0.26
    0    8   14      1.52      0.24
    2    8   14      2.02      0.23
    4    8   14      0.94     -0.03
    6    8   14     -1.65      0.43
    8    8   14      2.30     -0.27
    1    9   14     -0.01      1.62
    3    9   14     -1.06      0.09
    5    9   14     -1.83     -0.05
    7    9   14     -0.06      0.30
    9    9   14     -1.33      0.10
    0   10   14      2.39      0.59
    2   10   14      1.28      0.58
    4   10   14     -1.43     -0.03
    6   10   14     -0.65      0.41
    8   10   14      0.91      0.16
    1   11   14      0.66      0.05
    3   11   14      0.45      0.00
    5   11   14     -0.16     -0.23
    7   11   14      0.18      0.15
    0   12   14     -2.23     -0.17
    2   12   14     -1.00      0.08
    4   12   14     -0.07      0.17
    6   12   14     -0.32      0.01
    1   13   14     -1.14     -0.26
    3   13   14     -0.03     -0.04
    5   13   14      1.47     -0.06
    2   14   14     -1.43     -0.22
    0    1   15     -6.33      0.24
    1    2   15      1.08      0.27
    0    3   15     -1.49      0.54
    2    3   15      1.60      0.06
    1    4   15      1.74     -0.29
    3    4   15      4.30      0.00
    0    5   15      2.48      0.12
    2    5   15      1.08      0.09
    4    5   15      0.72      0.00
    1    6   15     -0.06      0.09
    3    6   15      1.17      0.21
    5    6   15     -1.82      0.21
    0    7   15     -0.75      0.37
    2    7   15      0.51      0.17
    4    7   15     -1.69      0.15
    6    7   15      0.37     -0.17
    1    8   15      0.80     -0.06
    3    8   15     -0.09      0.38
    5    8   15      0.27      0.08
    7    8   15      0.14      0.12
    0    9   15      1.13     -0.24
    2    9   15      1.40     -0.44
    4    9   15      1.93      0.15
    6    9   15     -0.28     -0.15
    8    9   15     -1.20      0.20
    1   10   15     -1.86     -0.35
    3   10   15      2.06      0.03
    5   10   15     -0.58      0.25
    7   10   15     -1.56      0.07
    0   11   15     -0.93      0.29
    2   11   15     -0.41     -0.02
    4   11   15      0.94     -0.04
    6   11   15     -0.13      0.00
    8   11   15     -1.46      0.22
    1   12   15     -1.68      0.27
    3   12   15      0.65     -0.16
    5   12   15     -0.57      0.16
    7   12   15     -1.79      0.11
    0   13   15     -1.88      0.24
    2   13   15     -1.26      0.17
    4   13   15     -0.07      0.23
    0    0   16     -0.32     -0.04
    1    1   16     -1.32      0.29
    0    2   16     -0.21     -0.02
    2    2   16      3.41     -0.16
    1    3   16      3.83     -0.16
    3    3   16      2.99      0.06
    0    4   16      0.25     -0.02
    2    4   16      2.97      0.52
    4    4   16      1.94      0.61
    1    5   16     -0.25     -0.02
    3    5   16      1.11      0.07
    5    5   16      0.48     -0.13
    0    6   16     -1.82     -0.17
    2    6   16     -0.68     -0.11
    4    6   16      1.56     -0.21
    6    6   16     -0.15     -0.15
    1    7   16     -2.07     -0.08
    3    7   16      0.36     -0.11
    5    7   16     -0.50     -0.15
    7    7   16     -1.96      0.00
    0    8   16     -4.98     -0.70
    2    8   16     -2.26     -0.34
    4    8   16      1.32     -0.29
    6    8   16     -2.01      0.15
    8    8   16     -0.22      0.08
    1    9   16     -0.72     -0.13
    3    9   16     -1.31     -0.12
    5    9   16      0.42     -0.09
    7    9   16      1.11     -0.03
    0   10   16      0.01     -0.42
    2   10   16      0.22     -0.03
    4   10   16      0.35      0.00
    6   10   16      1.74     -0.12
    8   10   16      0.47     -0.05
    1   11   16      0.39     -0.29
    3   11   16     -0.85      0.15
    5   11   16     -0.20      0.22
    7   11   16      0.81      0.20
    0   12   16      1.09     -0.22
    2   12   16      1.64     -0.01
    4   12   16      0.02      0.06
    1   13   16      2.46     -0.27
    3   13   16     -0.34     -0.02
    0    1   17      0.85     -0.38
    1    2   17     -1.54      0.04
    0    3   17     -1.54      0.10
    2    3   17     -2.99      0.32
    1    4   17     -2.11      0.28
    3    4   17     -2.28     -0.15
    0    5   17      0.48      0.24
    2    5   17     -1.27      0.37
    4    5   17     -0.94      0.19
    1    6   17     -1.04      0.01
    3    6   17     -1.21      0.20
    5    6   17      0.94      0.15
    0    7   17      1.90      0.06
    2    7   17      0.86     -0.11
    4    7   17     -1.92     -0.04
    6    7   17      1.25     -0.09
    1    8   17      0.79      0.18
    3    8   17     -0.65      0.14
    5    8   17      1.80     -0.14
    7    8   17      1.11     -0.18
    0    9   17     -0.42      0.21
    2    9   17     -0.22      0.02
    4    9   17     -1.43      0.02
    6    9   17     -0.22      0.15
    8    9   17     -0.63     -0.18
    1   10   17     -1.01     -0.12
    3   10   17      0.12     -0.03
    5   10   17     -0.24      0.09
    7   10   17     -0.52      0.08
    0   11   17      1.81      0.00
    2   11   17      0.58      0.01
    4   11   17     -0.53     -0.03
    6   11   17      0.19      0.00
    1   12   17     -0.84      0.07
    3   12   17     -1.07      0.09
    0    0   18      1.57     -0.02
    1    1   18     -0.67      0.06
    0    2   18     -2.43      0.30
    2    2   18     -3.95     -0.29
    1    3   18     -2.96     -0.03
    3    3   18     -5.17     -0.05
    0    4   18     -3.48     -0.26
    2    4   18     -4.07     -0.10
    4    4   18     -1.20      0.23
    1    5   18     -0.76     -0.07
    3    5   18     -1.61     -0.32
    5    5   18     -2.37     -0.26
    0    6   18      1.21      0.20
    2    6   18     -0.31      0.06
    4    6   18     -0.21     -0.01
    6    6   18      0.85      0.02
    1    7   18     -0.09      0.09
    3    7   18      0.14      0.09
    5    7   18     -1.50      0.29
    7    7   18      0.90      0.08
    0    8   18      0.87     -0.15
    2    8   18     -0.17     -0.25
    4    8   18      0.58     -0.12
    6    8   18     -1.31     -0.04
    8    8   18      0.56      0.22
    1    9   18      2.10     -0.06
    3    9   18     -0.02     -0.06
    5    9   18     -1.31     -0.05
    7    9   18      0.16     -0.07
    0   10   18      0.54      0.24
    2   10   18     -0.67     -0.04
    4   10   18     -0.12     -0.07
    6   10   18     -0.25     -0.38
    1   11   18     -1.19      0.15
    3   11   18      0.10     -0.12
    5   11   18     -1.19      0.03
    0    1   19      0.55      0.05
    1    2   19      1.95      0.05
    0    3   19      2.40     -0.12
    2    3   19      3.12     -0.27
    1    4   19      2.87      0.09
    3    4   19      0.55     -0.15
    0    5   19      0.88     -0.08
    2    5   19      0.87      0.07
    4    5   19     -1.06      0.20
    1    6   19     -0.90     -0.27
    3    6   19     -0.18     -0.01
    5    6   19      0.58      0.05
    0    7   19      1.16     -0.01
    2    7   19      0.90      0.05
    4    7   19      0.36     -0.09
    6    7   19     -0.73     -0.08
    1    8   19     -0.58      0.23
    3    8   19     -0.58      0.05
    5    8   19      1.99     -0.06
    7    8   19     -0.20     -0.11
    0    9   19     -1.08      0.15
    2    9   19     -0.15      0.24
    4    9   19      0.32      0.06
    6    9   19      0.64      0.20
    1   10   19      0.05      0.12
    3   10   19      0.06     -0.02
    5   10   19      0.65     -0.19
    0    0   20      3.74      0.00
    1    1   20      2.72     -0.15
    0    2   20      2.70     -0.08
    2    2   20      4.46      0.16
    1    3   20      3.99      0.20
    3    3   20      4.12      0.25
    0    4   20      0.27     -0.34
    2    4   20      2.83     -0.17
    4    4   20      7.00     -0.19
    1    5   20      2.05     -0.15
    3    5   20      3.10     -0.16
    5    5   20      1.87     -0.34
    0    6   20      1.35     -0.01
    2    6   20      1.49      0.00
    4    6   20      1.22     -0.22
    6    6   20      1.80     -0.24
    1    7   20     -0.14      0.02
    3    7   20      1.20      0.13
    5    7   20      0.03      0.07
    7    7   20      1.72      0.05
    0    8   20      0.74      0.37
    2    8   20      0.96      0.31
    4    8   20      0.49      0.05
    6    8   20      0.01     -0.11
    1    9   20      0.79     -0.03
    3    9   20      0.77      0.02
    5    9   20      0.26     -0.01
    2   10   20      0.47     -0.14
    0    1   21     -2.22     -0.10
    1    2   21     -2.06     -0.19
    0    3   21     -1.19     -0.21
    2    3   21     -1.19     -0.37
    1    4   21     -0.46      0.05
    3    4   21     -0.74     -0.06
    0    5   21      0.73      0.17
    2    5   21      1.25     -0.04
    4    5   21     -0.87     -0.14
    1    6   21      0.06     -0.02
    3    6   21      1.63      0.01
    5    6   21      0.63      0.17
    0    7   21      0.46     -0.11
    2    7   21      0.69     -0.16
    4    7   21     -0.40     -0.14
    6    7   21     -1.57      0.08
    1    8   21     -0.17     -0.41
    3    8   21      0.17     -0.33
    2    9   21      0.37     -0.10
    0    0   22      1.64      0.00
    1    1   22     -1.73     -0.03
    0    2   22     -1.97      0.00
    2    2   22     -1.74      0.11
    1    3   22     -0.11      0.20
    3    3   22     -3.96      0.15
    0    4   22     -1.34      0.04
    2    4   22     -2.38     -0.02
    4    4   22      0.57      0.34
    1    5   22     -1.04      0.16
    3    5   22     -3.79      0.27
    5    5   22     -2.11      0.25
    0    6   22     -0.37     -0.05
    2    6   22     -2.59      0.00
    4    6   22     -1.36      0.18
    1    7   22     -0.48     -0.08
    3    7   22     -0.36     -0.05
    0    1   23      2.02     -0.06
    1    2   23      1.08     -0.02
    0    3   23     -1.18      0.04
    2    3   23     -0.37      0.01
    1    4   23     -1.54     -0.02
    3    4   23      0.09     -0.04
    0    5   23     -0.58      0.01
    2    5   23      0.76     -0.07
    4    5   23     -1.10     -0.37
    1    6   23     -0.70     -0.02
    1    1   24     -2.69      0.16
    0    2   24     -0.88      0.05
    2    2   24      1.30      0.16
    1    3   24      1.81      0.05
    0    4   24     -0.18      0.06
    0    0    0      0.00      0.00
loop_
  _platon_squeeze_void_nr
  _platon_squeeze_void_average_x
  _platon_squeeze_void_average_y
  _platon_squeeze_void_average_z
  _platon_squeeze_void_volume
  _platon_squeeze_void_count_electrons
  _platon_squeeze_void_content
   1  0.000  0.000  0.500       926       165 ' '
   2  0.500  0.500  0.000       926       165 ' '
_platon_squeeze_details
TITL FJU-14-BF4 I 4/m m m    R = 0.09
CELL   14.1125   14.1125   19.8583     90.00     90.00     90.00
SPGR I4/mmm
Q101 0.500 0.031-0.002 !       2.38 eA-3
C102 0.999 0.990 0.204 !       2.32 eA-3
C103 1.000 0.131 0.236 !       1.51 eA-3
Q104 0.110 0.500-0.008 !       1.32 eA-3
C105 0.500 0.568 0.245 !       1.30 eA-3
C106 0.999 1.007 0.251 !       1.29 eA-3
Q107 0.421 0.875 0.000 !       1.17 eA-3
C108 0.032 0.998 0.298 !       1.11 eA-3
Q109 1.000 1.000-0.001 !       1.05 eA-3
C110 0.558 0.567 0.185 !       1.04 eA-3
C111 0.328 0.328 0.000 !       0.98 eA-3
C112 0.641 0.812-0.003 !       0.93 eA-3
Q113 0.167 0.828 0.005 !       0.87 eA-3
C114 0.595 0.375-0.001 !       0.86 eA-3
C115 0.752 0.376 0.062 !       0.78 eA-3
Q116 0.951 0.359 0.001 !       0.74 eA-3
Q117 0.998 0.611 0.345 !       0.71 eA-3
C118 0.536 0.626 0.154 !       0.69 eA-3
C119 0.282 0.281 0.000 !       0.67 eA-3
Q120 1.000 0.405 0.045 !       0.67 eA-3
C121 0.010 0.112 0.281 !       0.66 eA-3
Q122 0.671 0.581 0.433 !       0.64 eA-3
C123 0.498 0.863 0.075 !       0.64 eA-3
C124 0.816 0.784 0.459 !       0.64 eA-3
C125 0.315 0.547 0.004 !       0.63 eA-3
Q126 0.373 0.989 0.576 !       0.63 eA-3
C127 0.503 0.499 0.127 !       0.59 eA-3
C128 0.551 0.547 0.002 !       0.56 eA-3
Q129 0.980 0.688-0.003 !       0.55 eA-3
Q130 0.825 0.167 0.176 !       0.55 eA-3
C131 0.409 0.589 0.153 !       0.54 eA-3
Q132 0.175 0.672 0.253 !       0.54 eA-3
Q133 1.000 0.500 0.250 !       0.53 eA-3
C134 0.392 0.501 0.140 !       0.52 eA-3
Q135 0.452 0.087 0.077 !       0.52 eA-3
Q136 0.455 0.997 0.094 !       0.52 eA-3
Q137 0.406 0.452 0.488 !       0.51 eA-3
;
_olex2_submission_special_instructions 'No special instructions were received'
loop_
_space_group_symop_operation_xyz
'x, y, z'
'-y, x, z'
'-x, -y, z'
'y, -x, z'
'x, -y, -z'
'-x, y, -z'
'y, x, -z'
'-y, -x, -z'
'x+1/2, y+1/2, z+1/2'
'-y+1/2, x+1/2, z+1/2'
'-x+1/2, -y+1/2, z+1/2'
'y+1/2, -x+1/2, z+1/2'
'x+1/2, -y+1/2, -z+1/2'
'-x+1/2, y+1/2, -z+1/2'
'y+1/2, x+1/2, -z+1/2'
'-y+1/2, -x+1/2, -z+1/2'
'-x, -y, -z'
'y, -x, -z'
'x, y, -z'
'-y, x, -z'
'-x, y, z'
'x, -y, z'
'-y, -x, z'
'y, x, z'
'-x+1/2, -y+1/2, -z+1/2'
'y+1/2, -x+1/2, -z+1/2'
'x+1/2, y+1/2, -z+1/2'
'-y+1/2, x+1/2, -z+1/2'
'-x+1/2, y+1/2, z+1/2'
'x+1/2, -y+1/2, z+1/2'
'-y+1/2, -x+1/2, z+1/2'
'y+1/2, x+1/2, z+1/2'
loop_
_atom_site_label
_atom_site_type_symbol
_atom_site_fract_x
_atom_site_fract_y
_atom_site_fract_z
_atom_site_U_iso_or_equiv
_atom_site_adp_type
_atom_site_occupancy
_atom_site_site_symmetry_order
_atom_site_calc_flag
_atom_site_refinement_flags_posn
_atom_site_refinement_flags_adp
_atom_site_refinement_flags_occupancy
_atom_site_disorder_assembly
_atom_site_disorder_group
Cu1 Cu 0.5000 0.32074(7) 0.5000 0.0161(4) Uani 1 4 d DS TU P . .
Cl1 Cl 0.5000 0.5000 0.5000 0.0286(8) Uani 1 16 d S TU P A .
N2 N 0.6046(9) 0.3264(7) 0.5697(7) 0.020(2) Uani 0.5 1 d . U . A 1
N4 N 0.6972(3) 0.3028(3) 0.6588(3) 0.0286(11) Uani 0.5 2 d S TU P A 1
C1 C 0.6917(4) 0.1917(4) 0.7500 0.0600(17) Uani 1 2 d S TU P . .
H1 H 0.6451 0.1451 0.7500 0.072 Uiso 1 2 calc RS T P B 1
C3 C 0.6580(9) 0.2233(9) 0.6898(6) 0.0600(17) Uani 0.5 1 d . U . A 2
H3 H 0.6082 0.1915 0.6692 0.072 Uiso 0.5 1 calc R . . A 2
C6 C 0.6595(6) 0.3405(6) 0.5959(5) 0.0203(19) Uani 0.5 2 d S TU P A 2
F1 F 0.5000 0.0805(8) 0.6662(7) 0.114(4) Uani 0.75 2 d DS TU P . .
C5 C 0.6174(6) 0.2738(6) 0.6221(4) 0.0297(18) Uani 0.5 1 d . U . A 1
H5 H 0.5787 0.2231 0.6339 0.036 Uiso 0.5 1 calc R . . A 1
C2 C 0.7330(11) 0.2670(11) 0.7191(8) 0.0600(17) Uani 0.5 2 d S TU P A 1
F2 F 0.5000 0.0797(9) 0.7481(9) 0.136(4) Uani 0.75 2 d DS TU P . .
B1 B 0.5000 0.0000 0.7049(12) 0.092(7) Uani 0.75 4 d DS TU P . .
O1 O 0.5890(7) 0.2984(7) 0.5722(6) 0.029(2) Uani 0.5 1 d . U . A 2
C18A C 0.6972(3) 0.3028(3) 0.6588(3) 0.0286(11) Uani 0.5 2 d S TU P A 2
OW O 0.5000 0.1555(12) 0.5000 0.091(5) Uani 0.50(2) 4 d DS TU P A 1
OWA O 0.5000 0.0814(19) 0.5000 0.091(5) Uani 0.50(2) 4 d S TU P A 2
loop_
_atom_site_aniso_label
_atom_site_aniso_U_11
_atom_site_aniso_U_22
_atom_site_aniso_U_33
_atom_site_aniso_U_23
_atom_site_aniso_U_13
_atom_site_aniso_U_12
Cu1 0.0170(6) 0.0253(6) 0.0060(5) 0.000 0.000 0.000
Cl1 0.0204(11) 0.0204(11) 0.045(2) 0.000 0.000 0.000
N2 0.024(4) 0.020(4) 0.016(3) 0.008(3) -0.004(3) -0.005(3)
N4 0.0319(17) 0.0319(17) 0.022(2) 0.0091(15) -0.0091(15) -0.010(2)
C1 0.064(2) 0.064(2) 0.051(3) 0.036(2) -0.036(2) -0.036(3)
C3 0.064(2) 0.064(2) 0.051(3) 0.036(2) -0.036(2) -0.036(3)
C6 0.022(2) 0.022(2) 0.017(3) 0.007(2) -0.007(2) -0.001(3)
F1 0.126(7) 0.093(6) 0.125(7) 0.017(6) 0.000 0.000
C5 0.033(4) 0.034(4) 0.022(3) 0.015(3) -0.014(3) -0.009(3)
C2 0.064(2) 0.064(2) 0.051(3) 0.036(2) -0.036(2) -0.036(3)
F2 0.118(7) 0.128(7) 0.162(8) 0.016(7) 0.000 0.000
B1 0.089(10) 0.084(10) 0.105(11) 0.000 0.000 0.000
O1 0.031(4) 0.031(5) 0.025(3) 0.009(4) -0.010(3) -0.005(3)
C18A 0.0319(17) 0.0319(17) 0.022(2) 0.0091(15) -0.0091(15) -0.010(2)
OW 0.093(5) 0.088(5) 0.092(5) 0.000 0.000 0.000
OWA 0.093(5) 0.088(5) 0.092(5) 0.000 0.000 0.000
loop_
_atom_type_symbol
_atom_type_description
_atom_type_scat_dispersion_real
_atom_type_scat_dispersion_imag
_atom_type_scat_source
C C 0.0181 0.0091 'International Tables Vol C Tables 4.2.6.8 and 6.1.1.4'
H H 0.0000 0.0000 'International Tables Vol C Tables 4.2.6.8 and 6.1.1.4'
B B 0.0090 0.0039 'International Tables Vol C Tables 4.2.6.8 and 6.1.1.4'
Cl Cl 0.3639 0.7018 'International Tables Vol C Tables 4.2.6.8 and 6.1.1.4'
Cu Cu -1.9646 0.5888 'International Tables Vol C Tables 4.2.6.8 and 6.1.1.4'
F F 0.0727 0.0534 'International Tables Vol C Tables 4.2.6.8 and 6.1.1.4'
N N 0.0311 0.0180 'International Tables Vol C Tables 4.2.6.8 and 6.1.1.4'
O O 0.0492 0.0322 'International Tables Vol C Tables 4.2.6.8 and 6.1.1.4'
loop_
_geom_angle_atom_site_label_1
_geom_angle_atom_site_label_2
_geom_angle_atom_site_label_3
_geom_angle
_geom_angle_site_symmetry_1
_geom_angle_site_symmetry_3
N2 Cu1 Cl1 87.7(3) 19_556 .
N2 Cu1 Cl1 87.7(3) 6_656 .
N2 Cu1 Cl1 87.7(3) . .
N2 Cu1 Cl1 87.7(3) 21_655 .
N2 Cu1 N2 93.6(7) 6_656 19_556
N2 Cu1 N2 175.5(6) . 6_656
N2 Cu1 N2 86.3(7) . 19_556
N2 Cu1 N2 93.6(7) . 21_655
N2 Cu1 N2 175.5(6) 19_556 21_655
N2 Cu1 N2 86.3(7) 6_656 21_655
N2 Cu1 OW 92.3(3) 6_656 .
N2 Cu1 OW 92.3(3) 21_655 .
N2 Cu1 OW 92.3(3) . .
N2 Cu1 OW 92.3(3) 19_556 .
O1 Cu1 Cl1 99.4(3) 21_655 .
O1 Cu1 Cl1 99.4(3) 6_656 .
O1 Cu1 Cl1 99.4(3) 19_556 .
O1 Cu1 Cl1 99.4(3) . .
O1 Cu1 O1 95.8(7) 6_656 21_655
O1 Cu1 O1 81.1(6) 21_655 .
O1 Cu1 O1 161.2(6) 6_656 .
O1 Cu1 O1 81.1(6) 6_656 19_556
O1 Cu1 O1 95.8(7) 19_556 .
O1 Cu1 O1 161.2(6) 21_655 19_556
OW Cu1 Cl1 180.0 . .
Cu1 Cl1 Cu1 180.0 . 17_666
Cu1 Cl1 Cu1 90.0 . 18_566
Cu1 Cl1 Cu1 180.0 18_566 2_655
Cu1 Cl1 Cu1 90.0 18_566 17_666
Cu1 Cl1 Cu1 90.0 17_666 2_655
Cu1 Cl1 Cu1 90.0 . 2_655
N2 N2 Cu1 122.9(3) 23_665 .
C5 N2 Cu1 129.1(8) . .
C5 N2 N2 107.9(6) . 23_665
C5 N4 C5 101.4(7) . 23_665
C2 N4 C5 129.2(4) . 23_665
C2 N4 C5 129.2(4) . .
C3 C1 C3 178.3(11) 15_546 .
C2 C1 C2 62.1(10) . 25_656
O1 C6 O1 127.8(13) . 23_665
B1 F1 F2 55.5(8) . .
N2 C5 N4 111.4(8) . .
N4 C2 C2 178(3) . 25_656
C1 C2 N4 121.1(5) . .
C1 C2 N4 121.1(5) 25_656 .
C1 C2 C1 117.9(10) . 25_656
C1 C2 C2 58.9(5) 25_656 25_656
C1 C2 C2 58.9(5) . 25_656
F2 F2 F1 93.0(14) 26_556 .
F2 F2 F1 93.0(14) 28_546 .
F2 F2 F2 89.87(12) 28_546 26_556
B1 F2 F1 130.1(16) 26_556 .
B1 F2 F1 53.1(8) . .
B1 F2 F2 57.8(9) . 26_556
B1 F2 F2 57.8(9) . 28_546
B1 F2 F2 55.0(7) 26_556 28_546
B1 F2 F2 55.0(7) 26_556 26_556
B1 F2 B1 77.0(19) . 26_556
F1 B1 F1 112(2) 3_655 .
F1 B1 F2 111.0(4) . 28_546
F1 B1 F2 111.0(4) . 26_556
F1 B1 F2 111.0(4) 3_655 26_556
F1 B1 F2 176.7(18) . 3_655
F1 B1 F2 111.0(4) 3_655 28_546
F1 B1 F2 176.7(18) 3_655 .
F1 B1 F2 71.4(8) . .
F1 B1 F2 71.4(8) 3_655 3_655
F1 B1 B1 124.1(10) . 26_556
F1 B1 B1 124.1(10) 3_655 26_556
F2 B1 F2 105(2) 3_655 .
F2 B1 F2 67.2(10) 3_655 26_556
F2 B1 F2 101(2) 26_556 28_546
F2 B1 F2 67.2(10) 3_655 28_546
F2 B1 F2 67.2(10) . 28_546
F2 B1 F2 67.2(10) . 26_556
F2 B1 B1 52.6(10) 3_655 26_556
F2 B1 B1 50.3(11) 28_546 26_556
F2 B1 B1 52.6(10) . 26_556
F2 B1 B1 50.3(11) 26_556 26_556
C6 O1 Cu1 136.0(8) . .
loop_
_geom_bond_atom_site_label_1
_geom_bond_atom_site_label_2
_geom_bond_distance
_geom_bond_site_symmetry_2
Cu1 Cl1 2.5298(10) .
Cu1 N2 2.025(13) 21_655
Cu1 N2 2.025(13) .
Cu1 N2 2.025(13) 19_556
Cu1 N2 2.025(13) 6_656
Cu1 O1 1.931(11) 21_655
Cu1 O1 1.931(11) 6_656
Cu1 O1 1.931(11) .
Cu1 O1 1.931(11) 19_556
Cu1 OW 2.333(17) .
Cl1 Cu1 2.5298(10) 17_666
Cl1 Cu1 2.5298(11) 2_655
Cl1 Cu1 2.5298(11) 18_566
N2 N2 1.38(2) 23_665
N2 C5 1.290(14) .
N4 C5 1.403(8) 23_665
N4 C5 1.403(8) .
N4 C2 1.394(13) .
C1 C3 1.361(10) 15_546
C1 C3 1.361(10) .
C1 C2 1.359(9) 25_656
C1 C2 1.359(9) .
C6 O1 1.251(10) .
C6 O1 1.251(10) 23_665
F1 F2 1.63(2) .
F1 B1 1.372(14) .
C2 C1 1.359(9) 25_656
C2 C2 1.40(3) 25_656
F2 F2 1.593(18) 28_546
F2 F2 1.593(18) 26_556
F2 B1 1.415(15) .
F2 B1 1.46(2) 26_556
B1 F1 1.372(14) 3_655
B1 F2 1.46(2) 28_546
B1 F2 1.415(15) 3_655
B1 F2 1.46(2) 26_556
B1 B1 1.79(5) 26_556
