#------------------------------------------------------------------------------
#$Date: 2016-02-04 03:23:23 +0200 (Thu, 04 Feb 2016) $
#$Revision: 175668 $
#$URL: svn://www.crystallography.net/cod/cif/4/34/48/4344843.cif $
#------------------------------------------------------------------------------
#
# This file is available in the Crystallography Open Database (COD),
# http://www.crystallography.net/
#
# All data on this site have been placed in the public domain by the
# contributors.
#
data_4344843
loop_
_publ_author_name
'Ye, Yingxiang'
'Xiong, Shunshun'
'Wu, Xiaonan'
'Zhang, Liuqin'
'Li, Ziyin'
'Wang, Lihua'
'Ma, Xiuling'
'Chen, Qian-Huo'
'Zhang, Zhangjing'
'Xiang, Shengchang'
_publ_section_title
;
 Microporous Metal-Organic Framework Stabilized by Balanced Multiple
 Host-Couteranion Hydrogen-Bonding Interactions for High-Density CO2
 Capture at Ambient Conditions.
;
_journal_issue                   1
_journal_name_full               'Inorganic chemistry'
_journal_page_first              292
_journal_paper_doi               10.1021/acs.inorgchem.5b02316
_journal_volume                  55
_journal_year                    2015
_chemical_formula_moiety
'0.5(C72 H48 Cl2 Cu8 N24 O16), 4(B0.75 F3), 2(Ow), 0.23(C4 O8)'
_chemical_formula_sum            'C36.94 H24 B3 Cl Cu4 F12 N12 O13.87'
_chemical_formula_weight         1407.86
_chemical_name_systematic
;
 ?
;
_space_group_crystal_system      tetragonal
_space_group_IT_number           139
_space_group_name_Hall           '-I 4 2'
_space_group_name_H-M_alt        'I 4/m m m'
_symmetry_space_group_name_Hall  '-I 4 2'
_symmetry_space_group_name_H-M   'I 4/m m m'
_atom_sites_solution_hydrogens   geom
_atom_sites_solution_primary     iterative
_audit_creation_date             2015-08-13
_audit_creation_method
;
Olex2 1.2
(compiled 2015.01.26 svn.r3150 for OlexSys, GUI svn.r4998)
;
_cell_angle_alpha                90
_cell_angle_beta                 90
_cell_angle_gamma                90
_cell_formula_units_Z            2
_cell_length_a                   14.0241(7)
_cell_length_b                   14.0241(7)
_cell_length_c                   19.9373(11)
_cell_measurement_reflns_used    1801
_cell_measurement_temperature    100
_cell_measurement_theta_max      73.2870
_cell_measurement_theta_min      3.7950
_cell_volume                     3921.2(4)
_computing_cell_refinement
'CrysAlisPro, Agilent Technologies, Version 1.171.37.35 (release 13-08-2014 CrysAlis171 .NET) (compiled Aug 13 2014,18:06:01)'
_computing_data_collection
'CrysAlisPro, Agilent Technologies, Version 1.171.37.35 (release 13-08-2014 CrysAlis171 .NET) (compiled Aug 13 2014,18:06:01)'
_computing_data_reduction
'CrysAlisPro, Agilent Technologies, Version 1.171.37.35 (release 13-08-2014 CrysAlis171 .NET) (compiled Aug 13 2014,18:06:01)'
_computing_molecular_graphics    'Olex2 (Dolomanov et al., 2009)'
_computing_publication_material  'Olex2 (Dolomanov et al., 2009)'
_computing_structure_refinement  'ShelXL (Sheldrick, 2008)'
_computing_structure_solution
;
Superflip (Palatinus & Chapuis, 2007;Palatinus & van der Lee, 2008;
Palatinus et al., 2012)
;
_diffrn_ambient_environment      N~2~
_diffrn_ambient_temperature      100
_diffrn_detector                 'CCD plate'
_diffrn_detector_area_resol_mean 10.5148
_diffrn_detector_type            Atlas
_diffrn_measured_fraction_theta_full 0.988
_diffrn_measured_fraction_theta_max 0.978
_diffrn_measurement_details
;
  1 omega  -73.00   35.00   1.0000    1.5000
omega____ theta____ kappa____ phi______ frames
    -      -40.8249   77.0000 -150.0000 108

  2 omega    8.00  117.00   1.0000    1.5000
omega____ theta____ kappa____ phi______ frames
    -       40.8249   77.0000  150.0000 109

  3 omega   74.00  178.00   1.0000   10.0000
omega____ theta____ kappa____ phi______ frames
    -      106.3615   77.0000  150.0000 104

  4 omega   74.00  178.00   1.0000   10.0000
omega____ theta____ kappa____ phi______ frames
    -      106.3615   77.0000 -180.0000 104

  5 omega   74.00  178.00   1.0000   10.0000
omega____ theta____ kappa____ phi______ frames
    -      106.3615   77.0000 -120.0000 104

  6 omega   74.00  130.00   1.0000   10.0000
omega____ theta____ kappa____ phi______ frames
    -      106.3615   77.0000 -150.0000 56
;
_diffrn_measurement_device       'four-circle diffractometer'
_diffrn_measurement_device_type  'SuperNova, Dual, Cu at zero, Atlas'
_diffrn_measurement_method       '\w scans'
_diffrn_orient_matrix_UB_11      0.0518793000
_diffrn_orient_matrix_UB_12      0.0806185000
_diffrn_orient_matrix_UB_13      -0.0377844000
_diffrn_orient_matrix_UB_21      -0.0162327500
_diffrn_orient_matrix_UB_22      0.0672687500
_diffrn_orient_matrix_UB_23      0.0599916500
_diffrn_orient_matrix_UB_31      0.0955666500
_diffrn_orient_matrix_UB_32      -0.0321588500
_diffrn_orient_matrix_UB_33      0.0306278500
_diffrn_radiation_monochromator  mirror
_diffrn_radiation_probe          x-ray
_diffrn_radiation_type           CuK\a
_diffrn_radiation_wavelength     1.54184
_diffrn_reflns_av_R_equivalents  0.0613
_diffrn_reflns_av_unetI/netI     0.0364
_diffrn_reflns_laue_measured_fraction_full 0.988
_diffrn_reflns_laue_measured_fraction_max 0.978
_diffrn_reflns_limit_h_max       15
_diffrn_reflns_limit_h_min       -11
_diffrn_reflns_limit_k_max       17
_diffrn_reflns_limit_k_min       -11
_diffrn_reflns_limit_l_max       24
_diffrn_reflns_limit_l_min       -23
_diffrn_reflns_number            6882
_diffrn_reflns_point_group_measured_fraction_full 0.988
_diffrn_reflns_point_group_measured_fraction_max 0.978
_diffrn_reflns_theta_full        67.684
_diffrn_reflns_theta_max         74.043
_diffrn_reflns_theta_min         3.854
_diffrn_source                   'sealed X-ray tube'
_diffrn_source_type              'SuperNova (Cu) X-ray Source'
_exptl_absorpt_coefficient_mu    2.237
_exptl_absorpt_correction_T_max  1.00000
_exptl_absorpt_correction_T_min  0.32279
_exptl_absorpt_correction_type   multi-scan
_exptl_absorpt_process_details
'CrysAlisPro, Agilent Technologies, Version 1.171.37.35 (release 13-08-2014 CrysAlis171 .NET) (compiled Aug 13 2014,18:06:01) Empirical absorption correction using spherical harmonics, implemented in SCALE3 ABSPACK scaling algorithm.'
_exptl_crystal_colour            Green
_exptl_crystal_density_diffrn    1.192
_exptl_crystal_description       polyhedral
_exptl_crystal_F_000             1393
_exptl_crystal_size_max          0.2
_exptl_crystal_size_mid          0.15
_exptl_crystal_size_min          0.15
_refine_diff_density_max         0.939
_refine_diff_density_min         -1.027
_refine_diff_density_rms         0.215
_refine_ls_extinction_method     none
_refine_ls_goodness_of_fit_ref   1.087
_refine_ls_hydrogen_treatment    constr
_refine_ls_matrix_type           full
_refine_ls_number_parameters     98
_refine_ls_number_reflns         1163
_refine_ls_number_restraints     58
_refine_ls_restrained_S_all      1.117
_refine_ls_R_factor_all          0.1066
_refine_ls_R_factor_gt           0.0936
_refine_ls_shift/su_max          0.000
_refine_ls_shift/su_mean         0.000
_refine_ls_structure_factor_coef Fsqd
_refine_ls_weighting_details
;
 w=1/[\s^2^(Fo^2^)+(0.1830P)^2^+20.4060P]
 where P=(Fo^2^+2Fc^2^)/3
;
_refine_ls_weighting_scheme      calc
_refine_ls_wR_factor_gt          0.2499
_refine_ls_wR_factor_ref         0.2703
_reflns_Friedel_coverage         0.000
_reflns_number_gt                964
_reflns_number_total             1163
_reflns_threshold_expression     'I > 2\s(I)'
_cod_data_source_file            ic5b02316_si_002.cif
_cod_data_source_block           FJU-14-BF4-CO2
_cod_database_code               4344843
_shelxl_version_number           2013-2
_chemical_oxdiff_formula         ' C N O H F B Cl Cu'
_shelx_space_group_comment
;
The symmetry employed for this shelxl refinement is uniquely defined
by the following loop, which should always be used as a source of
symmetry information in preference to the above space-group names.
They are only intended as comments.
;
_reflns_odcompleteness_completeness 99.90
_reflns_odcompleteness_iscentric 1
_reflns_odcompleteness_theta     66.97
_olex2_refinement_description
;
1. Fixed Uiso
 At 1.2 times of:
  All C(H) groups
2. Shared sites
{N1, C4}
3. Restrained distances
 O4_$4-C7
 1.16 with sigma of 0.02
 C8-O3
 1.314 with sigma of 0.02
4. Restrained planarity
 C8, O3_$3, O3_$2, O3, O3_$1
 with sigma of 0.1
5. Uiso/Uaniso restraints and constraints
C7 \\sim O4A \\sim O4: within 1.7A with sigma of 0.04 and sigma for terminal
atoms of 0.08
Uanis(C2) \\sim Ueq: with sigma of 0.01 and sigma for terminal atoms of 0.02
Uanis(O4) \\sim Ueq, Uanis(C7) \\sim Ueq: with sigma of 0.01 and sigma for
terminal atoms of 0.02
Uanis(C4) \\sim Ueq: with sigma of 0.05 and sigma for terminal atoms of 0.1
Uanis(C1) \\sim Ueq, Uanis(C4) \\sim Ueq, Uanis(C5) \\sim Ueq: with sigma of
0.01 and sigma for terminal atoms of 0.02
Uanis(C7) = Uanis(O4)
Uanis(C7) = Uanis(O4A)
Uanis(C8) = Uanis(O3)
Uanis(N1) = Uanis(C4)
6. Others
 Fixed Sof: N2(0.5) N1(0.25) C6(0.5) H6(0.5) F1(0.375) C5(0.25) C3(0.25)
 B1(0.1875) F2(0.375) C1(0.5) H1(0.5) O1(0.5) C4(0.25) Ow(0.25) C7(0.0218)
 O4(0.0218) C8(0.03657) O3(0.07314) O4A(0.0218)
7.a Aromatic/amide H refined with riding coordinates:
 C2(H2), C6(H6), C1(H1)
;
_shelx_res_file
;
TITL CF solution in I4/mmm
CELL 1.54184 14.024125 14.024125 19.937311 90 90 90
ZERR 2 0.000687 0.000687 0.001077 0 0 0
LATT 2
SYMM -Y,+X,+Z
SYMM +X,-Y,-Z
SYMM -X,-Y,+Z
SYMM -Y,-X,-Z
SYMM +Y,+X,-Z
SYMM +Y,-X,+Z
SYMM -X,+Y,-Z
SFAC C H B Cl Cu F N O
UNIT 73.87 48 6 2 8 24 24 27.74
EQIV $1 -X,-Y,+Z
EQIV $2 +Y,-X,+Z
EQIV $3 -Y,+X,+Z
EQIV $4 +X,-Y,-Z
DFIX 1.16 O4_$4 C7
DFIX 1.314 C8 O3
FLAT C8 O3_$3 O3_$2 O3 O3_$1
SIMU 0.04 0.08 1.7 C7 O4A O4
ISOR 0.01 0.02 C2
ISOR 0.01 0.02 O4 C7
ISOR 0.05 0.1 C4
ISOR 0.01 0.02 C1 C4 C5
EADP C7 O4
EADP C7 O4A
EADP C8 O3
EADP N1 C4
EXYZ N1 C4

L.S. 5
PLAN  5
TEMP -173.2(2)
BOND
fmap 2
acta
OMIT 1 3 2
OMIT 1 1 4
OMIT 0 4 2
OMIT 1 4 1
OMIT 1 1 6
OMIT 1 4 7
OMIT 1 2 7
OMIT 1 2 5
OMIT 1 1 2
OMIT 1 3 4
OMIT 2 2 4
REM <olex2.extras>
REM <HklSrc "%.\\FJU-14-BF4-CO2.hkl">
REM </olex2.extras>

WGHT    0.183000   20.406000
FVAR       3.13502
CU1   5    0.180672    0.000000    0.000000    10.25000    0.03048    0.03114 =
         0.00705    0.00000    0.00000    0.00000
CL1   4    0.000000    0.000000    0.000000    10.06250    0.02855    0.02855 =
         0.07911    0.00000    0.00000    0.00000
PART 1
N2    7    0.173701   -0.105868   -0.068074    10.50000    0.04386    0.04397 =
         0.02088   -0.00229    0.01921   -0.02043
N1    7    0.196995   -0.196995   -0.159358    10.25000    0.05134    0.05134 =
         0.02478   -0.00954    0.00954   -0.01358
PART 0
C2    1    0.308507   -0.191493   -0.250000    10.50000    0.09908    0.09908 =
         0.08249   -0.04525    0.04525   -0.05094
PART 2
AFIX  43
H2    2    0.356444   -0.143631   -0.249984    10.50000   -1.20000
AFIX   0
PART 0
PART 1
C6    1    0.222123   -0.114404   -0.123778    10.50000    0.04683    0.05244 =
         0.02069   -0.02263    0.01137   -0.01228
AFIX  43
H6    2    0.268800   -0.069953   -0.138435    10.50000   -1.20000
AFIX   0

PART 0
F1    6    0.419786    0.000000   -0.152972    10.37500    0.07281    0.16006 =
         0.15221    0.00000    0.00773    0.00000

PART 2
C5    1    0.163693    0.163693    0.096840    10.25000    0.03477    0.03477 =
         0.01597   -0.00661   -0.00661   -0.00781
PART 0
PART 1
C3    1    0.224109   -0.224109   -0.221831    10.25000    0.05962    0.05962 =
         0.01744   -0.01909    0.01909   -0.00826

PART 0
B1    3    0.500000    0.000000   -0.183028    10.18750    0.06682    0.18063 =
         0.09125    0.00000    0.00000    0.00000
F2    6    0.500000   -0.074832   -0.237035    10.37500    0.13476    0.28791 =
         0.29469   -0.15250    0.00000    0.00000

PART 2
C1    1    0.282372   -0.166167   -0.187954    10.50000    0.08244    0.10455 =
         0.07396   -0.05184    0.02889   -0.02947
AFIX  43
H1    2    0.323241   -0.125937   -0.162592    10.50000   -1.20000
AFIX   0
O1    8    0.202338    0.090146    0.073534    10.50000    0.04686    0.03556 =
         0.01381    0.00302   -0.01315    0.00302
C4    1    0.196995   -0.196995   -0.159358    10.25000    0.05134    0.05134 =
         0.02478   -0.00954    0.00954   -0.01358

PART 0
PART 1
Ow    8    0.356290   -0.032029    0.000000    10.25000    0.09237    0.10825 =
         0.05112    0.00000    0.00000   -0.00797

PART 0
C7    1    0.500000    0.000000    0.000000    10.02180    0.01173    0.03451 =
         0.01484    0.00000    0.00000    0.00000
PART 1
O4    8    0.500000    0.000000   -0.058686    10.02180    0.01173    0.03451 =
         0.01484    0.00000    0.00000    0.00000

PART 0
C8    1    0.000000    0.000000   -0.215317    10.03657    0.05210    0.05210 =
         0.21886    0.00000    0.00000    0.00000
PART 1
O3    8    0.093896    0.000000   -0.215643    10.07314    0.05210    0.05210 =
         0.21886    0.00000    0.00000    0.00000

PART 0
PART 2
O4A   8    0.414285    0.000000    0.000000    10.02180    0.01173    0.03451 =
         0.01484    0.00000    0.00000    0.00000
HKLF 4

REM  CF solution in I4/mmm
REM R1 =  0.0936 for     964 Fo > 4sig(Fo)  and  0.1066 for all    1163 data
REM     98 parameters refined using     58 restraints

END

WGHT      0.1824     18.4341

REM Highest difference peak  0.939,  deepest hole -1.027,  1-sigma level  0.215
Q1    1   0.2650 -0.1682 -0.2672  11.00000  0.05    0.94
Q2    1   0.0000  0.0000  0.0164  10.12500  0.05    0.86
Q3    1   0.5000 -0.1427  0.0000  10.25000  0.05    0.79
Q4    1   0.5000 -0.1190 -0.1440  10.50000  0.05    0.78
Q5    1   0.3897  0.3897  0.0000  10.25000  0.05    0.76
;
_shelx_res_checksum              80199
_shelx_hkl_file
;
   0   0   4 631800. 10753.7   1
   0   0  -6 245842. 8904.18   2
   0   0   6 230749. 7930.96   1
   0   0  -8 281107. 11258.3   2
   0   0 -10 80407.8 6950.80   2
   0   0 -12 818119. 25310.8   2
   0   0 -14 633215. 24975.3   2
   0   0 -16 277194. 18181.7   2
   0   0  16 305298. 6076.91   5
   0   0  18 106751. 3761.25   5
   0   0  20 26548.3 1906.00   5
   0   0  22 11533.5 1234.63   5
   0   0  24 43060.9 1654.42   5
   0  -1   1 516070. 6347.47   1
   1   0   1 525492. 6761.92   1
   0  -1   3 122635. 4448.08   1
  -1   0   3 117357. 3400.63   1
   1   0   3 122631. 4845.77   1
   1   0  -3 124187. 4294.96   2
   0  -1  -5 118093. 5785.59   2
   1   0   5 117498. 5777.98   1
  -1   0   5 113574. 4702.95   1
   0  -1   5 114639. 5446.65   1
   1   0  -5 113274. 5384.15   2
   0  -1  -7 53945.1 4664.87   2
   0  -1   7 49369.5 4291.34   1
   1   0   7 53081.4 4479.13   1
  -1   0  -7 47363.2 4792.90   2
   0   1  -7 50037.7 4897.28   2
   1   0  -7 52805.6 4691.05   2
   0   1  -9 92450.9 7249.34   2
   0  -1  -9 87020.6 6653.75   2
  -1   0  -9 81177.6 6970.93   2
   0  -1   9 80886.7 5933.15   1
   1   0  -9 80577.1 6498.26   2
   0  -1 -11 192604. 11373.4   2
   0   1 -11 187968. 11636.0   2
  -1   0 -11 176452. 11373.0   2
   1   0 -11 190225. 11377.2   2
  -1   0 -13 203253. 13920.9   2
   0  -1 -13 219902. 13701.0   2
   0   1 -13 217070. 14176.0   2
   1   0 -13 215242. 13632.0   2
   0  -1 -15 170301. 13415.1   2
   0   1 -15 160596. 13523.2   2
   1   0 -15 175536. 13502.4   2
   0   1  15 158641. 4261.41   5
  -1   0  15 159035. 4267.31   5
   1   0  15 164005. 4338.41   5
   0  -1  15 162225. 4402.84   5
  -1   0 -15 150259. 13288.8   2
  -1   0  17 74054.2 3071.24   5
   1   0  17 70765.3 3088.19   5
  -1   0 -17 71895.3 9890.03   2
   0  -1  17 71306.8 3104.74   5
   0   1  17 72584.6 3054.79   5
  -1   0  19 26971.8 1944.93   5
   0   1  19 27903.7 1985.93   5
   1   0  19 24609.6 1948.14   5
   0  -1  19 25050.1 1912.78   5
   0   1  21 6566.47 1064.86   5
  -1   0  21 5282.08 1009.45   5
   1   0  21 6436.62 1068.99   5
   0  -1  21 4948.17 1021.26   5
  -1   0  23 12728.7 1095.59   5
   0   1  23 12856.4 1162.35   5
   0  -1  23 12395.8 1097.12   5
   1   0  23 12728.1 1179.64   5
   1  -1   0 32015.4 1601.09   1
   1  -1  -2 59169.6 1810.55   2
  -1  -1   2 58979.0 2196.22   1
   1  -1   2 61594.5 3111.08   1
   1  -1   4 54309.0 3757.47   1
  -1  -1   4 48340.0 2874.13   1
   1  -1  -4 47626.2 2891.63   2
  -1  -1   6 8808.95 1769.14   1
   1  -1  -6 7732.68 1833.77   2
   1  -1   6 9552.63 2220.54   1
   1   1  -6 7337.29 1953.01   2
   1  -1   8 566.433 1566.94   1
   1   1  -8 530.182 1679.55   2
   1  -1  -8-537.746 1122.95   2
  -1   1  -8-659.338 1856.24   2
  -1  -1   8 334.735 1023.97   1
  -1  -1  -8-326.082 1874.73   2
  -1  -1 -10 70744.5 6885.96   2
   1  -1  10 75238.4 6340.85   1
   1  -1 -10 80274.1 6693.61   2
   1   1 -10 76754.9 7028.18   2
  -1   1 -10 80010.4 7365.28   2
  -1   1 -12 23398.6 4778.01   2
   1   1 -12 24418.3 4876.23   2
  -1  -1 -12 21742.8 4413.48   2
   1  -1 -12 25639.3 4498.43   2
   1  -1 -14 24850.9 4817.54   2
   1   1  14 29587.1 1844.15   5
  -1  -1 -14 27604.5 5583.19   2
   1  -1  14 28704.4 1851.27   5
  -1   1 -14 30728.9 5925.95   2
  -1   1  14 30027.2 1829.53   5
   1   1 -14 26169.8 5552.96   2
  -1   1 -16 12012.8 3697.82   2
   1   1  16 13837.1 1394.79   5
   1  -1  16 15719.0 1545.29   5
  -1  -1 -16 6551.84 3922.46   2
  -1   1  16 12907.3 1425.75   5
  -1  -1  16 16472.9 1574.97   5
   1   1 -16 17213.1 4598.28   2
   1   1  18 13670.9 1457.70   5
  -1  -1  18 15591.8 1578.98   5
   1  -1  18 15155.9 1561.28   5
  -1   1  18 15231.1 1581.94   5
   1   1  20 1836.37 809.143   5
   1  -1  20 1944.99 863.650   5
  -1  -1  20 999.723 741.654   5
  -1   1  20 2153.62 863.773   5
   1  -1  22 1872.65 717.723   5
  -1   1  22 1741.17 689.058   5
  -1  -1  22 1474.53 606.982   5
   1   1  22 1669.81 751.654   5
   1   1  24 4685.53 685.757   5
  -1   1  24 4436.92 589.671   5
   0  -2   0 54717.5 2595.47   1
   2   0   0 56254.7 2149.47   1
   0   2   0 58849.9 2369.32   2
   2   0  -2 141971. 4055.08   2
   2   0   2 147563. 5246.49   1
   0  -2   2 142696. 4809.16   1
   2   0  -4 131486. 5095.83   2
   2   0   4 123480. 6073.05   1
   0  -2   4 125020. 5483.24   1
   2   0   6 128164. 6924.78   1
   0   2  -6 129581. 7203.71   2
   0  -2   6 124976. 6512.54   1
   2   0  -6 131314. 6356.39   2
   0   2  -8 63836.9 5955.85   2
   0  -2  -8 66739.0 5432.16   2
   0  -2   8 73483.8 5613.84   1
   2   0  -8 70469.7 5646.62   2
   2   0   8 70756.7 5842.94   1
  -2   0  -8 63134.4 6365.47   2
  -2   0 -10 38974.5 5395.23   2
   0   2 -10 33466.0 4876.31   2
   0  -2  10 32106.0 4297.97   1
   0  -2 -10 32474.7 4445.62   2
   2   0 -10 35896.2 4815.11   2
   0  -2  12 10190.0 2799.54   1
   0   2 -12 10372.6 3424.78   2
   2   0 -12 10172.5 3211.36   2
   0  -2 -12 8963.93 2973.12   2
  -2   0 -12 8438.55 3105.35   2
   2   0  14 18007.9 1486.76   5
   0   2 -14 14066.5 4230.09   2
   2   0 -14 21874.6 4474.31   2
   0  -2  14 19118.4 1584.51   5
   0  -2 -14 16934.9 3925.45   2
   0   2  14 19560.6 1534.13   5
  -2   0 -14 16546.6 4612.60   2
   0   2  16 15814.6 1537.12   5
   2   0  16 18428.9 1639.99   5
   0  -2  16 16301.8 1588.21   5
   0   2 -16 17785.3 5311.82   2
  -2   0  16 15849.1 1486.46   5
  -2   0 -16 14393.0 5180.09   2
  -2   0  18 1587.43 767.484   5
   2   0  18 853.791 729.974   5
   0  -2  18 1472.17 866.764   5
   0   2  18-115.588 727.289   5
   2   0  20 9863.04 1309.36   5
  -2   0  20 10859.5 1241.96   5
   0  -2  20 10411.0 1368.41   5
   0   2  20 10364.0 1345.83   5
   2   0  22 6241.47 1013.50   5
  -2   0  22 6828.97 928.502   5
   0   2 -22 6786.56 948.680   3
   0  -2  22 7428.00 1003.92   5
   0   2  22 9496.76 1123.79   5
   0   2  24 508.567 412.322   5
   2   0  24 355.601 438.944   5
  -1   2  -1 22574.3 1832.73   2
  -1   2   1 21655.2 877.434   2
   2  -1  -1 21900.9 1325.61   1
  -1  -2   1 20799.2 1637.47   1
   1   2   1 25644.2 1965.74   2
   2  -1   1 24861.3 1932.37   1
   1  -2   1 23938.6 1960.19   1
   1  -2   3 24561.2 2679.25   1
   2  -1   3 28303.0 2952.09   1
  -1   2  -3 29515.6 2969.31   2
  -1  -2   3 29295.6 2341.98   1
  -2  -1   3 25186.1 1509.22   1
   2  -1  -3 24209.3 1646.25   2
   2  -1   5 31605.6 3659.22   1
  -2  -1   5 28197.2 2356.20   1
  -1  -2   5 28103.9 2829.44   1
   1  -2   5 36210.4 3540.20   1
   1  -2  -5 26596.0 2502.52   2
   2   1  -5 31290.3 3263.55   2
   2  -1  -5 25452.0 2459.55   2
   2   1  -7 6326.54 2198.68   2
   2  -1   7 7114.15 2310.93   1
   1   2  -7 4498.97 2015.50   2
  -2   1  -7 3601.03 2206.60   2
  -1  -2   7 4933.56 1729.77   1
   2  -1  -7 5322.83 1797.54   2
  -2  -1   7 6581.58 1679.58   1
   1  -2  -7 6340.74 1757.07   2
   1  -2   7 6799.42 2171.06   1
  -1   2  -7 4313.79 1817.59   2
   1  -2   9 3215.79 1651.84   1
  -1   2  -9 3177.76 2334.53   2
   2  -1   9 3629.27 2022.28   1
  -2   1  -9 4561.24 2303.16   2
   2   1  -9 796.353 1594.37   2
   1  -2  -9 7469.23 2118.11   2
   1   2  -9 2506.35 1770.61   2
   2  -1  -9 1949.80 1849.05   2
  -1  -2  -9 2271.90 1862.05   2
  -2  -1  -9 583.818 1945.51   2
  -1  -2   9 3489.99 1764.71   1
   2  -1 -11 2311.02 1462.88   2
   1  -2  11 1730.92 1689.44   1
   1  -2 -11 2892.09 1657.99   2
  -2   1 -11 5142.75 2579.67   2
  -1  -2  11 3760.52 1807.83   1
   1   2 -11 2772.59 2139.18   2
   2   1 -11 4619.94 2434.44   2
  -1  -2 -11 3553.03 2114.99   2
   2  -1  11 3742.57 1825.67   1
  -1   2 -11 3698.24 2548.98   2
  -2  -1 -11 6173.66 3142.09   2
  -1   2 -13 6657.94 3155.53   2
  -2   1 -13 4970.50 2768.41   2
  -1  -2 -13 4208.95 2740.75   2
   2  -1 -13 10627.8 3236.19   2
  -2  -1 -13-221.187 1934.44   2
   2   1 -13 8722.60 3188.04   2
   1   2 -13 6405.20 2987.32   2
   1  -2 -13-1807.21 1789.95   2
   1   2  15 9142.11 1204.93   5
  -2   1  15 8484.61 1142.82   5
  -2  -1  15 9011.82 1144.06   5
   2   1 -15 10180.8 3473.89   2
  -1  -2  15 10175.9 1294.33   5
   2  -1  15 8106.37 1223.15   5
  -2   1 -15 3429.20 2747.89   2
   1  -2  15 7585.91 1237.61   5
  -1  -2 -15 6750.96 3288.34   2
   1   2 -15 7653.22 3366.82   2
  -1   2  15 7526.40 1101.56   5
  -1   2 -15 9430.28 4220.53   2
   2   1  15 8031.92 1122.35   5
  -2  -1 -15 10234.2 3968.88   2
  -1   2  17 1874.27 807.303   5
   2  -1  17 678.706 757.114   5
   1  -2  17 1569.84 846.060   5
   2   1  17 1336.07 777.620   5
  -2   1  17 1307.83 723.631   5
   1   2  17 2615.71 869.214   5
  -1  -2  17 2622.96 936.429   5
  -2  -1  17 1664.44 874.019   5
  -1  -2  19 1200.25 792.949   5
  -1   2  19 189.151 768.405   5
   1   2  19 782.538 761.424   5
  -2  -1  19 845.533 719.952   5
  -2   1  19 666.599 777.096   5
   2  -1  19 627.527 768.710   5
   2   1  19 1344.74 789.507   5
   1  -2  19 272.088 754.584   5
   1  -2  21 1320.10 780.282   5
   1   2  21 2020.80 811.862   5
   1   2 -21 436.856 733.920   3
  -2   1  21 1477.32 672.519   5
  -2  -1  21 649.924 611.450   5
  -1  -2  21 966.602 659.723   5
   2  -1  21 1232.71 806.125   5
  -1   2  21 1247.27 726.173   5
   2   1  21 624.954 666.018   5
   1   2  23 1293.49 597.870   5
   2   1  23 242.435 529.614   5
  -2   1  23 439.242 485.114   5
  -1   2 -23-0.90454 527.289   3
  -1   2  23-113.035 541.755   5
   2  -1  23-209.544 548.955   5
   2  -2   0 162747. 4950.14   1
  -2   2   0 155738. 4009.30   2
  -2  -2   2 878344. 10090.3   1
   2  -2   2 878755. 13375.9   1
  -2   2  -2 890893. 14156.3   2
   2  -2  -2 872824. 10497.1   1
   2  -2  -4 3640.73 781.392   2
  -2   2  -4 3327.03 1685.66   2
  -2  -2   4 3766.24 1043.78   1
   2  -2   4 3964.80 1677.85   1
  -2   2  -6 13776.5 2859.44   2
   2  -2  -6 10731.7 1747.48   2
   2   2  -6 13323.2 2605.70   2
  -2  -2   6 11540.3 1803.41   1
   2  -2   6 13037.6 2773.88   1
  -2   2  -8 38043.3 5051.05   2
   2  -2  -8 40509.0 3844.54   2
   2   2  -8 37238.8 4598.73   2
   2  -2   8 42033.9 5040.72   1
  -2  -2   8 40412.1 3910.94   1
  -2   2 -10 129949. 10115.3   2
   2  -2 -10 129349. 8005.26   2
  -2  -2  10 135520. 8305.98   1
  -2  -2 -10 120190. 9636.36   2
   2  -2  10 118686. 9069.72   1
   2   2 -10 132480. 9459.30   2
   2   2 -12 27322.9 4937.90   2
   2  -2  12 20761.8 4230.40   1
   2  -2 -12 22018.4 3814.34   2
  -2  -2 -12 23692.0 4861.71   2
  -2   2 -12 25639.2 5336.95   2
  -2  -2 -14 67289.9 8522.90   2
  -2   2 -14 61458.4 8866.80   2
   2   2 -14 61883.6 7941.47   2
   2   2  14 73429.9 2945.85   5
  -2   2  14 74367.3 2883.43   5
   2  -2  14 74617.2 3086.78   5
  -2  -2  16 74562.9 3039.82   5
   2   2  16 69597.1 3054.04   5
   2   2 -16 68319.3 8977.96   2
  -2  -2 -16 68439.0 9216.99   2
  -2   2  16 70221.8 3039.59   5
  -2   2 -16 74762.5 10147.2   2
   2  -2  16 72658.1 3218.33   5
  -2  -2  18 14711.0 1498.59   5
   2   2  18 12054.6 1409.25   5
   2  -2  18 13237.4 1564.39   5
  -2   2  18 13562.4 1439.35   5
  -2  -2  20 7960.60 1079.34   5
   2   2 -20 8464.95 1199.88   3
   2   2  20 12426.4 1400.89   5
   2  -2  20 11959.8 1455.64   5
  -2   2  20 11138.9 1294.01   5
   2  -2  22 12163.1 1243.47   5
  -2   2  22 13835.2 1240.17   5
   2   2  22 13854.6 1276.63   5
   2   2  24 13963.9 1000.89   5
   0   3   1 111596. 3855.43   2
   3   0  -1 112741. 4147.57   2
   0  -3   1 107494. 4545.58   1
   0   3  -1 106212. 4374.98   2
   3   0   1 110466. 4400.08   1
   3   0   3 319705. 9194.23   1
   0   3  -3 313264. 9310.62   2
   0  -3   3 318198. 8702.97   1
   3   0  -3 324517. 7555.57   2
   0   3  -5 253554. 10047.9   2
   3   0  -5 263925. 8114.73   2
   3   0   5 264711. 9856.34   1
   0  -3   5 258013. 9137.17   1
   0  -3   7 150738. 8122.05   1
   0   3  -7 145693. 8694.90   2
   3   0   7 150874. 8592.90   1
   3   0  -7 147440. 7346.01   2
  -3   0  -9 66381.6 7317.28   2
   3   0  -9 70501.6 5941.11   2
   0  -3  -9 62232.3 5664.86   2
   0  -3   9 65079.1 6003.83   1
   0   3  -9 73180.7 7045.58   2
   3   0 -11 2992.47 1924.52   2
   0  -3 -11 4099.87 1992.11   2
   0  -3  11 10330.2 2854.95   1
  -3   0 -11 5986.49 3041.80   2
   0   3 -11 3481.17 2119.50   2
   3   0 -13 9259.13 2906.70   2
   0  -3  13 6256.51 2472.02   1
   0  -3 -13 5267.18 2273.93   2
   0   3 -13 7133.29 3228.86   2
  -3   0 -13 10228.9 3935.13   2
   3   0  15 1207.64 794.811   5
  -3   0  15 1787.48 809.671   5
   0   3  15 1890.36 746.870   5
   0  -3  15 1208.44 775.467   5
   0  -3  17 2092.99 1060.98   5
  -3   0  17 1885.23 819.164   5
   3   0  17 2493.17 879.709   5
   0   3  17 1785.70 869.196   5
   3   0  19 1360.94 758.670   5
   0  -3  19 1.68208 784.903   5
   0   3  19 368.665 711.785   5
  -3   0  19 1247.47 647.968   5
   3   0  21 13388.1 1400.95   5
   0  -3  21 12122.9 1315.70   5
   0   3 -21 13236.9 1405.55   3
   0   3  21 14258.1 1369.14   5
   0   3  23 1806.03 589.148   5
   0   3 -23 2568.76 650.670   3
   3   0  23 1475.76 594.675   5
   1   3   0 445287. 9041.49   2
   3  -1   0 443971. 7707.58   1
   1  -3   0 446089. 9070.05   1
  -1   3   0 439546. 7116.19   2
   3   1  -2 163171. 5897.32   2
   1  -3   2 158296. 6172.65   1
   1   3  -2 164975. 6251.13   2
   3  -1  -2 165048. 4143.17   2
  -1  -3   2 161696. 5611.53   1
  -1   3  -2 161823. 6113.07   2
   3  -1   2 165670. 6138.42   1
   3  -1  -2 149111. 3381.18   1
   3  -1  -4 54949.2 2959.68   2
   3   1  -4 50788.0 3807.27   2
   1  -3   4 55427.8 4326.12   1
   3  -1   4 54313.2 4572.38   1
  -3  -1   4 48780.1 2006.61   1
  -1   3  -4 54659.0 4506.12   2
  -1  -3   4 53128.3 3812.14   1
   1  -3  -6 8435.95 1659.48   2
  -1   3  -6 5541.47 2070.26   2
  -1  -3   6 7199.85 1869.13   1
   3   1  -6 6216.67 1976.58   2
   1   3  -6 7235.89 2208.86   2
   1  -3   6 5355.54 2055.85   1
   3  -1  -6 7277.81 1491.74   2
   3  -1   6 9879.42 2561.05   1
  -1  -3   8 3516.28 1668.58   1
   3  -1   8 2800.39 2031.70   1
  -1   3  -8 1614.37 1498.48   2
   1   3  -8 2059.25 1970.31   2
   1  -3   8 2572.58 1870.83   1
   1  -3  -8 2911.01 1256.78   2
  -3   1  -8 5242.08 2495.98   2
   3   1  -8 3022.28 1704.75   2
   3  -1  -8 1763.88 1375.36   2
   1  -3  10 1827.79 1676.63   1
   1  -3 -10-635.090 1242.84   2
  -1   3 -10 408.996 2071.78   2
   3   1 -10-490.349 1471.71   2
  -1  -3 -10 868.769 1636.59   2
  -1  -3  10 1683.38 1380.81   1
   3  -1  10-219.683 1921.82   1
   3  -1 -10 73.2242 1119.94   2
  -3   1 -10-136.256 2219.20   2
  -3  -1 -10 626.746 1761.15   2
   1   3 -10 594.288 1584.88   2
  -1  -3 -12 33329.1 5376.00   2
  -1   3 -12 39988.1 6375.57   2
   3  -1 -12 32987.4 4711.31   2
   1   3 -12 38467.3 6179.49   2
   1  -3  12 34459.7 5384.68   1
  -3   1 -12 32774.9 5914.29   2
   3   1 -12 35503.8 5501.43   2
  -1  -3  12 30633.8 4663.32   1
  -3  -1 -12 33002.6 5808.29   2
  -3  -1 -14 40742.6 6979.23   2
   3   1 -14 39438.1 6367.45   2
  -1   3 -14 44929.6 7455.82   2
   3   1  14 41345.0 2244.27   5
   1   3 -14 37697.9 6409.72   2
  -1   3  14 41381.0 2234.90   5
  -3   1  14 38483.3 2089.57   5
   1  -3  14 41929.8 2417.81   5
  -1  -3  14 42263.6 2276.78   5
   3  -1  14 39977.1 2283.12   5
   1   3  14 39429.0 2188.98   5
  -3   1 -14 44736.4 7456.35   2
  -1  -3 -14 45756.2 6793.23   2
   1   3 -16 7189.34 3248.39   2
   3   1  16 9937.84 1378.46   5
  -3   1  16 9730.48 1172.64   5
  -3   1 -16 7549.22 3974.32   2
   1   3  16 8899.74 1246.22   5
  -1   3 -16 12090.2 4671.62   2
  -3  -1 -16 11655.8 4424.33   2
   3  -1  16 9550.20 1331.64   5
  -1  -3  16 8849.03 1311.73   5
   1  -3  16 10404.9 1484.36   5
  -1   3  16 7806.92 1237.89   5
   1   3  18 4146.07 958.316   5
   3   1  18 4990.18 1069.76   5
  -3   1  18 4871.19 934.179   5
   3  -1  18 4832.80 1071.40   5
  -1  -3  18 4972.96 1062.15   5
   1  -3  18 4749.85 1130.98   5
  -1   3  18 3911.29 1008.55   5
   3   1  20 516.997 735.911   5
   1  -3  20 31.7603 840.226   5
  -1   3  20 484.845 670.629   5
  -1  -3  20 165.852 646.786   5
  -3   1  20 269.269 635.351   5
   3  -1  20 227.724 752.443   5
   1   3  20 969.697 814.576   5
   1   3 -20-204.516 805.261   3
   1   3 -22 40.0512 615.578   3
   3  -1  22 437.334 620.973   5
   3   1  22-375.214 616.532   5
  -1   3  22-389.560 550.715   5
  -1   3 -22-1213.27 780.156   3
   1   3  22 525.063 634.590   5
   1   3  24 1371.44 458.090   5
   3   1  24 1826.07 507.565   5
  -1   3  24 1037.79 427.605   5
   3  -2  -1 31229.6 2315.96   1
   2  -3   1 31630.6 2876.12   1
   3  -2   1 32506.4 2774.54   1
   2  -3  -1 34912.2 2794.30   1
   2   3   1 34190.8 2991.20   2
  -2   3  -1 34361.0 2601.27   2
  -2   3   1 27156.0 1041.74   2
  -2  -3   1 35082.2 2558.01   1
   3  -2   3 546016. 13154.0   1
  -2   3  -3 562306. 12919.1   2
  -2  -3   3 573097. 10707.6   1
   2  -3   3 559522. 12601.3   1
  -3  -2   3 558812. 7986.26   1
   3  -2  -3 532935. 8473.46   1
   3   2  -3 563582. 12525.3   2
  -3  -2   5 75410.9 3615.08   1
   2   3  -5 72106.1 5375.24   2
   3  -2  -5 78070.4 3121.78   2
   3  -2   5 74932.2 5663.32   1
   3   2  -5 74115.4 5187.27   2
  -2  -3   5 73717.4 4456.99   1
  -3   2  -5 70340.0 6160.74   2
   2  -3   5 67487.9 5497.54   1
   2  -3  -5 62552.6 2612.43   2
  -2   3  -5 73060.1 5611.23   2
   2   3  -7 29117.1 4144.91   2
   3  -2  -7 35528.8 2991.99   2
   3  -2   7 21792.4 3503.52   1
  -3   2  -7 31201.0 4625.40   2
   2  -3   7 23954.3 3700.58   1
  -3  -2   7 39097.6 3602.61   1
   3   2  -7 26555.6 3674.54   2
  -2   3  -7 32920.6 4584.06   2
   2  -3  -7 30920.8 2776.89   2
  -2  -3   7 28459.5 3287.68   1
  -3   2  -9 121599. 9921.14   2
  -2   3  -9 123505. 9672.70   2
  -2  -3   9 124176. 7541.09   1
   2  -3   9 123718. 8954.79   1
   2   3  -9 119587. 8874.69   2
   3   2  -9 120687. 8576.13   2
   3  -2   9 126239. 9177.82   1
   3  -2  -9 136519. 7105.52   2
   2  -3  -9 123179. 6722.05   2
   2   3 -11 65356.6 7212.71   2
   3  -2  11 64347.5 7196.68   1
   2  -3  11 64824.1 7280.21   1
  -2  -3  11 61317.8 6156.96   1
  -2  -3 -11 63715.2 7441.72   2
   3   2 -11 63612.4 7109.49   2
  -2   3 -11 64510.5 7994.07   2
  -3   2 -11 65409.0 7856.69   2
  -3  -2 -11 67043.2 7975.69   2
   2   3 -13 61277.5 7942.01   2
   3  -2  13 64853.1 2801.89   5
  -3   2 -13 56895.0 8022.01   2
  -2   3 -13 63112.3 8622.99   2
   3   2 -13 62256.8 7654.70   2
   2  -3  13 67989.4 2984.57   5
   2  -3  13 60881.4 7592.80   1
   2   3  13 63973.6 2691.40   5
   3   2  13 69585.7 2771.95   5
  -2  -3 -13 64529.8 8293.22   2
  -3  -2 -13 55612.8 7937.15   2
   2  -3  15 83304.7 3513.30   5
  -2  -3 -15 75085.5 9271.02   2
  -3   2 -15 80106.4 10329.5   2
   3   2 -15 82639.5 9449.67   2
  -2   3  15 79047.9 3231.21   5
   2   3 -15 75628.4 9225.49   2
  -3   2  15 86807.5 3197.22   5
   3  -2  15 81549.1 3394.52   5
  -2   3 -15 76870.0 10351.1   2
  -3  -2 -15 75641.9 9723.03   2
   3   2  15 83294.3 3197.32   5
   2   3  15 87977.0 3268.29   5
   3   2  17 56648.2 2795.65   5
  -3   2  17 54331.0 2629.48   5
   3  -2  17 56494.6 2964.08   5
  -2   3  17 53813.0 2814.39   5
   3   2 -17 58391.2 2821.70   3
  -2  -3  17 53838.7 2729.71   5
   2  -3  17 51827.9 2963.89   5
   2   3  17 53885.1 2728.95   5
   2  -3  19 16172.7 1693.35   5
   3   2 -19 15004.0 1513.06   3
   3  -2  19 16156.2 1652.23   5
   3   2  19 17054.8 1605.41   5
   2   3  19 16337.1 1616.36   5
  -3   2  19 17069.2 1509.77   5
   2   3 -19 17865.1 1708.02   3
  -2   3  19 15518.2 1527.99   5
   2  -3  21 33788.9 2062.13   5
   2   3 -21 34104.2 1985.15   3
  -3   2  21 33390.8 1846.92   5
   3  -2  21 32202.4 2023.85   5
  -2   3  21 36939.5 1989.66   5
   3   2  21 34605.3 2054.19   5
   2   3  21 33518.1 1990.40   5
  -2   3  23 19654.2 1205.46   5
  -2   3 -23 22172.3 1335.46   3
   2   3  23 22750.0 1387.29   5
   3   2  23 22427.5 1408.66   5
  -3   3   0 13441.7 1517.95   2
   3  -3   0 13715.7 2049.50   1
  -3   3  -2 1906.35 1109.64   2
   3  -3   2 1875.58 1325.39   1
   3  -3  -2 1625.72 1073.21   1
  -3  -3   2 1563.88 849.142   1
  -3   3  -4 449571. 13366.6   2
  -3  -3   4 451391. 9587.23   1
   3  -3   4 463512. 13312.0   1
   3   3  -4 450635. 12783.0   2
   3  -3  -4 457815. 9731.49   1
   3   3  -6 77122.2 6145.53   2
  -3   3  -6 75797.6 6625.30   2
   3  -3   6 76008.9 6424.12   1
  -3  -3   6 75980.3 4555.25   1
  -3   3  -8 181882. 11342.6   2
   3   3  -8 175847. 10301.1   2
   3  -3   8 175292. 10629.9   1
  -3  -3   8 199255. 8742.09   1
   3   3 -10 84476.6 8000.98   2
  -3   3 -10 80057.6 8468.60   2
   3  -3  10 84803.7 8160.74   1
   3   3 -12 72292.6 8223.99   2
   3  -3  12 66227.3 8050.02   1
  -3  -3 -12 72741.4 8597.45   2
  -3   3 -12 78559.5 9373.16   2
   3   3  14 29396.4 1967.18   4
   3   3  14 27604.2 1924.89   5
   3  -3  14 31318.7 2167.04   5
  -3   3  14 28850.9 1935.42   5
  -3  -3 -14 27557.4 5837.05   2
   3   3 -14 22371.3 5110.49   2
  -3   3 -14 28306.1 6360.61   2
  -3   3  16 133525. 4111.93   5
   3   3 -16 125004. 12123.1   2
  -3   3 -16 120956. 13302.6   2
   3  -3  16 126948. 4521.51   5
   3   3  16 126004. 4096.82   5
   3   3 -16 130451. 4275.03   3
  -3  -3 -16 128918. 12891.5   2
  -3   3  18 30518.8 2057.26   5
   3   3  18 32103.2 2120.43   5
   3   3 -18 31696.3 2169.24   3
   3  -3  18 31780.2 2329.39   5
  -3   3  20 49885.5 2344.21   5
   3   3 -20 51502.3 2478.87   3
   3   3  20 47052.4 2385.15   5
   3  -3  20 43953.9 2439.46   5
  -3   3  22 49288.0 1973.70   5
   3   3  22 50965.3 2230.66   5
   3   3  24 24377.0 1156.52   5
   0  -4   0 186429. 6711.96   1
   4   0   0 184417. 5124.10   1
   0   4   0 181739. 5954.21   2
   4   0   2 81459.3 4703.29   1
   0   4  -2 79032.6 4669.98   2
   4   0  -2 69075.7 3920.71   2
   0  -4   2 72873.9 4547.50   1
   0  -4   4 142237. 6864.54   1
   4   0  -4 162329. 6239.87   2
   0   4  -4 146238. 7603.07   2
   4   0   4 158020. 7557.80   1
   0  -4   6 219494. 9712.21   1
   0   4  -6 219635. 10695.8   2
   4   0  -6 231150. 8452.12   2
   4   0   6 228385. 10283.3   1
   4   0  -8 124694. 7250.35   2
   0   4  -8 119016. 8868.64   2
   0  -4   8 129557. 8581.36   1
   0  -4  -8 132435. 7855.99   2
   4   0 -10 16446.5 3202.32   2
   0  -4 -10 13685.9 2899.57   2
   0  -4  10 15780.3 3520.96   1
   0   4 -10 13591.1 3672.88   2
  -4   0 -10 22158.3 4823.97   2
   0   4 -12 22853.2 5033.53   2
   0  -4  12 22823.4 4524.05   1
   4   0 -12 22019.3 4201.54   2
  -4   0 -12 16008.1 4391.58   2
   0  -4  14 17589.8 1676.58   5
   0   4 -14 15125.4 4368.77   2
   0  -4  14 12261.9 3669.75   1
   0   4  14 16100.2 1522.94   5
  -4   0 -14 13223.7 4090.84   2
   4   0  14 16004.9 1494.82   5
   0  -4  16 6492.38 1149.77   5
  -4   0 -16 5587.36 3487.99   2
   4   0  16 7542.93 1223.14   5
   0   4  16 8001.42 1235.49   5
   0   4 -16 6275.16 2902.32   2
   4   0  18 23099.4 1920.08   5
   0   4  18 25034.9 1923.40   5
   0  -4  18 24299.3 2029.60   5
   0  -4  20 16913.0 1520.27   5
   0   4  20 17245.6 1515.54   5
   4   0  20 17000.2 1648.23   5
   0   4  22 16086.8 1316.19   5
   0   4 -22 13700.7 1230.65   3
   4   0  22 14582.6 1302.65   5
   0   4  24 5405.01 604.104   5
   4   1  -1 19778.3 2498.79   2
   1   4   1 25695.6 2619.97   2
  -1  -4   1 24246.4 2609.75   1
   1  -4  -1 24234.9 2675.82   1
   1   4  -1 23548.9 2635.62   2
   1  -4   1 22275.9 2751.55   1
   4  -1  -1 21219.6 1762.23   1
  -1   4  -1 23171.6 2338.37   2
  -1   4   1 24027.9 1850.52   2
   4  -1   1 21524.4 2408.85   1
   4   1  -3 2602.04 1379.83   2
  -1  -4   3 3161.56 1437.91   1
  -1   4  -3 5414.62 1805.47   2
   1   4  -3 3908.16 1755.77   2
   4  -1   3 2215.96 1378.65   1
   1  -4   3 3132.93 1537.24   1
   4  -1  -3 3757.84 1048.12   2
   4  -1   5 25754.0 3761.84   1
   1   4  -5 20632.7 3225.27   2
   4   1  -5 23692.7 2904.89   2
   4  -1  -5 24658.6 2338.20   2
   1  -4   5 21807.3 3258.66   1
  -1   4  -5 22562.1 3548.76   2
  -1  -4   5 23808.2 2961.00   1
   4  -1   7 1954.26 2158.71   1
   1  -4   7 5740.88 2308.39   1
  -1  -4   7 7185.55 2149.63   1
   1   4  -7 6132.96 2402.23   2
   4   1  -7 5558.56 1999.49   2
  -1   4  -7 6392.91 2591.60   2
   1  -4  -7 6126.28 1638.76   2
   4  -1  -7 5231.57 1530.39   2
  -1   4  -9 11545.5 3118.39   2
   1  -4   9 12599.0 3066.42   1
   1  -4  -9 12200.3 2189.48   2
   4  -1   9 15186.6 3696.49   1
  -4   1  -9 13271.7 3747.50   2
   4   1  -9 5473.75 2025.38   2
   1   4  -9 13862.3 3427.71   2
  -1  -4   9 11370.5 2824.39   1
   4  -1  -9 12960.9 2682.21   2
   4   1 -11 1660.84 1589.63   2
  -1  -4  11 3444.23 1771.54   1
  -1   4 -11-1112.92 1905.50   2
  -1  -4 -11 53.9929 1360.07   2
   1  -4  11 4143.58 2444.89   1
  -4  -1 -11-447.790 2243.95   2
   1   4 -11 1050.63 1847.15   2
  -4   1 -11-1501.94 1936.77   2
   4   1  13 934.495 729.798   5
   1   4 -13 4382.31 2479.47   2
  -4  -1 -13-3233.33 2571.90   2
  -1  -4  13-760.307 1373.72   1
  -1   4 -13-193.576 1818.90   2
   1  -4  13-501.751 899.999   5
  -4   1 -13 540.088 2034.44   2
  -1   4  13 152.382 613.008   5
   4   1 -13 1642.25 1827.46   2
   1   4  13-135.437 586.314   5
   4  -1  13 303.653 655.189   5
   1  -4  13 1066.62 1694.42   1
  -4  -1 -15-718.709 1732.56   2
   4  -1  15 3091.65 943.135   5
   1   4 -15 1073.12 2098.28   2
  -1   4  15 2486.02 876.737   5
   1  -4  15 3138.91 1089.07   5
   4   1  15 4456.38 1011.61   5
  -4   1 -15 3794.42 2460.27   2
   1   4  15 4019.84 1000.44   5
  -1  -4  15 3290.95 982.615   5
  -4   1  17 1169.66 587.483   5
   4  -1  17 1843.65 946.149   5
   1  -4  17 2024.23 990.816   5
  -1  -4  17 2800.96 908.986   5
   4   1  17 2191.25 882.362   5
  -1   4  17 2451.95 829.039   5
   1   4  17 2809.08 904.675   5
   1   4  19 660.070 726.031   5
  -1  -4  19 961.786 708.231   5
   4   1  19 1031.50 793.237   5
   4  -1  19 611.092 863.599   5
  -1   4  19 1066.19 785.248   5
   1  -4  19 738.080 811.352   5
   1   4  21 221.381 635.646   5
   4  -1  21-88.9642 686.983   5
  -1   4  21-134.254 677.481   5
   1   4 -21-507.802 721.035   3
   4   1  21 576.712 715.493   5
   1   4  23 561.949 528.668   5
  -1   4  23 689.297 463.043   5
   1   4 -23 1499.20 536.992   3
   4   1  23 311.317 471.286   5
  -1   4 -23 723.325 508.907   3
  -2   4   0 15938.8 1623.53   2
   4  -2   0 15069.1 2052.42   1
   2  -4   0 17861.0 2445.15   1
   2   4   0 16323.3 2511.64   2
   4   2  -2 13375.1 2416.24   2
   4  -2  -2 10630.4 1493.15   1
  -2   4  -2 11388.5 2035.09   2
   4  -2   2 11501.3 2259.57   1
   2  -4  -2 13492.9 2063.07   1
  -4  -2   2 12976.3 1221.83   1
  -2  -4   2 12819.2 2125.49   1
   2  -4   2 12917.8 2362.12   1
   2   4  -2 10732.0 2227.66   2
   4  -2  -4 84865.6 3430.51   1
   2   4  -4 94233.0 6127.67   2
   4   2  -4 87030.7 5773.04   2
  -2   4  -4 89232.1 6059.66   2
   2  -4   4 88194.2 5966.88   1
  -2  -4   4 95165.7 5313.80   1
   4  -2   4 93368.3 6109.20   1
  -2   4  -6 120466. 8164.94   2
   4   2  -6 117819. 7168.28   2
   4  -2  -6 122383. 4381.83   1
  -2  -4   6 124931. 6814.84   1
  -4   2  -6 118185. 8655.83   2
   2  -4   6 114487. 7736.65   1
   4  -2   6 100849. 7232.27   1
   4  -2  -6 125253. 4486.69   2
   2   4  -6 122972. 7998.59   2
  -4   2  -8 61190.6 6953.34   2
   2  -4   8 71633.0 6812.91   1
   4   2  -8 48766.9 5274.97   2
   2   4  -8 70109.9 6817.00   2
   4  -2   8 64079.6 6603.75   1
  -2  -4   8 69964.6 5819.37   1
  -2   4  -8 66371.7 7090.03   2
   4   2 -10 20637.6 3922.78   2
   2  -4  10 18433.9 4346.65   1
  -2  -4  10 23229.5 3901.81   1
   4  -2  10 25675.4 4605.09   1
   2   4 -10 26517.0 4755.44   2
  -2   4 -10 23689.3 5134.98   2
  -4   2 -10 22563.9 4754.10   2
   2   4 -12 12974.4 3978.37   2
   4  -2  12 16665.8 4417.80   1
   4   2 -12 19627.1 4219.35   2
  -4   2 -12 23135.8 5540.17   2
  -4  -2 -12 20146.7 4895.74   2
  -2   4 -12 19391.6 4796.38   2
  -2  -4 -12 18919.3 4255.87   2
   2  -4  12 15266.2 3871.15   1
  -4  -2 -14 12842.7 4222.80   2
   2   4 -14 15168.9 4346.89   2
   2  -4  14 12626.6 1603.45   5
   2   4  14 10517.9 1270.21   5
  -2   4 -14 20512.6 5501.26   2
   4  -2  14 11162.2 1372.27   5
  -4   2 -14 16893.2 5177.53   2
   4   2 -14 12538.8 1427.30   3
  -4   2  14 10478.2 1226.37   5
   4   2  14 12297.1 1320.27   5
   2   4  14 12919.4 1398.60   4
  -2   4  14 11089.9 1341.34   5
   2  -4  14 12039.4 3953.14   1
   4   2 -14 8650.61 3098.94   2
  -4  -2 -16 2776.34 3289.29   2
   4   2  16-528.533 722.503   5
   2  -4  16 37.4248 897.033   5
  -2   4  16-112.005 736.334   5
   4  -2  16-230.304 826.088   5
   2   4 -16-3073.09 2549.85   2
   2   4  16-216.012 673.338   5
  -4   2  16-302.879 657.080   5
   4   2 -16-390.673 918.807   3
   2  -4  18 18781.7 1947.40   5
   2   4 -18 18394.5 1816.05   3
  -4   2  18 18465.9 1526.96   5
   4   2  18 18776.9 1685.05   5
   2   4  18 18490.9 1660.45   5
   4  -2  18 19081.0 1828.17   5
  -2   4  18 18267.8 1745.29   5
   2   4  20 14387.3 1405.94   5
   4   2  20 14332.1 1449.09   5
   2   4 -20 13837.5 1494.28   3
   4  -2  20 13172.3 1473.57   5
  -2   4  20 15772.6 1481.90   5
  -4   2  20 15506.4 1332.35   5
   2  -4  20 14196.7 1510.39   5
   2   4 -22 14558.5 1234.72   3
  -2   4 -22 13590.3 1249.42   3
   4   2  22 13723.8 1232.00   5
  -2   4  22 15259.2 1186.85   5
   2   4  22 15045.3 1229.39   5
   4   2  24 3472.68 490.002   5
   2   4  24 3450.60 524.183   5
   3  -4  -1 5370.75 1620.26   1
  -4   3  -1 4250.23 1428.78   2
   3  -4   1 5249.79 1655.18   1
   3   4  -1 4061.74 1744.80   2
   4   3  -1 4192.09 1745.15   2
   4  -3   1 4205.07 1472.06   1
  -3   4  -1 4832.87 1319.89   2
   4  -3  -1 3680.85 1284.54   1
  -3  -4   1 6192.30 1474.40   1
  -4   3   1 3073.68 765.656   2
   3   4  -3 7346.52 2060.64   2
  -3   4  -3 4943.14 1548.20   2
   3  -4   3 4326.18 1912.82   1
   4  -3   3 7696.97 2018.55   1
  -3  -4   3 5783.05 1348.36   1
   3  -4  -3 6329.97 1637.53   1
   4   3  -3 6354.82 2116.54   2
  -4  -3   3 7444.33 1288.43   1
   4  -3  -3 4704.61 1161.35   1
  -4   3  -3 7518.51 2169.98   2
   4  -3  -5 158773. 5908.31   1
   4  -3   5 157224. 8971.18   1
   3  -4   5 127439. 7707.70   1
   3   4  -5 141111. 8130.31   2
  -4  -3   5 148480. 5266.00   1
   4   3  -5 150328. 8296.11   2
  -4   3  -5 151551. 9021.75   2
   3  -4  -5 149430. 6655.12   1
  -3  -4   5 149173. 6812.89   1
  -3   4  -5 139166. 8451.79   2
  -3   4  -7 136974. 9654.80   2
   3   4  -7 155224. 9621.07   2
   4  -3   7 148684. 9644.02   1
   4   3  -7 158309. 9286.85   2
  -3  -4   7 158871. 7724.44   1
   3  -4   7 158714. 9869.42   1
  -4   3  -7 152912. 10198.5   2
  -3   4  -9 61576.6 7387.77   2
  -4   3  -9 51970.1 6965.72   2
   4  -3   9 56533.4 6635.31   1
   4   3  -9 53729.2 6157.66   2
  -3  -4   9 58025.7 5368.31   1
   3  -4   9 54953.9 6598.15   1
   3   4  -9 53495.3 6270.83   2
   3   4 -11 22498.2 4442.82   2
  -3   4 -11 23488.9 5398.48   2
   4  -3  11 24099.8 4787.65   1
   3  -4  11 26786.1 4993.04   1
  -4   3 -11 23133.8 5199.65   2
   4   3 -11 18333.9 4318.18   2
   4   3  13 7596.31 1137.32   5
   3   4 -13 6387.67 2898.47   2
  -4   3  13 6751.71 1067.92   5
  -3   4 -13 1379.42 1947.13   2
   3   4  13 7175.47 1134.70   4
   3  -4  13 12928.7 4027.86   1
   4  -3  13 781.637 2193.51   1
   4   3 -13 5553.74 2840.72   2
   3  -4  13 8693.99 1305.05   5
   4  -3  13 7909.39 1248.64   5
  -3   4  13 6315.66 1025.10   5
  -4   3 -13 13518.6 4339.48   2
   4   3  13 6073.25 1093.64   4
  -4  -3 -13 6105.77 3820.80   2
   3   4  13 7156.73 1106.30   5
  -3  -4 -13 11797.2 4049.61   2
   4   3 -13 7662.29 1144.07   3
  -3   4  15 19801.0 1797.08   5
  -3   4 -15 18495.6 5462.44   2
   3   4  15 18315.4 1605.81   4
   4   3  15 20244.0 1749.59   5
   4   3 -15 30445.1 5956.01   2
   3   4 -15 21722.8 1943.49   3
   4  -3  15 19047.2 1881.18   5
   3   4  15 20201.5 1743.86   5
   3   4 -15 17500.2 4701.75   2
  -4   3 -15 21348.4 5881.20   2
   3  -4  15 20334.9 1936.51   5
   4   3 -15 21012.8 1840.67   3
  -4   3  15 20442.2 1628.75   5
  -4  -3 -15 11383.6 4133.03   2
   3   4  17 12648.3 1401.55   5
   4  -3  17 14800.2 1674.54   5
   4   3  17 12153.4 1417.24   5
   4   3 -17 12932.2 1477.63   3
  -4   3  17 14335.6 1425.04   5
  -3   4  17 13146.0 1457.99   5
   3   4 -17 11059.6 1495.14   3
   3  -4  17 11899.7 1604.45   5
  -3   4  19 30032.2 1956.10   5
  -4   3  19 27929.4 1796.03   5
   3   4 -19 30257.3 2084.49   3
   3   4  19 32543.8 2040.72   5
   4   3  19 31436.0 2051.46   5
   4  -3  19 28857.0 2148.69   5
   3  -4  19 29646.6 2101.29   5
   4   3 -19 22436.9 1722.25   3
   3   4  21 18636.7 1438.39   5
  -3   4  21 18018.7 1358.25   5
   4   3  21 16632.4 1404.91   5
  -4   3  21 18602.2 1333.08   5
   3   4 -21 19173.2 1475.60   3
   4   3  23 12749.9 976.146   5
   3   4  23 14351.0 1051.88   5
  -3   4 -23 15125.0 1110.81   3
   4   4   0 102957. 6503.18   2
  -4   4   0 97221.8 4009.95   2
   4  -4   0 104505. 5943.00   1
   4  -4   2 342.288 1306.29   1
   4  -4  -2 1265.46 963.102   1
  -4  -4   2 1115.72 845.120   1
  -4   4  -2 200.169 1000.08   2
   4   4  -2-180.788 1295.02   2
  -4  -4   4-794.481 770.004   1
   4  -4   4-412.248 1267.60   1
  -4   4  -4 450.664 1543.11   2
   4  -4  -4-164.852 919.294   1
   4   4  -4-38.5634 1361.63   2
  -4  -4   6 7388.54 1582.89   1
   4  -4   6 8469.60 2819.88   1
  -4   4  -6 11004.6 3010.22   2
   4  -4  -6 8528.47 1810.31   1
   4   4  -6 7469.27 2441.23   2
   4   4  -8 28538.9 4617.72   2
   4  -4   8 20384.4 4159.25   1
   4  -4  -8 22143.7 2833.52   1
  -4   4  -8 22589.4 4573.14   2
   4  -4  10 5306.71 3177.00   1
   4   4 -10 4688.50 2497.98   2
  -4   4 -10 5429.39 3025.69   2
   4   4  12 1125.97 799.513   4
   4  -4  12-909.853 2013.35   1
   4  -4  12 1543.31 834.577   5
   4   4 -12 730.309 872.300   3
  -4   4  12 750.445 563.226   5
   4   4  12-219.228 675.239   5
   4   4 -12-735.556 2026.52   2
  -4   4 -12 2250.11 2518.47   2
   4   4  14 650.545 684.258   5
   4   4 -14 6086.47 3012.72   2
  -4   4  14 1934.10 741.586   5
   4   4 -14 2236.35 971.612   3
   4  -4  14 1868.16 965.173   5
  -4   4 -14 2394.58 2579.37   2
   4   4  14 2251.19 840.657   4
  -4  -4 -14 2236.82 2821.16   2
  -4   4  16 13648.2 1433.42   5
   4   4 -16 14444.5 1627.95   3
   4  -4  16 13695.9 1704.37   5
   4   4  16 15489.2 1490.09   5
   4  -4  18-144.536 809.850   5
   4   4  18 10.2191 673.420   5
   4   4 -18-625.918 829.684   3
  -4   4  18-581.808 708.375   5
   4   4 -20-24.6439 741.602   3
   4   4  20 550.735 648.282   5
  -4   4  20 431.920 569.373   5
   4   4  22-369.701 518.014   5
   0   5  -1 594102. 12748.4   2
   0  -5   1 588722. 13798.9   1
   0   5   1 602989. 11636.8   2
   0  -5  -1 614084. 13620.6   1
   5   0  -3 170820. 6699.52   2
   5   0   3 166571. 7530.13   1
   0   5  -3 151783. 7605.20   2
   0  -5   3 154568. 7655.96   1
   0   5  -5 413339. 14169.7   2
   0  -5   5 384442. 12791.6   1
   5   0   5 414297. 13449.4   1
   5   0  -5 388679. 10990.1   2
   0   5  -7 483819. 17288.7   2
   5   0  -7 491718. 13680.0   2
   0  -5   7 473598. 16086.5   1
   0   5  -9 133267. 10194.6   2
   0  -5   9 125971. 9392.63   1
   5   0  -9 128153. 7909.14   2
  -5   0 -11 145504. 12617.3   2
   0   5 -11 149034. 12005.0   2
   0  -5  11 151891. 11385.7   1
   0   5 -13 240799. 16519.7   2
  -5   0 -13 219800. 16625.4   2
   0   5  13 230176. 5142.95   5
   0  -5  13 230432. 5579.87   5
   0  -5  13 214981. 14377.7   1
   5   0  13 229687. 5122.71   5
   5   0  15 44461.8 2510.16   5
   0  -5  15 38356.9 2472.67   5
   0   5  15 39077.6 2358.11   5
   0   5 -15 36655.6 7060.99   2
  -5   0 -15 39733.5 7459.43   2
   0  -5  17 60520.0 3088.16   5
   5   0  17 60496.6 2982.54   5
   0   5  17 60517.5 2918.91   5
   0   5  19 99016.0 3520.93   5
   5   0  19 97862.9 3675.86   5
   0   5 -21 40208.1 2165.63   3
   5   0  21 36692.2 2079.74   5
   0   5  21 39500.5 2006.58   5
   0   5 -23 27379.5 1354.54   3
   0   5  23 28027.7 1369.33   5
  -1   5   0 198532. 6435.22   2
   1  -5   0 210974. 8436.52   1
   5  -1   0 207641. 6597.55   1
   1   5   0 188769. 7495.90   2
  -1  -5   0 214598. 8124.88   1
   1   5  -2 180811. 7901.19   2
   1  -5  -2 197827. 7933.49   1
  -1   5  -2 184417. 7489.87   2
  -1  -5   2 186351. 7887.13   1
   5  -1   2 199502. 7852.72   1
   1  -5   2 193197. 8378.20   1
   5   1  -2 187666. 7745.71   2
   1   5  -4 61042.3 5307.20   2
  -1   5  -4 53487.6 5037.29   2
  -1  -5   4 51748.7 4583.84   1
   1  -5   4 51872.2 4869.20   1
   5   1  -4 50864.8 4366.09   2
   5  -1   4 55146.3 5083.85   1
   1   5  -6 115304. 8160.19   2
  -1   5  -6 116909. 8176.20   2
   5  -1   6 110997. 7735.29   1
  -1  -5   6 116760. 7330.47   1
   5  -1  -6 119781. 5701.91   2
   1  -5   6 114555. 7794.43   1
   5   1  -6 119235. 7125.71   2
   5   1  -8 69555.0 5965.74   2
   1   5  -8 70401.6 7201.56   2
   5  -1   8 65802.2 6648.84   1
   1  -5   8 73541.4 6980.29   1
  -1   5  -8 68942.9 7414.08   2
   5  -1  -8 70718.5 4927.10   2
  -1  -5   8 74572.5 6799.73   1
   1  -5  10 71892.7 7791.61   1
   1   5 -10 75431.3 8106.26   2
  -1  -5  10 77234.0 7403.05   1
  -5   1 -10 66478.3 8298.53   2
  -1  -5 -10 71975.1 7341.27   2
   5   1 -10 78558.7 7179.80   2
  -1   5 -10 82762.0 8842.50   2
  -1   5  12 75194.7 2922.32   5
  -5   1 -12 73273.9 9327.98   2
   1  -5  12 63067.7 8001.30   1
   5  -1  12 74674.8 2909.72   5
  -1  -5  12 78710.6 8163.72   1
  -1   5 -12 83664.3 9832.30   2
   1   5  12 78352.3 2915.70   5
   5   1  12 78465.6 2996.25   4
   1   5 -12 72023.6 8700.90   2
  -5  -1 -12 66121.6 9038.85   2
   5   1 -12 84586.5 8191.48   2
   1  -5  14 92157.2 3860.32   5
   5  -1  14 90984.5 3467.40   5
  -5  -1 -14 78769.0 10172.8   2
  -1  -5  14 85310.8 3344.82   5
  -1   5  14 85631.4 3356.57   5
   1   5 -14 81462.5 9970.41   2
  -5   1 -14 92000.7 11195.6   2
  -1   5 -14 93683.6 11099.0   2
   1   5  14 85411.2 3368.28   5
   5   1  14 91144.6 3344.55   5
   1  -5  14 89163.7 9764.09   1
   1   5  16 25068.1 1932.64   5
   5  -1  16 24111.9 2030.01   5
   1  -5  16 24577.5 2095.55   5
  -1  -5  16 21481.3 1819.65   5
  -1   5  16 25146.8 1931.84   5
   5   1  16 24906.5 1930.35   5
  -1   5  18 38043.1 2301.04   5
   5   1  18 35677.4 2277.45   5
   1  -5  18 33821.6 2375.96   5
   1   5 -18 32198.2 2333.96   3
   5  -1  18 35998.8 2429.29   5
   1   5  18 34304.2 2197.83   5
  -1   5  20 16753.6 1484.56   5
   1   5 -20 14459.9 1499.83   3
   5  -1  20 13249.6 1475.01   5
   1   5  20 15509.1 1438.18   5
   5   1  20 14474.6 1445.96   5
   5   1  22 9010.75 1011.63   5
   1   5  22 8664.09 965.188   5
  -1   5 -22 8600.19 999.573   3
   1   5 -22 9767.10 1031.27   3
  -1   5  22 9892.45 1004.72   5
   5  -1  22 8814.07 995.924   5
   2   5   1 125776. 6500.62   2
   5  -2  -1 126860. 5189.14   1
  -2   5  -1 122877. 5423.29   2
   2   5  -1 120566. 6703.39   2
  -2  -5   1 137424. 6761.22   1
   2  -5  -1 129483. 6712.41   1
  -2   5   1 122228. 3871.70   2
   5  -2   1 135164. 6370.73   1
   2  -5   1 128503. 6950.40   1
   5  -2   3 39017.6 4182.57   1
   2   5  -3 44760.8 4451.67   2
  -2  -5   3 42000.5 3925.14   1
   2  -5   3 36517.1 4123.34   1
   5   2  -3 36871.9 3989.73   2
   2  -5  -3 42095.8 3895.25   1
  -2   5  -3 45036.1 4301.28   2
   5  -2  -3 39984.2 2394.34   1
   5  -2   5 12026.4 2797.17   1
   2   5  -5 12779.7 2996.39   2
   5   2  -5 11536.1 2569.32   2
  -2  -5   5 10793.1 2358.02   1
   2  -5   5 12883.9 2814.78   1
  -2   5  -5 10247.7 2809.19   2
  -5   2  -7 3887.22 2228.02   2
   2   5  -7 1213.20 1581.37   2
   5   2  -7 2635.10 1661.01   2
  -2  -5   7 2931.90 1664.54   1
   5  -2   7 1752.26 1716.73   1
   2  -5   7 4316.76 2303.82   1
  -2   5  -7 1628.87 1575.27   2
   5  -2   9 1078.27 1657.68   1
  -5   2  -9-4085.93 2425.69   2
  -2  -5   9 2249.52 1644.29   1
   2  -5   9 1889.16 1856.30   1
  -2   5  -9 1755.08 1914.64   2
   2   5  -9 758.425 2007.40   2
   5   2  -9 1094.88 1543.99   2
   5   2 -11 7139.65 3278.96   2
  -2   5 -11 11332.6 3808.33   2
  -2  -5 -11 4108.23 3034.32   2
   5  -2  11 2738.34 2311.86   1
   2   5 -11 4491.20 2528.54   2
   2  -5  11 5238.04 2596.81   1
  -5   2 -11 7376.55 3619.74   2
  -2  -5  11 12754.9 3138.89   1
   2  -5  13 615.232 1824.94   1
  -2   5  13 3681.95 865.040   5
  -5  -2 -13 1688.47 2453.60   2
   2   5  13 4635.03 990.430   5
   5   2  13 4487.01 1023.30   5
   2  -5  13 4327.64 1196.23   5
   2   5 -13 7046.24 3150.86   2
   5  -2  13 4453.09 997.804   5
   5   2 -13 5156.33 2555.06   2
  -2   5 -13 5770.22 3094.27   2
  -5   2 -13 3285.33 2639.02   2
   5   2  13 5071.19 1127.48   4
   2   5 -15 43414.4 7706.50   2
  -5  -2 -15 39723.7 7661.20   2
   2  -5  15 47610.4 2932.49   5
   5   2  15 47016.9 2562.66   5
   5  -2  15 47374.7 2735.23   5
  -2   5  15 47976.5 2689.10   5
   2  -5  15 29895.9 6108.98   1
  -2   5 -15 50079.0 8086.67   2
  -5   2 -15 52711.3 8752.26   2
   2   5  15 48246.8 2593.21   5
   2   5 -17 7116.65 1348.14   3
   2  -5  17 7402.73 1377.37   5
   2   5  17 6589.69 1141.67   5
   5   2  17 6608.46 1131.84   5
   5  -2  17 7190.67 1291.13   5
  -2   5  17 7273.81 1242.45   5
   2   5  19 3773.86 907.245   5
  -2   5  19 4741.91 987.245   5
   5   2  19 4275.69 1030.12   5
   2   5 -19 3272.14 1036.23   3
   5  -2  19 2827.61 985.879   5
   2   5  21 1354.17 630.640   5
   2   5 -21 1068.72 688.574   3
   5  -2  21-280.458 687.689   5
   5   2  21 1555.06 695.991   5
  -2   5  21 859.326 597.610   5
   5   2  23-346.104 407.852   5
  -2   5 -23 99.6089 456.049   3
   2   5  23 391.277 408.070   5
  -2   5  23 1353.64 473.044   5
   3   5   0 47761.8 4488.48   2
  -3  -5   0 50211.6 4131.00   1
  -3   5   0 45140.7 2644.60   2
   3  -5   0 46419.7 4330.17   1
   5  -3   0 45638.1 3790.82   1
   3   5  -2 850.462 1311.36   2
   3  -5  -2 2442.02 1464.25   1
  -3   5  -2 1569.41 1118.67   2
   3  -5   2 1114.61 1340.87   1
   5  -3   2 640.173 1122.14   1
   5  -3  -2 2637.16 1166.60   1
  -5  -3   2 1764.38 709.025   1
   5   3  -2 289.967 1340.66   2
  -3  -5   2 1638.71 1276.08   1
   5  -3   4 13526.5 2929.51   1
   3  -5  -4 17383.5 2830.81   1
   5  -3  -4 13355.5 1765.57   1
  -5   3  -4 13403.7 3178.56   2
  -3   5  -4 14722.4 2954.94   2
  -3  -5   4 15299.6 2611.85   1
   3  -5   4 12146.9 2787.43   1
   3   5  -4 16956.9 3279.81   2
   5   3  -4 13176.4 3001.59   2
  -5   3  -6 2019.98 1690.41   2
   5   3  -6 6525.24 2415.79   2
   5  -3   6 8833.30 2726.66   1
   3  -5   6 2859.78 2052.48   1
  -3   5  -6 8993.53 2847.55   2
  -3  -5   6 5587.74 1806.68   1
   3   5  -6 6842.71 2239.01   2
   3  -5  -6 3607.71 1518.10   1
   3   5  -8 42.2096 1938.77   2
  -3  -5   8 1756.25 1205.11   1
   3  -5   8-420.896 1968.46   1
   5  -3   8 311.716 1853.34   1
   5   3  -8 502.295 1466.23   2
  -3   5  -8 66.7011 1904.38   2
  -5   3  -8 230.115 1433.28   2
   5  -3  10 1074.98 1739.89   1
   3  -5  10 1265.72 1909.09   1
   5   3 -10 2399.95 2164.34   2
   3   5 -10-2657.36 2131.20   2
  -3   5 -10-4604.82 2765.40   2
  -5   3 -10 1821.25 2061.11   2
   5  -3  12 3124.28 935.303   5
  -3   5  12 2562.99 872.134   5
  -3   5 -12 863.911 1352.73   2
  -5   3 -12 4660.60 2991.99   2
   5   3  12 2353.19 711.413   5
   3   5 -12 2750.48 1003.05   3
   5   3 -12 2802.81 1035.92   3
   5  -3  12-938.040 1805.57   1
   3  -5  12 2982.41 1107.67   5
   3   5  12 2512.88 821.691   4
   5   3  12 2408.08 864.253   4
   3  -5  12 4919.22 2858.35   1
   3   5 -12 2426.79 2309.03   2
   3   5  12 3363.44 847.265   5
  -3  -5 -12-2310.79 2584.81   2
   5   3 -12 1887.82 2036.84   2
   3   5 -14 10008.8 3714.40   2
  -5   3 -14 10227.7 4082.56   2
   5   3 -14-775.320 1941.14   2
   3  -5  14 2315.05 2471.36   1
  -3   5 -14 3528.93 3094.67   2
   5   3  14 2338.71 836.837   5
   3  -5  14 789.918 884.121   5
  -5   3  14 466.415 629.305   5
   3   5 -14 925.421 857.059   3
   5   3  14 1536.46 888.962   4
   5  -3  14 468.095 823.880   5
  -5  -3 -14 2000.95 2768.51   2
  -3   5  14 2038.57 900.813   5
   3   5  14 1961.93 865.353   4
   5   3 -14 1019.93 896.991   3
   3   5  14 2035.16 803.816   5
   5   3  16 18094.5 1605.70   5
   5   3 -16 16861.7 1682.23   3
   3   5  16 17018.9 1605.25   5
  -5   3  16 14789.3 1392.30   5
   3   5 -16 17895.2 1756.31   3
   5  -3  16 16572.0 1792.95   5
  -3   5  16 17411.1 1704.07   5
   3  -5  16 19037.8 1945.43   5
   3   5 -18 4613.49 1157.51   3
   5   3 -18 5276.63 1103.83   3
   5   3  18 5294.58 1069.16   5
  -5   3  18 5193.64 946.287   5
   3   5  18 5692.43 1080.23   5
   5  -3  18 5111.09 1176.28   5
  -3   5  18 6573.31 1157.99   5
   3   5  20 2485.85 788.986   5
   5   3  20 1667.89 705.279   5
  -3   5  20 2536.32 737.203   5
   3   5 -20 2353.20 884.173   3
   3   5  22 841.479 501.571   5
  -3   5 -22-1125.79 680.955   3
  -3   5  22 581.022 486.899   5
   5   3  22 643.639 479.463   5
   3   5 -22-243.499 512.657   3
   5   4  -1 950.332 1628.11   2
  -4  -5   1-586.879 944.463   1
   4  -5  -1 692.187 1160.38   1
   4  -5   1 1004.40 1122.39   1
   5  -4   1 857.968 1192.86   1
   5  -4  -1 2723.02 1423.68   1
   4   5  -1 1039.89 1500.54   2
  -4   5  -1 1170.94 826.997   2
  -5  -4   1 1427.63 837.292   1
  -5   4  -1 2686.52 1365.21   2
  -4   5  -3 21002.3 3266.36   2
   4   5  -3 18577.6 3318.98   2
   5  -4   3 13938.8 2957.58   1
   4  -5  -3 19420.3 2858.44   1
   5  -4  -3 18143.2 2498.23   1
   4  -5   3 16818.5 3144.75   1
   5   4  -3 18747.0 3413.37   2
  -5  -4   3 22016.6 2366.27   1
  -5   4  -3 23843.2 3425.88   2
  -4  -5   3 21992.4 2855.56   1
   4   5  -5 123038. 8503.93   2
   5   4  -5 117791. 8326.08   2
  -4  -5   5 117726. 6482.76   1
   4  -5   5 114704. 8292.29   1
  -5   4  -5 109635. 8130.83   2
  -4   5  -5 106629. 7925.25   2
   5  -4  -5 114889. 5849.60   1
   4  -5  -5 130038. 7089.49   1
   5  -4   5 111728. 8126.99   1
   4  -5  -7 55065.5 4900.38   1
   4   5  -7 69337.9 6922.01   2
   5  -4   7 62548.3 6902.90   1
  -5   4  -7 61374.2 7032.40   2
   4  -5   7 70818.5 7266.04   1
   5   4  -7 69599.8 6857.81   2
  -4   5  -7 68283.5 7168.01   2
  -5   4  -9 10748.4 3415.60   2
  -4   5  -9 11842.0 3789.04   2
   5   4  -9 11135.8 2991.77   2
   4   5  -9 13189.2 3673.18   2
   5  -4   9 11977.7 3433.60   1
   4  -5   9 11023.2 3321.73   1
   4   5  11 26853.7 1840.85   4
   4  -5  11 27476.6 5666.93   1
   5   4 -11 27994.0 1993.89   3
   4  -5  11 31013.7 2344.49   5
   5  -4  11 24594.1 5151.38   1
   5   4 -11 22972.8 4874.50   2
   4   5 -11 29441.7 5403.13   2
  -4   5  11 26967.5 1856.71   5
  -4   5 -11 25322.4 6002.92   2
   5   4  11 26703.5 1874.02   4
   5  -4  11 27564.5 2047.40   5
  -5   4 -11 28334.4 5838.78   2
   4   5 -11 28391.8 1991.86   3
  -4  -5 -13 14463.3 4679.89   2
   4  -5  13 2841.27 2801.33   1
  -5   4 -13 11931.9 4075.30   2
   5   4  13 14609.7 1397.11   5
  -4   5  13 13748.7 1517.57   5
  -5   4  13 13370.2 1377.83   5
   4   5  13 14098.2 1396.35   5
   5   4  13 13948.5 1489.06   4
   5  -4  13 7804.77 3316.08   1
   4   5 -13 12175.9 3848.08   2
  -5  -4 -13 17128.1 5322.38   2
   4  -5  13 13688.0 1698.54   5
   5   4 -13 12027.8 1494.14   3
   5  -4  13 12852.0 1584.96   5
   5   4 -13 14389.3 4412.11   2
  -4   5 -13 11792.2 4356.41   2
   4   5  13 12079.4 1415.13   4
   4   5 -13 11951.7 1469.69   3
  -5   4  15 1297.15 718.582   5
   5   4  15 841.757 721.314   5
   4   5  15 813.877 833.861   5
   5   4 -15 2086.41 963.266   3
   4  -5  15 980.211 903.490   5
   5  -4  15 818.806 930.661   5
   4   5 -15 1672.60 922.231   3
  -4   5  15 1038.24 819.227   5
   5   4  15 1263.10 852.201   4
   4   5  15 580.998 767.507   4
   5  -4  17 1663.19 1002.09   5
   5   4  17 1094.31 808.275   5
   4   5  17 1072.96 733.060   5
  -4   5  17 2206.82 834.399   5
   5   4 -17 681.817 793.302   3
  -5   4  17 2247.37 760.633   5
   4   5 -17 1931.92 985.855   3
  -4   5  19 16928.5 1462.41   5
  -5   4  19 18301.0 1427.80   5
   5   4 -19 19574.8 1623.94   3
   5   4  19 19669.6 1565.48   5
   4   5  19 18186.7 1498.95   5
   4   5 -19 18404.4 1654.39   3
   5   4  21 10986.7 1091.23   5
  -4   5  21 12063.9 1028.84   5
   4   5  21 11665.1 1068.32   5
   4   5 -21 11519.1 1124.29   3
  -5   4 -23 2810.22 536.884   3
  -4   5 -23 2915.16 545.337   3
   5  -5   0 35540.8 4029.98   1
  -5  -5   2 49431.5 4188.88   1
   5   5  -2 42087.8 4990.67   2
   5  -5   2 44134.4 4778.95   1
   5  -5  -2 49616.6 4565.78   1
  -5   5  -2 43534.4 4194.28   2
   5  -5   4 119805. 8418.60   1
   5  -5  -4 129033. 7174.91   1
  -5   5  -4 120422. 8010.53   2
   5   5  -4 119984. 8585.61   2
   5  -5  -6 642560. 16071.9   1
  -5   5  -6 655675. 21540.6   2
   5  -5   6 628741. 21203.3   1
   5   5  -6 652759. 20957.3   2
  -5   5  -8 274062. 15568.3   2
   5  -5   8 258272. 14659.8   1
   5   5  -8 264717. 14356.7   2
  -5   5 -10 89023.0 9992.73   2
   5   5 -10 93567.7 9382.82   2
   5   5 -10 101248. 3553.84   3
   5   5  10 92368.5 3187.63   4
   5  -5  10 90366.7 9564.53   1
   5   5  12 65472.7 2694.51   5
   5   5 -12 48721.7 7380.82   2
   5  -5  12 62495.1 3116.36   5
   5   5 -12 60971.5 3031.60   3
   5  -5  12 52079.1 7960.25   1
   5   5  12 64142.7 2864.90   4
  -5   5  12 61170.1 2800.73   5
  -5   5 -12 58746.7 8986.34   2
   5   5 -14 36741.9 2481.61   3
  -5   5  14 37767.4 2296.51   5
   5   5  14 35003.5 2262.99   4
   5   5  14 37943.8 2157.29   5
  -5  -5 -14 44383.6 9298.14   2
  -5   5  16 106.951 653.803   5
   5   5  16 157.706 600.421   5
   5   5 -16 347.850 806.284   3
   5   5  16-453.248 794.680   4
   5   5  18 64524.3 2781.77   5
   5   5 -18 62626.3 2828.83   3
   5   5  20 95897.0 2937.11   5
   5   5 -20 97125.0 2946.27   3
  -5   5  20 94235.5 2810.19   5
  -5   5 -22 34773.8 1616.26   3
   5   5  22 33595.6 1412.83   5
   0   6   0 442540. 11734.7   2
   0  -6   0 453695. 13464.1   1
   0   6  -2 167399. 7923.03   2
   0  -6   2 165912. 8426.14   1
   0  -6  -2 169435. 8119.10   1
   0  -6   4 345067. 12705.3   1
   0   6  -4 345660. 12742.2   2
   0   6  -6 299049. 13458.9   2
   0  -6   6 296801. 12820.9   1
   6   0  -6 286975. 10456.8   2
   6   0  -8 193166. 9409.91   2
   0  -6   8 195026. 11540.9   1
   0   6  -8 180444. 11999.1   2
   0  -6  10 143056. 10907.9   1
   0   6 -10 130054. 11131.5   2
   0  -6  12 260935. 5691.41   5
   0  -6  12 265068. 16196.5   1
   6   0  12 265304. 5406.11   5
   0   6  12 252597. 4884.14   6
   0   6 -12 273091. 17538.2   2
   0   6  12 261806. 5519.64   5
  -6   0 -12 248950. 17855.3   2
   0   6  14 38663.6 2339.16   5
   0   6 -14 51685.0 8147.74   2
   0  -6  14 35519.6 6349.49   1
   6   0  14 38289.1 2312.77   5
  -6   0 -14 34229.1 7111.32   2
   0   6  16 59345.6 2870.51   5
   6   0  16 56233.6 2963.97   5
   6   0  18 59857.9 2933.71   5
   0   6  18 63275.7 2880.69   5
   0   6 -20 84416.1 3272.41   3
   0   6  20 83336.6 2961.26   5
   6   0  20 78691.4 3067.91   5
   0   6 -22 39097.7 1799.20   3
   0   6  22 34981.1 1640.05   5
   1  -6  -1 110661. 6809.04   1
  -1   6  -1 128637. 6266.27   2
  -1  -6   1 131035. 7324.63   1
   1  -6   1 113785. 7038.78   1
   1   6   1 119909. 6411.09   2
  -1  -6  -1 115250. 6772.49   1
   1   6  -1 122567. 6859.52   2
   6  -1   1 128903. 6263.18   1
   6  -1  -1 134822. 4707.03   1
  -1   6   1 125011. 5369.29   2
   1   6  -3 149859. 8233.96   2
  -1  -6   3 153446. 8225.08   1
  -1   6  -3 154681. 7976.88   2
   1  -6   3 171850. 9018.38   1
   1  -6  -3 156024. 8036.45   1
   6  -1   3 157100. 8028.20   1
   6   1  -5 108360. 6931.85   2
  -1  -6   5 106272. 7260.76   1
  -1   6  -5 95406.4 7305.63   2
   1  -6   5 103199. 7451.39   1
   6  -1   5 94882.9 7082.45   1
   1   6  -5 93622.0 7388.54   2
  -1  -6   7 44414.9 5151.57   1
   6   1  -7 23201.0 3584.00   2
   1   6  -7 39303.8 5359.01   2
   1  -6   7 40450.2 5367.15   1
   6  -1   7 40440.8 5130.31   1
  -1   6  -7 40939.6 5348.84   2
   1   6  -9 95349.7 8952.68   2
  -6   1  -9 84521.8 9556.26   2
  -1   6  -9 95734.8 9142.51   2
   6   1  -9 99633.8 7899.23   2
  -1  -6   9 101790. 8825.81   1
   1  -6   9 113331. 9558.68   1
   1   6 -11 84682.6 9293.67   2
   6   1 -11 89311.6 8106.64   2
  -6   1 -11 78026.3 9643.86   2
   1  -6  11 90229.2 9588.07   1
   6   1  11 88442.3 3211.37   4
   1   6  11 93344.6 3203.78   5
  -1  -6  11 95494.6 9151.52   1
  -1   6  11 87841.5 3148.41   5
  -1   6 -11 87934.7 9800.45   2
  -6   1 -13 72465.3 10050.1   2
   1  -6  13 80934.4 9799.09   1
   1   6 -13 78449.1 9757.45   2
  -1   6 -13 89023.1 10594.7   2
  -6  -1 -13 63782.3 9469.12   2
  -1   6  13 75863.8 3154.23   5
   6  -1  13 74009.4 3224.94   5
   6   1  13 77485.3 3075.78   5
   1   6  13 78002.2 3125.12   5
   1  -6  13 77745.9 3443.22   5
   6  -1  15 21333.7 1952.03   5
  -1   6  15 22876.9 1873.38   5
   6   1  15 23729.3 1850.27   5
   1   6  15 24601.5 1937.15   5
   6  -1  17 36084.7 2377.41   5
  -1   6  17 37327.1 2317.01   5
   1   6  17 34635.6 2232.02   5
   1   6 -17 38213.9 2555.29   3
   6   1  17 36397.4 2303.64   5
   1   6  19 20028.8 1650.41   5
   6   1  19 21989.4 1815.01   5
  -1   6  19 23587.6 1753.88   5
   6  -1  19 18697.8 1676.38   5
   1   6 -19 18118.1 1719.52   3
  -1   6  21 21280.7 1418.00   5
   1   6 -21 20063.8 1506.36   3
  -1   6 -21 20968.5 1557.96   3
   6  -1  21 20330.3 1466.95   5
   6   1  21 19228.8 1443.56   5
   1   6  21 21014.4 1433.51   5
  -1   6 -23 10395.2 839.232   3
   1   6  23 10240.8 805.011   5
  -1   6  23 10513.6 812.468   5
  -2   6   0 36292.7 2838.88   2
   2   6   0 29371.7 3680.41   2
   2  -6   0 33828.6 4047.55   1
   6  -2   0 32141.3 3146.00   1
  -2  -6   0 27736.5 3437.58   1
   2   6  -2 111357. 7158.76   2
   2  -6  -2 102262. 6759.20   1
  -2   6  -2 105191. 5996.61   2
   2  -6   2 111804. 7418.64   1
   6  -2   2 113661. 6762.54   1
  -2  -6   2 109228. 6864.74   1
   2   6  -4 21700.2 3681.11   2
  -2   6  -4 23773.2 3579.34   2
   2  -6  -4 16874.5 3011.14   1
  -2  -6   4 15633.0 3009.85   1
   6   2  -4 21042.7 3526.95   2
   6  -2   4 19557.4 3439.58   1
   2  -6   4 21642.0 3629.95   1
  -2   6  -6 813.238 1452.78   2
   2   6  -6 119.767 1747.37   2
  -2  -6   6-2582.50 1562.11   1
   6  -2   6-1733.35 1594.18   1
   6   2  -6 590.251 1445.01   2
   2  -6   6 665.913 1303.42   1
   2   6  -8 9.16953 2133.13   2
   6   2  -8 2034.95 1725.05   2
   2  -6   8 1319.47 1573.66   1
   6  -2   8 1824.58 1889.34   1
  -2  -6   8 1410.79 1294.53   1
  -6   2  -8-1568.92 2022.62   2
  -2   6  -8 556.236 1603.65   2
   2   6 -10 10483.8 3385.15   2
   6   2 -10 13064.3 3426.15   2
  -2   6 -10 3565.48 2488.84   2
  -6   2 -10 10482.5 3705.77   2
   6  -2  10 4715.02 2625.60   1
   2  -6  10 7558.02 2915.07   1
  -2  -6  10 9683.15 2975.87   1
   2  -6  12 6397.45 2950.08   1
   2   6 -12 6210.03 2870.99   2
   6   2  12 1603.57 834.560   5
   2   6  12 2400.31 796.332   5
   6   2 -12 1427.93 1902.77   2
   2   6  12 2264.56 802.885   6
  -2   6 -12 3526.51 2261.58   2
  -6   2 -12 3558.35 2642.82   2
   6  -2  12 2390.99 915.552   5
  -2   6  12 2086.44 838.738   5
  -6  -2 -12-462.570 2276.04   2
   6   2  12 1346.46 727.303   4
  -6  -2 -14 30819.3 6830.46   2
   6   2  14 32911.8 2132.83   5
  -2   6  14 32102.6 2195.07   5
   2   6  14 32582.0 2148.27   5
  -6   2 -14 18056.6 5451.03   2
  -2   6 -14 24199.1 6108.90   2
   2   6 -14 29736.3 6183.57   2
   2  -6  14 21810.1 5308.60   1
   6  -2  14 31992.8 2270.67   5
   2   6 -14 30565.7 2302.85   3
   2   6 -16 8186.49 1353.36   3
  -2   6  16 10195.5 1388.01   5
   6   2  16 11919.2 1363.19   5
   2   6  16 11871.3 1392.76   5
   6  -2  16 10705.4 1447.47   5
   6  -2  18 1340.54 886.197   5
   6   2  18 1545.36 758.150   5
   2   6  18 2242.51 827.555   5
   2   6 -18 1693.27 979.886   3
  -2   6  18 1825.58 853.424   5
   2   6 -20 2466.43 869.637   3
  -2   6  20 2379.56 736.651   5
   2   6  20 1769.37 678.532   5
   6   2  20 1649.29 716.570   5
   6   2  22-48.4378 436.306   5
  -2   6  22 309.406 438.481   5
   2   6  22 279.567 432.853   5
  -2   6 -22 120.289 522.913   3
   2   6 -22 580.616 508.846   3
   3  -6  -1 10662.7 2496.36   1
   6  -3  -1 6814.43 1643.97   1
   6  -3   1 8579.01 2138.99   1
   3   6  -1 8691.68 2575.85   2
  -3   6  -1 9433.72 1708.90   2
  -3  -6   1 6158.57 1796.52   1
   3  -6   1 9113.93 2401.97   1
   6   3  -3 23251.1 3718.91   2
   3   6  -3 22336.4 3680.03   2
  -3  -6   3 22128.0 3221.27   1
   3  -6  -3 18197.5 3082.81   1
  -3   6  -3 22289.0 3207.60   2
   6  -3   3 21566.8 3420.81   1
   3  -6   3 19873.5 3377.76   1
   6  -3   5-1072.61 1551.21   1
  -6   3  -5-2291.54 1675.57   2
  -3   6  -5 1672.90 1447.94   2
   3   6  -5 1051.34 1335.70   2
   6   3  -5 618.829 1581.11   2
  -3  -6   5 821.819 1590.12   1
   3  -6  -5 670.257 1102.44   1
   3  -6   5 874.180 1457.28   1
  -3  -6   7 9158.18 2389.40   1
   3   6  -7 10421.3 3067.55   2
   3  -6   7 12301.1 3291.21   1
  -3   6  -7 10733.9 3089.65   2
  -6   3  -7 9755.34 3061.72   2
   6  -3   7 12694.2 3231.40   1
   6   3  -7 8861.95 2991.07   2
   3  -6  -7 9654.54 2335.29   1
   6   3  -9-642.318 1529.82   2
  -6   3  -9 3863.69 2412.10   2
   6  -3   9 414.245 1640.40   1
   3  -6  -9-994.026 1037.29   1
  -3   6  -9-3505.61 2076.22   2
   3   6  -9 559.390 2112.44   2
   3  -6   9 4348.93 2441.39   1
   3   6 -11 897.859 900.760   3
   3   6  11 2708.98 879.606   4
   3  -6  11 5061.50 2924.17   1
  -3   6 -11-195.471 1711.53   2
  -6   3 -11 5758.39 2889.63   2
   6  -3  11 5035.46 2566.84   1
   6  -3  11 2022.84 805.410   5
   3   6 -11-727.188 1842.85   2
   3   6  11 3016.46 875.168   5
   3   6  11 780.810 679.150   6
   6   3 -11 1306.02 845.464   3
   6   3 -11-1684.58 1928.42   2
  -3   6  11 1048.88 721.888   5
   6   3  11 1965.95 859.120   4
   3   6 -13 11.8795 926.312   3
   6   3 -13 1800.37 1926.81   2
  -3   6  13 715.969 799.952   5
  -6  -3 -13 6661.69 3987.59   2
   3   6 -13 4638.61 2571.62   2
   6   3  13 202.818 734.250   5
   6   3  13 724.421 795.846   4
   6  -3  13 191.783 748.954   5
   3  -6  13-2522.92 2524.75   1
   3   6  13-599.655 730.323   5
   6   3 -13 1989.42 1073.54   3
  -3   6 -13-3939.13 2460.55   2
   3   6  13-433.566 842.627   4
   6  -3  15 16688.4 1799.91   5
   3   6  15 17728.6 1631.38   5
   6   3  15 18185.1 1608.21   5
   6   3 -15 17903.3 1713.54   3
  -3   6  15 17500.4 1770.88   5
   3   6 -15 15522.8 1731.15   3
   3   6  15 17463.9 1571.43   4
   3   6  17 1201.54 774.271   5
  -3   6  17 745.845 759.133   5
   6   3  17 1337.96 791.341   5
   6  -3  17 700.179 863.319   5
   3   6 -17 639.483 842.062   3
   3   6  19 3084.12 828.360   5
  -3   6  19 2069.04 806.806   5
   3   6 -19 3680.29 1018.47   3
   6   3  19 2011.02 716.630   5
   6   3  21 2941.58 710.153   5
  -3   6  21 4077.10 721.157   5
  -3   6 -21 2872.23 784.068   3
   3   6  21 4249.89 737.181   5
   3   6 -21 4493.53 854.396   3
   4   6   0 2040.11 1781.28   2
   4  -6   0-1474.41 1275.97   1
  -4  -6   0 1627.49 1264.62   1
   6  -4   0 1346.97 1183.80   1
   4   6  -2 37937.7 4782.55   2
   4  -6  -2 34999.2 4172.30   1
  -4  -6   2 32907.2 3889.88   1
   6   4  -2 35849.9 4736.84   2
   6  -4   2 31129.3 4109.37   1
   6  -4  -2 35949.7 3498.96   1
  -6   4  -2 36906.1 4092.09   2
   4  -6   2 33935.8 4417.63   1
   4   6  -4 66884.6 6517.57   2
  -6   4  -4 77094.7 6715.49   2
   6  -4   4 69848.0 6438.36   1
  -4   6  -4 70302.2 6197.78   2
  -4  -6   4 76462.6 5942.54   1
   4  -6  -4 70615.8 5881.93   1
   4  -6   4 78764.6 6926.43   1
   6   4  -4 79118.5 7054.03   2
  -4  -6   6 66176.9 5667.00   1
   6   4  -6 58182.9 6531.63   2
  -4   6  -6 61773.2 6738.14   2
   4  -6  -6 58063.4 5462.81   1
  -6   4  -6 62202.9 6880.38   2
   4  -6   6 66435.8 6931.92   1
   6  -4   6 60367.2 6542.68   1
   4   6  -6 65831.4 6982.97   2
   4  -6   8 29082.9 5341.30   1
   4   6  -8 34626.9 5427.87   2
  -4   6  -8 37628.5 5869.48   2
  -6   4  -8 40167.2 6389.18   2
   6   4  -8 35966.1 5889.73   2
   6  -4   8 43847.8 6244.82   1
   4  -6  -8 32530.8 4294.78   1
   6  -4  10 33497.6 2142.62   5
   4  -6  10 39237.8 6339.07   1
  -4   6  10 33091.2 2086.13   5
   6   4 -10 38408.9 2294.57   3
   6  -4  10 28654.7 5615.94   1
   6   4 -10 28549.7 5415.96   2
   4   6  10 35327.8 2063.84   4
  -4   6 -10 26637.2 5481.11   2
   6   4  10 37219.9 2295.38   3
   6   4  10 34278.5 2023.86   4
   4   6 -10 36528.7 6169.00   2
  -6   4 -10 37087.0 6417.22   2
   4   6 -10 32828.4 2136.35   3
   4   6  10 30043.4 1818.18   6
   4   6  12 7413.08 1194.98   4
   4   6 -12 5851.73 3439.30   2
   4  -6  12 6769.19 3038.60   1
  -6   4 -12 15284.4 4539.33   2
   6   4 -12 9817.20 1488.43   3
   6   4  12 9189.81 1139.39   5
   6  -4  12 6114.86 1210.31   5
   6  -4  12 12338.1 3884.84   1
  -4   6 -12-830.467 2120.42   2
   6   4 -12 4882.90 2787.47   2
   4   6  12 8708.89 1145.54   5
   4   6 -12 7607.09 1323.67   3
  -4   6  12 7357.19 1177.29   5
   6   4  12 7370.54 1211.75   4
   4   6 -14 1611.07 964.462   3
   6  -4  14 1629.06 899.298   5
   6   4 -14 2401.06 1016.24   3
   4   6  14 2242.23 810.012   5
   6   4  14 668.953 667.620   5
  -4   6  14 1083.81 807.432   5
   6   4  14 456.959 809.418   4
   4   6  14 40.8870 812.349   4
   4   6 -16 19215.3 1885.06   3
   4   6  16 18903.3 1597.20   4
   6   4  16 18997.3 1593.63   5
   6   4 -16 19045.5 1749.43   3
   4   6  16 18927.1 1654.06   5
  -4   6  16 19571.6 1832.49   5
   4   6  18 6094.73 1003.86   5
  -4   6  18 7413.39 1099.47   5
   6   4  18 9449.87 1154.84   5
   6   4 -18 9447.40 1164.93   3
   4   6 -18 6405.44 1190.21   3
   6   4  20 7294.94 966.081   5
   4   6  20 7974.06 942.118   5
  -4   6  20 7994.82 968.511   5
   4   6 -20 7687.57 1035.40   3
   4   6  22 4093.25 603.486   5
   6   4  22 3444.11 531.553   5
  -4   6 -22 3971.89 711.040   3
   5   6  -1 51469.9 5728.52   2
  -6  -5   1 54185.6 4441.17   1
  -5  -6   1 49925.9 4829.17   1
   6  -5   1 41968.0 4633.37   1
   5  -6   1 45153.2 5057.88   1
   6  -5  -1 32177.9 3807.55   1
   5  -6  -1 42554.0 4742.13   1
   6   5  -3 99254.9 8022.25   2
   5   6  -3 91058.2 7853.70   2
   5  -6   3 89317.8 7459.98   1
  -5  -6   3 98362.4 6601.65   1
   5  -6  -3 83609.9 6465.89   1
   6  -5   3 94035.9 7509.78   1
   6  -5  -3 87269.0 5998.55   1
   5   6  -5 204025. 12200.9   2
  -5   6  -5 202475. 11410.9   2
   5  -6  -5 201866. 10124.7   1
   6  -5   5 205967. 11911.6   1
   6   5  -5 197572. 11973.1   2
   5  -6   5 198299. 11900.6   1
  -6   5  -5 195341. 11440.6   2
  -5   6  -7 289510. 15598.3   2
   6   5  -7 272437. 14874.3   2
   5   6  -7 275397. 14991.5   2
   6  -5   7 281277. 15077.1   1
  -6   5  -7 285647. 15599.5   2
   5  -6   7 287473. 15719.8   1
   6   5  -9 173621. 12812.7   2
   5   6  -9 170619. 12806.9   2
   6   5   9 166222. 4639.88   3
  -5   6  -9 157071. 12752.3   2
  -6   5  -9 179850. 13741.7   2
   5   6   9 164241. 3915.47   6
   5   6  -9 163325. 4689.98   3
   6   5  -9 167970. 4680.13   3
   5  -6   9 177076. 13153.7   1
   6  -5   9 165256. 12585.4   1
   6   5   9 175934. 4347.60   4
  -5   6   9 171034. 4520.80   5
   5   6   9 169070. 4273.39   4
   6   5 -11 64822.2 8506.86   2
   5   6 -11 67666.1 8719.12   2
  -5   6 -11 57616.5 8768.98   2
   5   6 -11 71505.1 3239.73   3
  -6   5 -11 68939.0 9217.93   2
   5   6  11 64931.2 2909.45   4
  -5   6  11 67163.5 3020.73   5
   6   5 -11 73093.6 3278.86   3
  -6   5  11 63057.2 2867.12   5
   6   5  11 70440.3 2965.55   4
   5   6  11 69210.6 2812.03   5
   6  -5  11 70997.9 9041.01   1
   5  -6  11 70686.3 9146.91   1
  -6  -5 -13 53612.5 10929.2   2
  -5   6  13 37774.3 2366.28   5
   5   6  13 42457.6 2281.88   5
   5   6 -13 41411.6 7614.47   2
  -5   6 -13 38575.8 7808.98   2
   6   5 -13 33958.8 6667.33   2
   6   5  13 44809.8 2269.79   5
   6   5 -13 41142.5 2627.97   3
   5   6 -13 43241.8 2673.56   3
   6   5  13 38381.4 2368.85   4
  -6   5  13 37271.3 2295.43   5
  -6   5 -13 39982.6 7717.83   2
   5   6  13 36960.6 2354.15   4
   6   5  15 9719.48 1200.63   5
  -5   6  15 8969.36 1281.53   5
   5   6 -15 11489.9 1619.73   3
  -6   5  15 9451.89 1280.02   5
   5   6  15 9412.70 1212.48   5
   6   5 -15 10683.2 1497.03   3
   5   6  15 9497.52 1306.56   4
   6   5  15 9442.99 1352.29   4
   5   6 -17 41045.0 2442.29   3
   6   5 -17 39063.4 2332.61   3
   5   6  17 41537.6 2169.42   5
  -5   6  17 39539.9 2260.97   5
  -6   5  17 35868.7 2108.48   5
   6   5  17 40621.7 2213.66   5
  -5   6  19 59539.7 2341.33   5
   5   6  19 58145.7 2341.10   5
   6   5  19 58850.3 2363.08   5
   5   6 -19 61067.4 2590.03   3
   6   5 -19 56467.2 2338.32   3
   5   6  21 45458.5 1705.00   5
   5   6 -21 45435.9 1671.94   3
  -5   6 -21 47315.3 1993.53   3
   6   5  21 44624.1 1667.56   5
   6  -6   0 39029.5 4730.94   1
  -6  -6   0 40957.9 4486.33   1
   6  -6  -2 134932. 8411.96   1
   6  -6   2 132352. 9198.06   1
   6   6  -2 134890. 9793.45   2
   6   6  -4 113606. 9259.00   2
   6  -6   4 98837.6 8609.91   1
   6   6  -6 151161. 11485.4   2
  -6   6  -6 142553. 10710.9   2
   6  -6   6 139116. 10919.7   1
   6   6  -8 148317. 11927.4   2
   6   6   8 155428. 4418.71   3
  -6   6  -8 156618. 12483.8   2
   6   6   8 154767. 3898.71   6
  -6   6   8 164145. 4435.16   5
   6  -6   8 158626. 12457.5   1
   6   6   8 151413. 4186.90   4
   6   6  -8 167196. 4621.68   3
   6   6 -10 124001. 11553.9   2
   6   6  10 125797. 4080.45   3
   6   6 -10 122733. 4212.08   3
  -6   6  10 122303. 3951.48   5
   6  -6  10 122754. 11747.3   1
  -6   6 -10 127407. 12445.5   2
   6   6  10 118070. 3801.42   4
   6  -6  12 51589.7 8455.33   1
  -6   6  12 63808.1 2991.25   5
  -6   6 -12 58472.2 8885.13   2
   6   6  12 64057.6 2942.02   4
   6   6 -12 61672.3 3147.46   3
   6   6 -12 60029.6 8607.82   2
   6   6  14 26032.4 1768.63   5
   6   6 -14 24694.0 2104.73   3
  -6   6  14 23803.1 1874.54   5
   6   6  14 23543.7 1896.01   4
  -6   6  16 22398.4 1754.03   5
   6   6  16 25221.1 1718.28   5
   6   6 -16 23766.5 2006.82   3
   6   6  16 22045.5 1765.06   4
   6   6 -18 43963.1 2257.89   3
  -6   6  18 45781.8 2158.05   5
   6   6  18 48578.7 2122.25   5
   6   6 -20 41226.4 1717.39   3
   6   6  20 40570.9 1661.90   5
   0  -7  -1 13439.8 2858.08   1
   0   7   1 15514.9 2498.31   2
   0   7  -1 10464.9 2415.83   2
   0  -7   1 13770.3 3046.06   1
   0  -7   3 41518.7 4879.01   1
   0  -7  -3 42700.5 4748.05   1
   0   7  -3 42315.4 4695.98   2
   0  -7   5 63533.6 6241.22   1
   0   7  -5 63709.7 6251.27   2
   0   7  -7 90696.1 8387.58   2
   0  -7   7 98449.4 8289.42   1
   0  -7   9 34794.8 5708.55   1
   0   7  -9 34128.0 5788.45   2
   0   7 -11 74882.8 9118.22   2
   0   7  11 71238.5 2979.42   5
   7   0  11 69216.6 2957.67   5
   0  -7  11 71804.2 8609.15   1
   0   7  11 68727.8 2595.94   6
  -7   0 -11 62314.7 9179.98   2
   0  -7  13-3293.28 2487.75   1
   0   7  13 8.85544 719.688   6
   0   7 -13-5644.60 3199.82   2
   7   0  13 582.679 790.992   5
  -7   0 -13-5262.33 2731.51   2
   0   7  13 167.514 695.433   5
   7   0  15 19630.1 1764.63   5
   0   7  15 18358.1 1704.51   5
   0   7 -17 3353.35 1150.31   3
   0   7  17 4595.13 1068.46   5
   7   0  17 5021.39 1111.92   5
   0   7 -19 21194.8 1841.30   3
   0   7  19 17916.8 1527.85   5
   7   0  19 20631.7 1667.56   5
   0   7  21 23738.6 1425.92   5
   0   7 -21 27420.5 1666.78   3
   1  -7   0-697.130 1426.62   1
  -1  -7   0 192.596 1220.60   1
   1   7   0 879.275 1031.52   2
  -1   7   0 1364.09 977.947   2
   1  -7   2 3797.58 2116.58   1
   1   7  -2 1880.78 1471.95   2
  -1  -7   2 1630.25 1562.84   1
  -1   7  -2 4743.78 1646.19   2
   7  -1   2 3266.10 1490.94   1
   1  -7  -2 652.628 1360.97   1
  -1  -7  -2 1310.32 1314.07   1
   1   7  -4 17613.3 3419.44   2
   1  -7  -4 17746.8 3384.53   1
  -1   7  -4 13013.5 2828.91   2
   7  -1   4 12115.0 2705.03   1
   1  -7   4 15370.3 3325.60   1
  -1  -7   4 19117.2 3540.66   1
   7  -1   6 9846.38 2737.96   1
   7   1  -6 9852.52 2852.98   2
   1   7  -6 9311.49 2806.42   2
  -1  -7   6 9980.40 2958.57   1
   1  -7   6 11660.2 3007.79   1
  -1   7  -6 10262.5 3073.22   2
  -1  -7   8 11989.2 3117.18   1
   7   1  -8 8779.00 2472.24   2
   1   7  -8 11156.3 3453.08   2
  -1   7  -8 9606.65 3236.24   2
   1  -7   8 11018.9 3517.40   1
  -1  -7  10 7767.49 2970.93   1
   1   7  10 7089.00 969.734   6
  -1   7 -10 14991.9 4168.29   2
   1   7  10 7471.64 1087.78   5
   1  -7  10 6957.76 3111.75   1
   1   7 -10 4631.71 2494.50   2
   7   1  10 8882.84 1210.58   4
  -1   7  10 5127.26 921.086   5
  -7   1 -10 8004.46 3495.50   2
  -7  -1 -12 7516.30 3732.55   2
  -1   7  12 3936.47 887.129   6
   1  -7  12 565.926 1889.06   1
  -1  -7  12 7583.74 2958.53   1
   7  -1  12 2663.50 899.263   5
   7   1  12 3901.68 914.950   5
   1   7  12 3857.00 880.594   6
  -1   7 -12 7421.58 3530.89   2
   1   7  12 3366.39 885.201   5
  -1   7  12 3309.26 927.893   5
   1   7 -12 3964.71 2752.59   2
   7   1  12 3365.47 998.854   4
  -7   1 -12-3530.66 2736.04   2
   1   7 -14-267.901 993.434   3
   7  -1  14-393.659 787.793   5
   1   7  14 707.101 765.652   5
   7   1  14 1052.03 778.198   5
  -1   7  14 270.196 722.826   5
   1   7 -16-52.9051 1007.31   3
  -1   7  16-313.691 715.085   5
   7  -1  16 114.001 764.471   5
   7   1  16 151.022 744.015   5
   1   7  16-346.684 800.538   5
  -1   7 -18 218.018 1013.00   3
   1   7  18 1350.44 777.281   5
   7  -1  18 358.157 765.766   5
   7   1  18 1151.36 758.233   5
  -1   7  18 626.718 709.097   5
   1   7 -18-460.280 996.245   3
   1   7  20 5534.40 911.517   5
  -1   7  20 5217.98 878.292   5
   7   1  20 2848.44 693.386   5
   1   7 -20 5218.30 1009.54   3
  -1   7 -20 5878.81 1047.15   3
   1   7  22 3204.03 555.518   5
  -1   7  22 3058.95 554.976   5
   1   7 -22 3406.86 640.908   3
  -1   7 -22 3405.03 658.085   3
  -2  -7   1 2285.62 1429.07   1
  -2   7  -1 2524.92 1129.60   2
   2  -7  -1 952.140 1355.17   1
   2  -7   1 1822.21 1428.25   1
   7  -2   1 2560.46 1234.77   1
  -2  -7  -1 576.878 1406.04   1
   2   7  -1 925.542 1269.44   2
  -2  -7   3 58589.4 5723.85   1
   2   7  -3 60328.1 5910.49   2
   2  -7  -3 57195.8 5682.98   1
  -2   7  -3 56604.5 5102.15   2
   2  -7   3 56988.8 6023.39   1
   7  -2   3 53289.1 5244.89   1
   2   7  -5 3795.84 2267.63   2
   7  -2   5 4103.26 2154.02   1
  -2   7  -5 4168.11 2312.63   2
   7   2  -5 4822.68 2164.89   2
  -2  -7   5 5499.02 2301.84   1
   2  -7   5 2119.65 1792.09   1
   2  -7  -5 2889.62 1935.01   1
  -7   2  -7 152.784 1470.51   2
   2  -7   7 2257.72 1380.58   1
   7   2  -7-380.115 1419.89   2
   2   7  -7-120.127 1474.00   2
  -2   7  -7 2204.22 1703.14   2
  -2  -7   7 5133.51 2079.64   1
   7  -2   7-305.606 1798.32   1
   2  -7  -7 2327.65 1661.35   1
   7   2  -9 25293.1 4497.94   2
   2  -7   9 26675.6 5127.89   1
  -2   7  -9 23832.3 4941.63   2
   2   7  -9 23472.4 4768.16   2
  -7   2  -9 29311.0 5647.65   2
   7  -2   9 33047.5 5392.23   1
  -2  -7   9 29078.5 5043.05   1
   2   7 -11 26954.9 2075.68   3
  -2   7  11 25798.7 1671.20   6
  -2   7  11 28947.5 2007.43   5
   2   7 -11 27288.8 5620.71   2
   7  -2  11 29591.0 2051.50   5
  -2   7 -11 26913.0 5721.33   2
   2   7  11 32443.2 2016.80   5
   2   7  11 30092.3 1855.42   6
   7   2  11 30368.0 2036.31   4
   2   7  11 30465.8 1953.26   4
   2  -7  11 34947.6 6186.53   1
  -7   2 -11 30225.9 6385.28   2
   2   7 -13 2550.56 1110.84   3
   7   2  13 3874.42 1056.97   4
   2  -7  13 6603.59 2991.58   1
   7  -2  13 4459.30 1080.92   5
   2   7 -13-3274.73 2681.45   2
   7   2  13 2601.49 852.018   5
  -2   7 -13 9983.49 3867.65   2
  -2   7  13 3832.82 1054.81   5
  -7   2 -13 10108.2 3766.76   2
  -7  -2 -13 758.008 3198.65   2
   2   7  13 3824.59 982.678   5
  -2   7  15 16501.8 1669.65   5
   7  -2  15 12909.6 1561.07   5
   7   2  15 15122.0 1598.38   5
   2   7  15 16526.5 1576.61   5
   2   7 -15 16948.0 1843.54   3
   2   7 -17 7697.56 1398.83   3
   2   7  17 8456.35 1232.35   5
  -2   7  17 8470.72 1265.81   5
   7  -2  17 7107.74 1227.06   5
   7   2  17 7897.79 1170.36   5
  -2   7 -19 1857.96 915.219   3
   7   2  19 2043.44 767.774   5
   2   7  19 3969.68 815.914   5
  -2   7  19 3121.79 838.086   5
   2   7 -19 3647.40 1061.11   3
   7   2  21 5751.66 760.012   5
   2   7  21 6965.73 839.120   5
  -2   7  21 6177.84 792.356   5
  -2   7 -21 7604.28 1002.60   3
   2   7 -21 6275.55 892.958   3
  -3  -7   0 8724.42 2264.76   1
   3  -7   0 6998.46 2347.96   1
   3   7   0 6537.38 2290.95   2
   7  -3   0 7501.53 1838.40   1
   3  -7   2 21742.5 3879.81   1
   7  -3   2 16996.4 3137.53   1
   3   7  -2 19027.1 3574.69   2
  -3  -7   2 24592.3 3820.18   1
   3  -7  -2 23590.2 3871.02   1
  -3  -7  -2 23503.2 3758.91   1
   7   3  -4 89706.7 7595.79   2
   3   7  -4 90213.2 7778.09   2
   3  -7  -4 81557.0 6904.27   1
  -3   7  -4 81832.6 6675.10   2
  -7   3  -4 90294.4 8151.79   2
  -3  -7   4 92850.2 7313.63   1
   7  -3   4 72442.8 6733.71   1
   3  -7   4 80717.0 7470.00   1
   3  -7   6 10066.8 3025.10   1
   7   3  -6 15388.6 3538.27   2
   3   7  -6 12268.4 3303.23   2
  -3   7  -6 13299.3 3290.22   2
  -3  -7   6 10626.2 2796.59   1
   7  -3   6 8857.41 2678.96   1
  -7   3  -6 9849.78 3263.93   2
   3  -7  -6 13960.2 3149.56   1
  -3  -7   8 22172.1 3998.66   1
   3  -7   8 32217.1 5461.24   1
   3   7  -8 27058.1 5228.68   2
  -7   3  -8 24849.1 5114.31   2
   7  -3   8 26824.7 5103.59   1
  -3   7  -8 18517.6 4274.78   2
   3  -7  -8 23619.1 3816.95   1
   7   3  -8 27233.9 4984.14   2
   3  -7 -10 50064.6 5924.58   1
   3   7  10 50674.2 2273.96   6
   3   7 -10 49310.2 7204.05   2
   7  -3  10 50098.9 2514.63   5
   7   3 -10 43648.2 6421.70   2
   3   7  10 51790.6 2411.66   5
  -7   3 -10 47935.2 7765.09   2
   3   7 -10 50748.2 2726.60   3
   7   3 -10 55372.8 2663.49   3
   7  -3  10 52331.1 7140.41   1
  -3   7 -10 40914.2 6988.84   2
  -3   7  10 53005.8 2640.62   5
   3  -7  10 33194.0 6050.31   1
   7   3  10 51065.2 2526.58   4
   3   7  10 53928.9 2428.28   4
   3   7 -12 19598.2 5260.84   2
   3   7 -12 19483.2 1855.92   3
   3   7  12 20439.6 1600.64   6
   3  -7  12 15937.8 5049.52   1
   7  -3  12 17264.8 1697.89   5
   7   3 -12 17650.6 1814.98   3
  -3   7  12 18285.2 1742.50   5
   3   7  12 20421.2 1685.24   5
  -3   7 -12 9526.33 4009.79   2
   7   3  12 17476.3 1643.07   4
   3   7  12 20252.3 1681.08   4
   7   3 -12 17345.6 4370.05   2
  -7   3 -12 14883.7 5200.66   2
  -3   7  14 1031.13 825.232   5
   3   7  14 58.5836 716.452   4
   7  -3  14 1285.82 825.986   5
   7   3  14 635.363 648.428   5
   3   7 -14 1244.11 988.261   3
   3   7  14 521.109 702.658   5
   7   3  14 475.266 849.851   4
  -3   7  16 25636.0 1974.65   5
   3   7  16 23950.2 1850.85   5
   7  -3  16 23456.2 1945.17   5
   7   3  16 24972.8 1844.86   5
   3   7 -16 24877.4 2109.20   3
   7   3  18 7967.15 1139.38   5
  -3   7  18 8702.24 1215.90   5
   3   7  18 8979.80 1111.60   5
   3   7 -18 8525.65 1374.46   3
   3   7  20 15828.3 1205.70   5
  -3   7 -20 15094.0 1441.54   3
   7   3  20 15742.7 1258.77   5
  -3   7  20 17436.0 1307.27   5
   3   7 -20 15933.0 1389.56   3
  -3   7 -22 16227.9 1074.46   3
   3   7  22 16170.4 950.861   5
  -4  -7   1 2320.62 1442.87   1
   4   7  -1 3296.54 1871.47   2
   4  -7  -1 1358.11 1463.39   1
   4  -7   1 1557.20 1559.61   1
   7  -4   1 47.4608 1039.75   1
  -4  -7  -1 2326.25 1479.70   1
  -4  -7   3-2404.95 1528.38   1
   4   7  -3 2863.41 1806.07   2
   4  -7  -3 462.118 1485.26   1
  -7   4  -3-350.588 1135.49   2
   4  -7   3 181.125 1349.90   1
   7  -4   3-2347.87 1585.64   1
   7  -4   5 7239.00 2678.81   1
   4  -7  -5 5658.65 1977.44   1
   7   4  -5 7148.70 3003.14   2
  -7   4  -5 7772.92 2592.21   2
   4   7  -5 3588.51 2137.26   2
  -4  -7   5 12085.9 2810.32   1
  -4   7  -5 3654.78 1773.18   2
   4  -7   5 2789.03 1940.01   1
   4  -7  -7 3215.42 1568.96   1
   7   4  -7 497.714 1822.72   2
   4   7  -7-715.410 1711.98   2
   7  -4   7 1446.06 1844.92   1
   4  -7   7 3044.47 2145.06   1
  -4   7  -7 3011.13 1915.52   2
  -7   4  -7 1959.97 1609.64   2
   7   4   9 30.0240 738.809   4
   7  -4   9 711.039 1705.15   1
   4   7   9 176.451 644.967   6
   7   4  -9 8234.12 3217.39   2
   4   7  -9 4624.86 2712.65   2
   4   7  -9-295.335 828.760   4
   4   7   9 102.195 641.623   4
   4  -7   9-4532.94 2630.54   1
   7   4   9 760.642 856.961   3
  -4   7  -9-1555.56 1449.76   2
  -4   7   9-179.541 667.469   5
  -7   4  -9 9898.15 3418.83   2
   7   4  -9 95.6297 790.704   3
   4   7  -9 866.357 845.207   3
   4   7  11 1945.52 794.968   4
   7   4 -11 2541.51 1036.97   3
   4  -7  11 3345.00 2891.25   1
   7  -4  11-2156.98 2024.41   1
   4   7  11 2295.40 825.049   6
   4   7 -11 369.579 1900.71   2
  -4   7 -11-1531.23 1945.79   2
   7   4 -11 3206.40 2638.64   2
   4   7 -11 2247.94 1012.78   3
   4   7  11 2196.53 783.818   5
  -4   7  11 2436.96 956.960   5
   4   7 -11 1046.75 712.200   4
  -7   4 -11-982.026 1285.31   2
   7   4  11 1197.70 824.677   4
   4   7 -13 2799.99 870.375   4
   4   7  13 3362.58 871.720   5
  -4   7  13 3618.08 1034.68   5
   7   4 -13 3776.60 1136.80   3
   4   7 -13 4948.95 1285.23   3
   7   4  13 3959.90 1074.23   4
   4   7  13 4339.05 1026.58   4
   7   4  15 1698.14 713.418   5
   4   7  15 962.432 717.673   4
   4   7  15 1138.45 662.072   5
  -4   7  15 1280.29 809.675   5
   7   4  15 856.626 822.235   4
   7   4 -15 1653.89 835.586   3
   4   7 -15 959.942 932.825   3
   4   7 -17 33.6460 854.677   3
   4   7  17-471.558 706.069   5
  -4   7  17-994.558 772.308   5
   7   4  17 435.067 635.973   5
   7   4  19 2926.85 727.493   5
   4   7  19 2439.05 690.459   5
   4   7 -19 1542.19 798.330   3
  -4   7  19 1712.66 643.328   5
  -4   7 -21 2055.52 628.769   3
   7   4  21 1913.77 453.311   5
   4   7  21 2254.45 514.821   5
  -4   7  21 1959.75 484.253   5
   4   7 -21 2162.25 590.748   3
  -5  -7   0 46850.3 5049.67   1
   7  -5   0 28833.9 4152.39   1
   5  -7   0 42640.3 5332.47   1
  -5  -7   2 18759.4 3410.54   1
   5   7  -2 15352.0 3514.73   2
   5  -7  -2 18146.0 3449.39   1
   7  -5   2 18555.2 3661.86   1
   5  -7   2 20402.9 3866.30   1
   5  -7   4 11424.4 3128.09   1
   5  -7  -4 15799.5 3333.97   1
   7   5  -4 12952.7 3614.62   2
   5   7  -4 12255.3 3497.77   2
   7  -5   4 13431.8 3233.42   1
   7  -5   6 8489.68 2860.47   1
   5  -7   6 11995.0 3743.00   1
   7   5  -6 12547.9 3689.76   2
   5   7  -6 11663.3 3485.50   2
   5  -7  -6 12876.2 2995.07   1
  -7   5  -6 9013.32 2882.37   2
   7   5  -8 40237.4 6390.89   2
   7   5   8 44620.9 2509.83   3
   5   7  -8 40709.4 6583.58   2
  -5   7   8 41260.1 2420.91   5
   7   5  -8 42756.2 2499.90   3
   5   7  -8 43803.3 2527.42   3
   7   5   8 47666.4 2367.41   4
   5  -7   8 42084.7 6762.73   1
  -5   7  -8 40809.2 6276.80   2
   7  -5   8 45063.7 6625.81   1
   5   7   8 44718.2 2414.05   3
   5   7   8 44323.4 2180.43   6
   5   7   8 46989.8 2294.58   4
  -7   5  -8 41203.2 6449.80   2
   5   7  -8 45023.3 2241.26   4
   5   7  10 15071.4 1563.98   3
   5  -7  10 4057.43 2445.99   1
   7  -5  10 16865.5 4485.89   1
   5   7  10 16358.0 1465.28   6
   5   7 -10 13708.0 4092.26   2
   7   5  10 16529.0 1718.75   3
   5   7 -10 15635.7 1516.88   4
   7   5 -10 17626.4 1814.43   3
   7   5 -10 12312.6 4563.33   2
   5   7  10 16847.0 1558.90   4
  -5   7  10 13954.4 1604.12   5
  -5   7 -10 5708.11 2886.62   2
   7   5  10 16274.5 1575.21   4
  -7   5 -10 23038.2 5224.49   2
   5   7 -10 16314.5 1778.58   3
   5   7  12 5604.30 946.461   5
   7   5 -12 7113.90 3079.20   2
   5   7 -12 5469.98 2562.21   2
  -5   7 -12 7459.60 3083.23   2
  -5   7  12 7365.54 1230.63   5
  -7   5 -12 8394.83 3482.90   2
   7   5 -12 9208.27 1445.53   3
   5   7 -12 7873.60 1466.87   3
   5   7  12 5945.62 1129.60   4
   7   5  12 8232.19 1310.60   4
   5   7  14 3677.94 844.657   5
   7   5 -14 3716.75 1122.78   3
  -5   7  14 3775.89 1049.08   5
   5   7 -14 3705.68 1224.86   3
   7   5  14 2835.84 971.218   4
   5   7  14 4253.89 1060.68   4
   7   5  16 21161.0 1625.79   5
   7   5 -16 21548.5 1844.11   3
   5   7  16 24090.1 1713.42   5
   5   7 -16 21781.6 1934.19   3
  -5   7  16 25323.6 1891.94   5
   5   7  16 24717.4 1761.37   4
   7   5 -18 3769.89 841.999   3
  -5   7  18 3380.33 785.971   5
   7   5  18 4128.84 764.421   5
   5   7  18 4777.99 783.549   5
   5   7 -18 4857.79 1023.78   3
   7   5  20 1912.97 497.842   5
   5   7  20 2511.87 549.649   5
  -5   7  20 2169.74 526.028   5
   5   7 -20 1747.23 591.573   3
  -5   7 -20 2697.74 728.500   3
   7  -6  -1 35688.5 4586.15   1
  -6  -7  -1 48310.6 5226.22   1
   6  -7  -1 46993.0 5601.41   1
   6  -7   1 44407.6 5582.26   1
   7  -6   1 52991.6 5801.30   1
   6  -7   3 21539.8 4427.46   1
   6   7  -3 25831.8 4645.17   2
   7  -6   3 24168.1 4033.84   1
   6  -7  -3 23998.2 3982.20   1
   7   6   5 18599.2 1659.21   3
   7  -6   5 14643.5 3845.86   1
   6  -7   5 18413.9 4098.23   1
   7   6  -5 17920.6 4122.63   2
   6   7  -5 12048.9 3688.28   2
   7   6  -5 15819.5 1550.19   3
   6   7  -5 17220.8 1601.77   3
   7   6   5 14917.1 1390.82   4
   6   7   5 15659.7 1394.00   4
   7   6   7 10971.5 1415.68   3
  -6   7   7 9718.03 1276.04   5
   6  -7   7 10734.5 3413.08   1
   6   7   7 11446.1 1391.91   3
  -7   6   7 8238.72 1082.48   5
   6   7   7 11304.0 1269.00   6
   6   7  -7 10048.0 1423.12   3
   7  -6   7 4339.77 2269.69   1
   7   6  -7 12070.5 3969.41   2
   7   6  -7 10626.1 1454.61   3
   6   7  -7 11342.7 3616.63   2
   6   7  -7 11451.8 1296.74   4
   7   6   7 12288.5 1353.82   4
   6   7   7 10903.0 1311.13   4
   6   7   9 19956.7 1763.85   3
   6   7  -9 17288.2 4664.35   2
   7  -6   9 24627.8 5375.20   1
   7   6  -9 18631.5 5109.97   2
   7   6  -9 20916.0 1916.56   3
   6   7  -9 22269.6 2003.54   3
  -7   6   9 20266.8 1750.23   5
  -6   7   9 19199.6 1771.54   5
   6  -7   9 20457.2 4850.75   1
   7   6   9 19891.5 1805.96   3
   7   6   9 19106.3 1697.14   4
   6   7   9 20387.9 1682.12   4
   6   7 -11 17156.2 4941.24   2
   7   6  11 21549.4 1829.00   4
   6   7 -11 23225.9 2081.91   3
   7   6 -11 19869.8 1966.73   3
   7   6 -11 17378.3 4833.11   2
  -6   7  11 19319.4 1791.67   5
  -7   6  11 20698.0 1802.95   5
   6   7  11 20593.2 1755.17   4
   6   7  13 12199.4 1436.89   4
   7   6 -13 16824.0 1772.02   3
   6   7 -13 14029.2 1699.38   3
  -7   6  13 11798.0 1429.28   5
  -6   7  13 13078.7 1544.60   5
   7   6  13 14760.5 1625.80   4
  -7   6  15 14089.6 1493.33   5
   7   6 -15 11704.8 1547.27   3
   6   7  15 12768.9 1271.29   5
  -6   7  15 12684.3 1436.23   5
   6   7 -15 13031.9 1618.12   3
   7   6  15 11861.7 1412.13   4
   6   7  15 11480.3 1352.30   4
   6   7  17 7424.61 941.178   5
  -6   7  17 6653.26 1018.70   5
   6   7 -17 5161.37 1056.13   3
   7   6 -17 6445.72 1080.29   3
  -6   7  19 4566.68 673.314   5
   6   7  19 3067.84 565.169   5
   7   6 -19 4575.38 705.384   3
   6   7 -19 5189.40 843.643   3
   7  -7   0 22956.9 4172.70   1
   7   7   0 34933.4 2117.57   3
   7   7   2 2847.47 855.315   4
   7   7   2 2220.17 859.321   3
   7  -7   2 1384.70 1498.92   1
   7   7  -2 2211.46 867.793   3
   7   7   4-281.832 727.513   4
   7   7  -4 379.713 589.559   4
   7   7   4 65.6619 852.896   3
   7   7  -4-132.216 799.328   3
   7   7   6 1797.89 772.503   4
   7   7  -6 2269.39 2582.21   2
   7   7   6 1819.11 909.050   3
   7   7   6 721.967 694.647   6
   7  -7   6-558.242 1237.90   1
   7   7  -6 978.413 890.082   3
   7  -7   8 488.360 1903.46   1
  -7   7   8 1048.82 726.223   5
   7   7   8-57.4473 801.417   3
   7   7  -8 764.662 980.677   3
   7   7   8 1305.54 844.540   4
   7   7  10 1887.03 926.884   4
   7   7  10 2012.46 947.821   3
  -7   7  10 1977.37 806.992   5
   7   7 -10 596.829 977.386   3
   7   7 -12 1627.17 1012.34   3
  -7   7  12 680.997 671.354   5
   7   7  12 1345.73 874.114   4
   7   7  14 3372.75 973.766   4
  -7   7  14 4519.88 974.585   5
   7   7 -14 3470.47 1173.64   3
  -7   7  16 1782.90 735.904   5
   7   7 -16 2177.61 859.351   3
   7   7  16 862.811 669.198   4
   7   7 -18-569.218 624.302   3
  -7   7 -20 566.416 390.412   3
   0  -8   0 4384.73 2264.62   1
   0   8   0 5570.44 2060.74   2
   0  -8  -2 11181.2 3049.92   1
   0  -8   2 10543.1 3036.15   1
   0   8  -2 10031.7 2605.41   2
   0  -8   4 20659.2 3894.19   1
   0   8  -4 20097.7 3771.63   2
   0  -8  -4 19162.8 3738.67   1
   0  -8  -6 10965.9 3200.43   1
   0   8  -6 11691.7 3083.78   2
   0  -8   6 15475.3 3561.94   1
   0  -8   8 15810.8 3912.66   1
   0   8  -8 17548.2 4348.40   2
   0  -8  10 28995.7 5765.32   1
   0   8  10 36449.5 2233.52   5
   0   8 -10 32545.3 2282.38   3
   0   8  10 31770.4 1885.07   6
   0   8 -10 28391.3 5551.82   2
   8   0  10 41889.2 2287.54   4
   8   0  12 27947.8 2090.09   5
   0  -8  12 35291.6 6523.02   1
   0   8  12 25701.4 1778.55   6
   0   8  12 26248.8 2007.97   5
  -8   0 -12 27314.8 6460.54   2
   0   8 -12 25537.7 2180.12   3
   0   8 -12 19750.2 5052.92   2
   8   0  14 2322.00 978.767   5
   0   8  14 1625.34 810.744   5
   0   8 -14 468.770 944.030   3
   0   8 -16 1530.23 1034.66   3
   0   8  16 2008.71 866.380   5
   8   0  16 1613.68 782.622   5
   8   0  18 548.390 645.037   5
   0   8  18 1466.79 723.961   5
   0   8 -18 1984.50 1029.00   3
   0   8 -20 69.8018 653.397   3
   0   8 -20-362.446 504.932   4
   0   8  20 51.4805 469.469   5
   0   8  22 1008.68 393.509   5
   0   8 -22 1171.20 465.145   3
   1   8  -1 24380.3 3886.94   2
  -1   8  -1 22323.6 3243.52   2
  -1  -8  -1 25586.8 4210.00   1
   1  -8  -1 24145.4 4197.46   1
  -1  -8   1 27452.9 4462.66   1
   1  -8   1 23097.2 4055.48   1
   1  -8  -3 205.982 1321.44   1
   1  -8   3-1773.50 1580.29   1
   1   8  -3 1948.76 1593.01   2
  -1   8  -3-2566.74 1441.25   2
  -1  -8  -3-2071.13 1545.82   1
  -1  -8   3-388.178 1617.88   1
  -1  -8  -5-2097.72 1680.53   1
   1   8  -5 291.511 1444.35   2
   1  -8  -5-100.678 1179.64   1
  -1   8  -5-2485.58 1600.46   2
   1  -8   5-590.757 1366.57   1
   1  -8  -7 6392.82 2489.83   1
   1   8  -7-2254.42 2055.72   2
  -1   8  -7 5388.47 2545.23   2
  -1  -8   7 6776.19 2528.04   1
   1  -8   7-1182.59 1591.03   1
   1   8  -9 1748.32 890.868   3
  -1  -8   9 870.747 2172.51   1
  -1   8   9 2612.07 803.136   6
   1  -8   9 543.229 1613.46   1
  -8   1  -9 1168.58 2144.32   2
   1   8  -9-2199.47 2074.75   2
  -1   8  -9 2499.38 1941.14   2
   1   8   9 2312.35 757.946   5
  -1   8   9 1587.07 704.987   5
   1   8   9 2057.92 782.879   6
   1  -8  -9 3010.57 1802.82   1
   8   1   9 3286.99 918.039   4
   1   8 -11 4305.08 1158.89   3
  -1   8  11 4074.27 1013.45   5
   1   8  11 5123.18 1017.67   6
  -1   8 -11 5508.10 3041.70   2
  -1   8  11 4496.83 984.820   6
   8  -1  11 3367.26 859.944   5
   1   8 -11 1345.52 2077.11   2
   1   8  11 3404.82 907.703   5
   1  -8  11 4275.59 2586.22   1
  -1  -8  11 1318.48 1536.62   1
   8   1  11 6315.07 1190.46   4
  -8   1 -11 1947.56 2618.66   2
   1   8  13 14262.1 1431.04   6
  -1   8  13 14253.0 1594.08   5
   8  -1  13 13592.3 1564.64   5
   8   1  13 14056.8 1586.24   5
   1   8  13 14105.5 1542.65   5
   1   8 -13 13083.6 1723.74   3
  -1   8  13 14314.2 1435.43   6
   1   8 -15 2730.68 1147.98   3
  -1   8 -15 2411.79 1148.77   3
   8  -1  15 3532.23 952.676   5
   8   1  15 3008.00 942.394   5
   1   8  15 3116.42 969.867   5
  -1   8  15 2911.98 936.998   5
   1   8 -17 767.506 925.579   3
  -1   8 -17 273.265 961.286   3
   8  -1  17 585.785 728.850   5
   8   1  17 192.192 769.993   5
   1   8  17 100.769 661.551   5
  -1   8  17 302.066 702.086   5
   1   8 -19 164.069 619.870   4
   8   1  19 828.803 589.344   5
   1   8  19 822.629 609.888   5
  -1   8  19 1011.76 653.776   5
   1   8 -19 828.966 785.972   3
  -1   8 -19 1431.83 852.259   3
  -1   8 -21 1365.08 608.597   3
   1   8  21 847.083 445.162   5
  -1   8  21 1074.21 485.645   5
   1   8 -21 1520.93 651.699   3
  -2  -8   0 20743.4 3714.19   1
   2   8   0 14182.8 2990.60   2
   2  -8   0 20006.9 3912.45   1
   2   8  -2 71662.4 6900.35   2
  -2  -8  -2 77915.7 7055.98   1
   2  -8  -2 75178.5 7082.47   1
   2  -8   2 87242.6 7843.82   1
  -2  -8   2 87180.7 7648.35   1
   2   8  -4 35687.4 5158.28   2
   2  -8  -4 31658.1 4781.85   1
  -2   8  -4 39064.1 4929.32   2
  -2  -8   4 34283.7 4996.89   1
   2  -8   4 32215.4 5040.26   1
   8  -2   4 28631.1 4165.30   1
  -2  -8  -4 31311.2 4914.99   1
   8  -2   6 10291.7 2897.27   1
  -2   8  -6 19393.5 3835.50   2
  -2  -8   6 17386.5 3691.26   1
   2   8  -6 16578.6 3925.14   2
   2  -8   6 20231.2 4245.83   1
   2  -8  -6 20137.8 3897.77   1
   8   2  -8 41731.3 5942.72   2
  -2  -8   8 35842.3 5555.55   1
   2  -8  -8 41803.2 5467.58   1
   2   8  -8 40990.0 6492.60   2
   2   8   8 37946.0 1931.93   6
  -8   2  -8 36182.7 6585.45   2
  -2   8  -8 33804.7 6109.50   2
  -2   8   8 40056.8 2280.30   5
   2  -8   8 38967.7 6219.97   1
   2   8  -8 39639.3 2353.86   3
   8   2   8 44134.9 2461.29   3
   8   2   8 41290.4 2220.46   4
   2   8  10 70647.5 2746.81   4
   2  -8 -10 75627.8 7511.29   1
   2   8  10 63909.3 2578.38   6
   2   8 -10 60376.8 8102.08   2
  -2   8 -10 62932.2 8617.13   2
   2   8 -10 60176.4 3072.76   3
   8  -2  10 68286.6 2928.04   5
   2   8  10 70049.3 2943.10   5
   2  -8  10 67354.7 8802.35   1
  -2   8  10 66863.4 2975.29   5
   8   2  10 69252.3 2970.02   4
  -2   8  10 63776.0 2523.47   6
  -8   2 -10 72843.7 9796.37   2
  -8  -2 -12 5422.05 3511.54   2
  -2   8  12 3978.80 896.558   6
   2  -8  12 10510.0 3936.28   1
   2   8  12 5386.81 1057.22   6
   8  -2  12 5580.96 1086.87   5
  -2   8 -12 6631.17 3484.55   2
   2   8 -12 4518.35 2578.45   2
   2   8  12 4882.09 1009.41   5
  -2   8  12 4136.64 1018.84   5
   2  -8 -12 13003.8 3349.93   1
  -8   2 -12-3306.55 2690.31   2
   8   2  12 5674.84 1120.66   4
   2   8 -12 4774.48 1201.03   3
   8  -2  14 65934.1 3078.35   5
   8   2  14 61576.8 2980.32   5
   2   8  14 61241.7 2883.46   5
   2   8 -14 61294.8 3230.95   3
  -2   8  14 61422.4 2990.18   5
   8   2  16 38741.2 2253.45   5
   2   8  16 40143.6 2280.52   5
  -2   8  16 40149.1 2392.30   5
   2   8 -16 37703.2 2585.28   3
   8   2  18 21569.5 1570.80   5
   2   8  18 20903.7 1563.40   5
  -2   8  18 22499.7 1705.46   5
   2   8 -18 22059.5 1862.28   3
  -2   8 -18 20262.2 1840.84   3
   2   8 -18 19734.3 1409.23   4
  -2   8 -20 9668.69 1120.42   3
   2   8  20 10712.7 978.694   5
  -2   8  20 10517.2 1021.13   5
   2   8 -20 10021.7 1132.46   3
   3   8  -1 67753.1 6698.13   2
   3  -8  -1 67822.7 6886.37   1
  -3  -8  -1 76498.1 7000.00   1
  -3  -8   1 72435.6 6951.93   1
   3  -8   1 73053.8 7090.35   1
  -3  -8  -3 99208.0 8089.10   1
   3   8  -3 82351.6 7662.21   2
   3  -8  -3 83195.5 7530.44   1
  -3  -8   3 89815.4 7788.15   1
   3  -8   3 81076.9 7860.03   1
   8  -3   3 69577.2 6303.32   1
   3   8  -5 50951.6 6526.10   2
   3  -8  -5 58082.6 6523.29   1
  -3  -8   5 56384.8 6337.73   1
   3  -8   5 58898.0 6948.10   1
   8  -3   5 50125.8 6042.33   1
  -3   8  -5 46919.5 5610.45   2
  -8   3  -5 60626.3 7505.03   2
   8   3  -7 59269.3 7451.29   2
  -3   8   7 69649.6 2983.80   5
   3  -8  -7 61215.1 6786.57   1
   3   8  -7 63119.0 7872.23   2
  -3   8  -7 63553.2 7311.69   2
  -8   3  -7 52308.4 7655.24   2
   3   8   7 67652.8 2511.20   6
   8   3   7 72597.1 3079.26   3
  -3  -8   7 75956.8 7598.03   1
   3  -8   7 65660.0 7772.58   1
   8  -3   7 64565.1 7433.76   1
   3   8  -7 67155.6 3010.53   3
   8   3   9 88326.7 3562.46   3
  -3   8   9 78522.1 2699.95   6
   8   3  -9 90961.7 9178.79   2
   3  -8  -9 81093.7 7882.70   1
   3   8  -9 83657.5 9406.48   2
   3   8   9 89173.4 2994.08   6
  -3   8  -9 88536.1 9511.79   2
  -8   3  -9 94480.0 10421.1   2
   8   3  -9 90882.1 3339.79   3
   3   8  -9 91628.0 3590.23   3
   3   8   9 93179.5 3163.04   5
   3  -8   9 95463.6 10091.2   1
  -3   8   9 93523.8 3486.50   5
   8   3   9 95056.7 3319.59   4
   3   8   9 89581.4 3087.87   4
   8  -3   9 82924.6 8861.42   1
   3   8  11 50334.2 2480.23   5
   3   8  11 47782.6 2348.72   6
  -3   8  11 46651.7 2646.20   5
   3   8 -11 50611.7 2859.63   3
   3   8 -11 42143.3 7171.54   2
  -3   8 -11 53325.0 8052.93   2
   8   3  11 44657.8 2535.23   4
   3   8  11 48163.1 2477.25   4
  -8   3 -11 33577.8 6851.71   2
   3  -8  11 49809.6 7636.88   1
  -3   8  13 23027.2 1946.77   5
   3   8  13 24220.0 1869.10   5
   3   8 -13 23169.1 2110.73   3
   8   3  13 21983.5 1919.67   4
   3   8  13 21237.9 1678.91   4
   8   3  15 78931.1 3144.53   5
   3   8 -15 78041.9 3575.71   3
  -3   8  15 84293.6 3400.60   5
   3   8  15 80701.3 3155.30   5
   3   8 -15 76906.2 3070.10   4
  -3   8  17 38953.5 2225.22   5
   3   8  17 39991.1 2106.07   5
   3   8 -17 35553.6 2358.54   3
   8   3  17 38827.2 2121.76   5
  -3   8 -19 20303.4 1597.09   3
  -3   8  19 23951.8 1589.83   5
   8   3  19 20857.9 1347.51   5
   3   8  19 22219.3 1402.36   5
   3   8 -19 24133.5 1746.94   3
   3   8  21 20972.3 1094.27   5
  -3   8 -21 22567.6 1308.23   3
   3   8 -21 22866.3 1262.33   3
  -3   8  21 20948.1 1135.74   5
  -4  -8   0 8044.89 2402.70   1
   4  -8   0 8346.51 2667.16   1
   8  -4   2-2915.13 1589.36   1
  -4  -8   2 1356.25 1570.23   1
   4   8  -2 569.817 1363.87   2
   4  -8   2-483.112 1265.63   1
   4  -8  -2 1523.58 1308.25   1
  -4  -8  -2 341.630 1249.48   1
   4   8  -4 20793.4 4414.31   2
   8  -4   4 19402.3 3860.79   1
  -4  -8   4 17566.8 3644.35   1
   4  -8   4 22707.1 4495.62   1
   4  -8  -4 22751.3 4182.70   1
   8   4  -6 32713.1 5569.60   2
   4   8  -6 34682.1 5758.49   2
   4  -8  -6 32341.5 5035.03   1
   4   8  -6 34321.8 2198.98   3
   4  -8   6 31666.9 5682.65   1
   8  -4   6 27271.8 4956.67   1
   8   4   6 36786.2 2284.20   3
   8   4   6 34130.1 2084.13   4
   4   8   6 33316.8 1900.21   4
  -8   4  -6 33466.7 5613.63   2
   4  -8  -8 29490.0 4749.37   1
   4   8   8 27967.3 1748.26   6
   8   4  -8 32742.0 5760.98   2
   8   4  -8 32036.5 2117.57   3
   4  -8   8 27448.4 5602.61   1
   4   8  -8 31906.9 2235.31   3
  -4   8   8 27647.3 2053.74   5
  -4   8  -8 29881.7 5506.93   2
   8   4   8 32146.9 1992.01   4
   8   4   8 30526.8 2157.25   3
   4   8   8 28965.1 1884.91   4
   8  -4   8 25778.9 5119.96   1
   4   8  -8 26551.5 5457.20   2
  -8   4  -8 21766.5 4967.42   2
   4   8  -8 27619.2 1940.41   4
   4   8  10 5382.22 1066.33   4
  -8   4 -10 13574.2 4049.41   2
   4   8 -10 7064.37 1150.23   4
   8   4  10 3747.35 1158.97   3
   8  -4  10-3681.11 2462.80   1
   4   8  10 5567.38 1043.78   6
   8   4 -10 7905.57 3712.98   2
   4   8 -10 8771.52 1456.13   3
   4   8  10 6827.75 1080.46   5
   4   8 -10 2596.74 2485.59   2
  -4   8  10 5732.76 1201.89   5
  -4   8 -10 6771.84 3341.45   2
   4  -8  10 2655.57 2396.66   1
   8   4 -10 3673.26 1102.17   3
   8   4  10 5179.00 1140.90   4
   8   4  12 18442.7 1722.47   4
   4   8 -12 16276.1 1598.70   4
   8   4 -12 16692.3 1768.25   3
   4   8 -12 17730.7 1900.23   3
   4   8  12 17248.6 1530.35   5
  -4   8  12 15380.7 1713.36   5
   4   8  12 15285.0 1542.93   4
   4   8 -14 5336.28 1011.80   4
   4   8  14 5872.55 1003.39   5
   4   8 -14 5751.27 1313.80   3
  -4   8  14 5416.56 1160.98   5
   8   4 -14 3593.02 1001.21   3
   8   4  14 5322.54 1145.93   4
   4   8  14 5912.54 1072.52   4
   4   8  16 4682.15 868.431   5
  -4   8  16 5288.52 1051.75   5
   4   8 -16 5569.66 1238.12   3
   4   8  16 3254.35 805.092   4
  -4   8 -18 8072.58 1185.06   3
  -4   8  18 8723.23 1094.52   5
   4   8  18 9129.15 998.919   5
   4   8 -18 9681.24 1270.59   3
   4   8  20 10315.9 849.321   5
  -4   8  20 11813.3 965.703   5
  -4   8 -20 11197.4 1113.97   3
   4   8 -20 12936.1 1116.85   3
  -5  -8   1 10086.9 2979.63   1
   5  -8  -1 13534.4 3209.35   1
   5  -8   1 8215.53 2848.17   1
  -5  -8  -1 8487.23 2627.42   1
   5   8  -3 12443.3 3561.57   2
   5  -8  -3 12564.8 3191.95   1
  -5  -8  -3 17480.3 3500.04   1
   5  -8   3 16774.1 4133.38   1
   8  -5   3 13890.2 3167.05   1
   8   5   5 1847.55 717.420   4
   5   8   5 1946.72 721.267   4
   5  -8   5-696.886 1226.46   1
   5   8  -5 2078.63 754.401   4
   5  -8  -5-1605.52 1649.22   1
   5   8   5 2398.66 743.494   6
   5   8  -5-10.9179 2009.03   2
   8   5   5 2331.99 840.460   3
   8   5  -5 2526.03 903.080   3
   5   8  -5 2245.94 823.064   3
   8   5   7 7562.80 1186.72   4
   5   8   7 7085.29 1080.06   4
   5   8   7 6489.50 1060.60   6
   5   8  -7 6302.15 1076.77   4
   8   5  -7 7078.62 2918.07   2
   5  -8   7 10389.8 3568.25   1
   5   8  -7 4180.71 2543.51   2
   8   5   7 5763.14 1161.08   3
   5   8   7 5611.13 1125.02   3
   8  -5   7 6125.37 2602.09   1
  -5   8   7 5724.15 1146.86   5
   8   5  -7 7098.24 1235.12   3
   5   8  -7 7490.63 1272.28   3
   8   5   9-77.0877 850.244   4
   5   8   9 678.716 819.591   4
   5   8   9 1258.92 871.321   6
   8  -5   9 5808.88 2758.74   1
   8   5  -9 8621.13 3664.81   2
   5   8  -9 6363.10 2865.84   2
  -5   8   9 365.343 766.086   5
   8   5   9 118.472 861.752   3
   5   8   9-2703.09 913.448   3
   8   5  -9 426.895 824.487   3
   5   8  -9 674.752 742.215   4
   5  -8   9-6154.83 2752.63   1
   5   8  -9 1850.71 1009.38   3
   5   8  11-597.225 847.670   4
   5   8 -11-705.404 798.376   4
  -5   8  11 408.869 792.565   5
   8   5 -11 813.343 932.176   3
   5   8 -11 732.671 1007.68   3
   8   5  11 98.1357 790.644   4
   8   5  13-109.281 806.018   4
   5   8  13 238.727 563.973   5
  -5   8  13 167.344 737.331   5
   8   5 -13-656.414 976.932   3
   5   8 -13 1338.35 1040.96   3
   5   8  13 275.646 725.438   4
  -5   8  15 9114.11 1284.12   5
   5   8  15 7757.60 1030.54   5
   8   5  15 7853.39 1231.37   4
   5   8  15 8840.36 1239.48   4
   8   5 -15 6455.42 1196.09   3
   5   8 -15 8074.94 1390.37   3
   5   8 -17 877.452 890.917   3
   5   8  17 1162.64 578.316   5
  -5   8  17 1825.93 796.097   5
   5   8 -19 2110.73 690.071   3
  -5   8 -19 2410.41 748.745   3
   5   8  19 3115.09 573.446   5
  -5   8  19 2525.37 615.348   5
   6   8   0 240.545 620.855   4
   6   8   0 69.4827 756.746   3
   6  -8   0 94.4893 1222.25   1
   8   6   0 326.530 760.925   3
   8   6   2 20776.1 1803.51   3
   8   6  -2 23559.6 1822.94   3
   6   8   2 19921.6 1677.85   3
   6   8  -2 19947.0 1707.80   3
   6  -8  -2 17898.6 3946.89   1
   6   8   2 18437.6 1548.31   4
   6   8  -2 19483.1 1581.24   4
   8   6   2 19165.2 1556.72   4
  -6  -8  -2 14966.0 3434.62   1
   6  -8   2 16140.2 3883.02   1
   8   6   4 3269.09 956.429   4
   6   8   4 1233.92 702.912   4
   8   6  -4 1812.32 960.233   3
   6   8  -4 2388.31 854.018   4
   6  -8   4-1860.02 1812.92   1
   6   8  -4 549.716 1620.88   2
   8   6   4 1838.13 866.829   3
   6   8   4 1930.95 876.716   3
   6   8  -4 2572.25 920.006   3
   6   8   4 1483.42 765.902   6
   8   6  -6 5854.87 2810.04   2
   8   6   6 2624.97 846.636   4
   6   8   6 2931.82 905.679   4
   6   8  -6 2925.65 897.481   4
   6   8  -6-328.730 1723.21   2
   6  -8   6 5394.79 2729.28   1
   8   6   6 2079.54 941.017   3
   6   8   6 2360.50 909.006   3
   6   8   6 3090.40 871.594   6
   8   6  -6 3232.65 1026.03   3
   6   8  -6 2596.74 1052.41   3
   8  -6   6 3003.27 2106.72   1
   8   6   8 4838.63 1055.86   4
   6   8   8 5238.29 1047.60   4
   6   8  -8 7010.55 1132.29   4
   6   8   8 5827.92 1079.08   6
   8   6  -8 11117.5 3725.52   2
   6   8  -8 10688.0 3922.97   2
   8   6   8 5098.47 1221.85   3
   6   8   8 5286.54 1084.32   3
   8  -6   8 5944.20 2762.30   1
  -6   8   8 3410.73 1009.65   5
   6  -8   8 6165.02 2873.27   1
   8   6  -8 4155.72 1191.02   3
   6   8  -8 4862.01 1200.24   3
   8   6  10 1394.53 916.545   4
   6   8  10 404.928 766.095   4
   6   8  10 1303.12 795.293   3
   8   6  10 1887.63 1073.45   3
  -6   8  10 630.194 758.659   5
   8   6 -10-109.087 907.066   3
   6   8 -10 301.919 947.161   3
   6   8  12-52.7071 799.816   4
   8   6  12 262.944 788.545   4
  -6   8  12 34.6111 722.892   5
   8   6 -12-214.057 922.238   3
   6   8 -12 181.495 936.686   3
  -6   8  14 4708.26 1039.23   5
   8   6 -14 4790.12 1127.14   3
   6   8 -14 5141.47 1225.56   3
   8   6  14 3509.42 994.313   4
   6   8  14 3793.13 1004.07   4
  -6   8  16 749.035 655.492   5
   8   6 -16 819.002 734.822   3
   6   8 -16 1318.16 901.932   3
   6   8  16 1471.39 681.348   4
  -6   8 -18-359.285 629.131   3
  -6   8  18-174.641 444.157   5
   6   8 -18 199.630 613.318   3
   7  -8   1 7321.06 2580.93   1
   8   7   1 6601.47 1039.69   4
   8   7  -1 5945.42 960.957   4
   7   8   1 5209.31 1050.03   4
   7   8  -1 5488.40 995.695   4
   8   7   1 6144.38 1171.00   3
   7   8   1 6669.04 1230.53   3
   8   7  -1 6244.44 1212.83   3
   7   8  -1 6584.12 1197.83   3
   7   8   3 13304.2 1472.80   3
   8   7  -3 13078.2 1553.87   3
   7   8  -3 12062.9 1489.34   3
   8   7   3 12624.9 1517.88   3
   8  -7   3 9862.20 3121.77   1
   8   7  -3 13037.8 1340.89   4
   8   7   3 15597.7 1452.00   4
   7   8   3 11931.4 1410.31   4
   7   8  -3 14199.5 1378.49   4
   7   8  -5 8749.09 3435.37   2
   8   7   5 7724.15 1225.88   4
   7   8  -5 7876.57 1115.53   4
   7  -8   5 7903.02 3539.41   1
   7   8   5 7811.74 1028.45   6
   8   7   5 7802.99 1331.18   3
   7   8   5 7931.40 1263.32   3
   8   7  -5 7920.19 1359.87   3
   7   8  -5 7221.68 1334.61   3
   7   8   5 8463.63 1241.08   4
   8  -7   5 4642.91 2398.18   1
   8   7  -7 7297.74 3302.64   2
   8   7   7 12905.1 1570.56   3
   7   8   7 12583.7 1555.68   3
   7   8  -7 9177.17 3533.72   2
   8   7  -7 13250.5 1653.94   3
   7   8  -7 14325.5 1721.87   3
  -8   7   7 11789.2 1460.22   5
  -7   8   7 10615.7 1432.70   5
   7   8   7 14090.6 1339.59   6
   7  -8   7 10973.9 3597.09   1
   8   7   7 16506.7 1628.46   4
   7   8   7 13792.1 1500.15   4
   7   8  -7 13335.4 1387.01   4
  -7   8   9 15835.5 1703.89   5
   8   7   9 16895.6 1724.10   3
   8   7  -9 19524.1 1941.72   3
   7   8  -9 17481.0 1869.91   3
  -8   7   9 17936.6 1750.71   5
   7   8   9 15582.3 1652.09   3
   8   7   9 18913.6 1767.88   4
   7   8   9 17371.4 1623.01   4
   7   8  11 6480.90 1146.95   4
  -7   8  11 5509.35 1110.56   5
  -8   7  11 6505.72 1234.61   5
   8   7  11 6221.57 1194.23   4
   8   7 -11 6017.80 1281.36   3
   7   8 -11 7626.13 1450.24   3
  -7   8  13 800.624 729.344   5
   8   7 -13 347.224 902.315   3
   8   7  13-680.519 885.618   4
   7   8 -13-2004.43 1022.87   3
   7   8  13-7.22226 760.231   4
  -7   8  15 7203.08 1072.19   5
   8   7 -15 7252.90 1212.25   3
   7   8 -15 7210.10 1179.77   3
   8   7  15 6766.70 1052.82   4
   7   8  15 7872.72 1084.57   4
   8   7 -17 7402.32 918.552   3
  -7   8  17 7863.35 924.807   5
   7   8 -17 6764.72 963.661   3
   8   8   0 13560.3 1564.62   3
   8   8   0 12724.9 1407.20   4
   8   8   2 74182.2 3253.05   3
   8   8  -2 71566.1 3240.42   3
   8   8   2 74093.9 3022.64   4
   8   8  -2 72485.4 2944.04   4
   8   8  -4 53164.3 2834.54   3
   8   8   4 53609.9 2671.18   4
   8   8   4 51752.0 2836.04   3
   8   8  -4 50582.1 2409.20   4
   8   8  -6 24400.3 2077.87   3
  -8   8   6 20914.8 1902.84   5
   8   8   6 22304.1 1987.62   3
   8   8   6 25365.4 1918.35   4
   8   8   8 33680.3 2330.25   3
   8   8  -8 35060.7 2500.24   3
   8   8   8 33428.0 2204.48   4
  -8   8   8 31283.8 2222.19   5
   8   8 -10 36340.7 2565.99   3
  -8   8  10 32976.8 2307.19   5
   8   8  10 30730.8 2217.26   3
   8   8  10 33650.0 2202.54   4
  -8   8  12 22373.0 1893.78   5
   8   8 -12 24494.6 2067.78   3
   8   8  12 25464.5 1899.13   4
   8   8 -14 39752.3 2341.70   3
  -8   8  14 40923.3 2274.89   5
   8   8  14 36437.4 2099.15   4
   8   8 -16 31297.4 1768.13   3
   8   8 -18 14732.6 961.081   3
   0  -9  -1 30235.1 4979.19   1
   0  -9   1 30384.1 5074.96   1
   0  -9  -3-315.594 1178.36   1
   0  -9   3-756.671 1562.00   1
   0   9  -3 1929.96 1715.72   2
   0  -9   5 1284.50 1715.36   1
   0  -9  -5-813.927 1509.32   1
   0   9  -5 971.568 1454.79   2
   0   9   7 7096.87 1035.74   6
   0   9   7 5523.12 1065.98   5
   0  -9  -7 7707.25 2739.63   1
   0  -9   7 5369.13 2615.74   1
   9   0   7 7824.59 1147.45   4
   0   9  -7 7137.75 1167.26   3
   0   9   9 17850.6 1507.98   6
   0   9  -9 19851.8 1780.86   3
   0   9  -9 16248.7 4258.07   2
   0   9   9 20009.5 1759.29   5
   0  -9   9 23807.4 5001.31   1
   0  -9  -9 18744.8 4229.81   1
   0   9 -11 5821.36 1252.46   3
   0   9  11 8277.68 1297.79   5
   0   9 -11 5119.96 2967.32   2
   0  -9  11-1023.12 2148.79   1
   0   9  11 7851.59 1193.39   6
   0  -9 -11 1428.49 1913.82   1
  -9   0 -11 6385.62 3202.12   2
   0   9 -13 21266.6 2049.60   3
   9   0  13 19617.3 1748.01   5
   0   9  13 21457.3 1843.53   5
   0   9  13 22857.3 1727.96   6
   9   0  15 7379.10 1213.18   5
   0   9  15 8295.91 1274.58   5
   0   9 -15 9542.73 1486.92   3
   0   9 -17 11455.3 1528.13   3
   0   9  17 12513.1 1347.81   5
   0   9 -19-929.274 655.167   4
   0   9  19-243.645 522.254   5
   0   9 -19 256.937 666.355   3
   0   9  21 1346.34 411.439   5
   0   9 -21 886.832 441.537   3
  -1  -9   0 3453.75 1962.45   1
   1  -9   0 1306.17 1640.17   1
  -1  -9  -2 1343.55 1663.56   1
   1  -9  -2-1819.14 1630.71   1
  -1  -9   2-2633.70 1934.78   1
   1  -9   2-2431.29 1866.96   1
   1   9  -2 493.551 1262.33   2
   1  -9  -4-1946.08 1606.68   1
   1   9  -4 540.284 1650.68   2
  -1  -9   4-212.801 1122.70   1
  -1   9  -4 2794.62 1481.33   2
   1  -9   4 2218.52 1789.65   1
  -1  -9  -4-1556.95 1620.63   1
   1   9   6 3616.91 887.448   6
  -1   9   6 616.861 618.993   5
  -1   9   6 1931.80 760.215   6
   1   9  -6 3728.85 2445.14   2
  -1   9  -6-4254.28 2257.74   2
   9   1   6 2194.30 950.066   3
  -1  -9   6 4407.67 2272.20   1
   1  -9   6 8507.13 3027.47   1
  -1  -9  -6 6871.17 2767.39   1
   1  -9  -6-1148.33 1390.68   1
  -1   9  -8 292.185 793.886   3
  -1  -9  -8-1482.63 1322.63   1
  -1  -9   8-5310.09 2483.83   1
  -1   9   8 545.302 735.864   6
   1  -9   8 339.282 1927.87   1
   1   9   8 1240.25 820.433   6
   1   9  -8-1869.65 2127.90   2
  -1   9  -8-6778.30 3121.80   2
   1   9   8 688.764 683.024   5
  -1   9   8 1073.99 716.840   5
   1  -9  -8 2642.89 1581.01   1
   9   1   8 537.206 689.647   4
   1   9  -8 416.910 811.553   3
  -1   9 -10 1793.67 874.967   3
   1   9  10 2755.59 852.907   6
  -1   9  10 1257.74 745.036   6
  -1  -9  10 7173.60 3178.98   1
   1  -9  10-2821.25 2506.96   1
  -1   9 -10 6305.41 2963.28   2
   1   9 -10-2417.34 2451.43   2
  -1   9  10 2327.54 899.283   5
   1   9  10 1843.57 819.527   5
   1  -9 -10-2776.69 1976.46   1
   9   1  10 1081.81 831.145   4
   1   9 -10 1093.54 941.751   3
  -9   1 -10 9660.17 3941.57   2
  -1   9  12 1466.49 813.037   6
  -1   9 -12 1664.82 984.776   3
   1   9  12 829.075 821.255   6
  -1   9  12 1037.71 797.457   5
   1   9  12 2303.73 841.874   5
   1   9 -12 776.809 875.337   3
  -1   9 -14-222.848 910.460   3
   1   9  14 2064.63 874.054   5
  -1   9  14-180.113 745.269   5
   1   9 -14-484.574 986.537   3
   9   1  16 39.0553 571.250   5
   1   9  16-132.451 679.452   5
  -1   9  16 257.152 700.926   5
   1   9 -16 57.9435 929.103   3
  -1   9 -16 776.162 953.400   3
   1   9 -18-972.932 657.826   4
   1   9  18 42.1993 539.309   5
  -1   9  18 557.036 616.403   5
   1   9 -18 590.004 864.659   3
  -1   9 -18 138.004 713.530   3
  -1   9 -20 1604.03 523.565   4
   1   9  20 2434.09 553.344   5
  -1   9  20 1577.76 550.442   5
   1   9 -20 3107.72 724.230   3
  -1   9 -20 1871.45 634.852   3
   2   9  -1 45294.6 5837.50   2
  -2  -9  -1 48053.7 6001.13   1
  -2  -9   1 43393.3 5969.68   1
   2  -9  -1 52624.2 6496.84   1
   2  -9   1 44982.6 6015.36   1
   2  -9  -3 32033.6 5131.21   1
  -2  -9   3 28619.5 4754.57   1
   2   9  -3 25219.3 4571.17   2
   2  -9   3 29089.0 5051.86   1
  -2  -9  -3 25511.5 4459.27   1
   2  -9  -5 15276.3 3888.31   1
   2   9  -5 9119.33 3071.25   2
   2   9   5 18115.7 1425.33   6
  -2  -9   5 22590.5 4692.28   1
   2  -9   5 21676.4 4466.01   1
  -2  -9  -5 23411.3 4445.50   1
   2   9  -5 16139.5 1618.89   4
   2  -9  -7 2524.26 1946.80   1
  -9   2  -7 11646.0 3808.36   2
   2  -9   7-1001.47 2040.16   1
   2   9   7 7257.82 1094.10   4
   2   9  -7 9166.10 3358.87   2
   2   9   7 9049.07 1117.68   5
   9   2   7 7161.07 1247.49   3
  -2   9  -7 3963.59 2178.48   2
  -2   9   7 7047.70 1117.68   6
   2   9   7 6471.00 1050.97   6
  -2   9   7 5946.72 1079.87   5
  -2  -9   7 14060.7 3695.57   1
   2   9  -7 6472.78 1178.99   3
   9   2   7 8515.96 1180.39   4
  -2   9   9 28993.8 1912.02   6
   2   9   9 32287.0 1933.23   6
  -2  -9   9 23124.3 4958.30   1
   2  -9   9 36512.1 6597.03   1
   2   9  -9 33711.7 2348.95   3
   2   9  -9 32233.9 6040.17   2
   2   9   9 35206.5 2082.02   5
  -2   9  -9 33786.0 2134.33   3
   2   9   9 34308.8 2007.69   4
  -2   9   9 34205.6 2272.72   5
  -2   9  -9 22482.4 4888.79   2
   9   2   9 33280.0 2141.96   4
  -9   2  -9 24429.9 5934.58   2
   2  -9  -9 28821.6 4979.77   1
  -2   9 -11 1913.82 916.286   3
  -2   9  11 1912.21 808.617   6
   2   9 -11-2002.24 1940.53   2
  -2   9 -11-11559.2 3631.59   2
   2   9  11 2613.38 866.959   5
  -2   9  11 1693.69 912.527   5
   2   9  11 2431.61 891.746   6
  -9   2 -11 17250.5 5149.22   2
   9   2  11 2371.72 941.508   4
   2   9 -11 3946.53 1223.26   3
   2  -9 -11 3326.85 2045.25   1
  -2   9  13 40906.3 2142.29   6
   2   9 -13 40052.7 2703.70   3
   2   9  13 46191.4 2437.62   5
  -2   9 -13 42685.5 2600.76   3
  -2   9  13 41667.6 2501.55   5
   2   9 -15 21798.6 2024.48   3
   2   9  15 18487.0 1593.00   5
  -2   9  15 17859.7 1666.79   5
  -2   9 -15 17764.9 1837.90   3
   2   9 -15 16640.0 1575.39   4
   2   9  17 28216.8 1749.20   5
   2   9 -17 31847.6 2219.14   3
  -2   9 -17 30467.4 2071.71   3
  -2   9  17 28041.9 1895.90   5
   2   9 -17 28044.9 1765.04   4
   2   9  19 6983.65 842.529   5
   2   9 -19 9647.21 1159.15   3
  -2   9  19 7222.86 908.652   5
  -2   9 -19 6560.71 995.026   3
  -2   9  21 2647.59 454.590   5
   2   9 -21 2943.32 549.352   3
  -2   9 -21 3829.45 592.478   3
  -3  -9   0 70010.5 7420.88   1
   3  -9   0 73629.1 7887.84   1
   3   9  -2 48351.6 6248.94   2
  -3  -9  -2 45945.6 6127.73   1
  -3  -9   2 56739.8 6874.80   1
   3  -9   2 49410.5 6500.75   1
   3  -9  -2 53699.4 6679.27   1
  -3  -9  -4 43392.3 5947.12   1
   3   9  -4 35881.6 5690.64   2
   3  -9  -4 36049.9 5449.44   1
   3   9   4 40734.3 1997.23   6
  -3  -9   4 43365.4 5966.49   1
   9   3   4 44510.2 2448.79   3
   3  -9   4 42560.5 6343.76   1
   3   9  -4 42098.6 2277.12   4
   3   9   6 35883.9 2000.82   6
  -3  -9  -6 33809.8 5591.85   1
   3  -9  -6 29361.1 5317.04   1
   9   3   6 36062.2 2331.62   3
   9   3  -6 35768.5 2171.58   3
   3   9  -6 31920.8 2212.93   3
   3   9  -6 33926.8 5785.78   2
  -3   9   6 30624.7 1873.35   6
  -3  -9   6 25139.3 5284.16   1
   9   3   6 37105.5 2067.27   4
   3   9   6 35278.0 1975.61   4
   3   9  -6 32948.9 2225.47   4
  -9   3  -6 29395.5 5632.72   2
   3  -9   6 37719.9 5989.66   1
   9  -3   6 33256.2 5256.48   1
   3  -9  -8 29644.3 5187.37   1
   3   9  -8 44796.8 6967.67   2
   3   9   8 40731.0 2124.11   6
  -3   9   8 35750.7 2043.19   6
   3  -9   8 32594.0 6084.98   1
   3   9  -8 38874.9 2447.00   3
   3   9   8 40002.7 2163.74   5
  -3   9   8 38628.7 2433.86   5
   3   9   8 39757.4 2149.10   4
   9   3   8 41555.7 2466.04   3
   9   3   8 39637.6 2311.98   4
   3   9  -8 36899.9 2398.56   4
  -9   3  -8 28837.7 5943.14   2
   3   9  10 19278.6 1600.29   6
  -3   9  10 18352.2 1523.25   6
   3   9 -10 21608.9 2025.37   3
   3   9 -10 15886.9 4403.61   2
   3   9  10 20435.5 1621.76   5
  -3   9  10 17947.3 1806.76   5
  -3   9 -10 15790.9 4176.09   2
   3  -9  10 22370.4 5196.27   1
   9   3  10 21305.3 1850.90   4
   3   9  10 21468.6 1713.37   4
   3   9 -10 17960.7 1742.95   4
  -9   3 -10 22587.7 5485.19   2
   3   9  12 18910.1 1658.01   6
   3   9 -12 21124.0 2034.67   3
   3   9  12 21253.3 1677.05   5
  -3   9  12 21680.7 1905.90   5
   9   3  12 20503.6 1852.64   4
   3   9  12 17330.0 1564.24   4
   3   9 -12 18742.7 1801.93   4
   3   9 -14 57008.7 3076.28   3
   3   9  14 51350.7 2483.88   5
  -3   9  14 48208.4 2663.06   5
  -3   9 -14 47112.9 2702.03   3
   3   9 -14 46555.4 2461.22   4
   3   9 -16 47946.6 2743.34   3
   3   9  16 48878.9 2281.13   5
  -3   9  16 46008.3 2432.37   5
  -3   9 -16 44653.7 2567.17   3
   3   9 -16 47469.7 2230.56   4
   3   9  18 23103.3 1435.56   5
   3   9 -18 24584.6 1792.38   3
  -3   9  18 24904.5 1628.32   5
  -3   9 -18 24809.0 1682.50   3
   3   9  20 4763.65 592.647   5
   3   9 -20 6685.44 836.357   3
  -3   9  20 6050.60 721.441   5
  -3   9 -20 6395.60 788.235   3
  -4  -9  -1 386.691 1406.09   1
   4   9   1 727.301 638.882   4
   4   9  -1 2065.54 882.960   4
  -4  -9   1 352.726 1375.45   1
   4  -9  -1 3148.27 1979.75   1
   4  -9   1 4558.86 2330.94   1
   9   4   1 1148.91 908.775   3
   4   9   3 9513.61 1160.86   6
   9   4   3 10858.2 1415.12   3
   4   9  -3 11476.8 1328.71   4
   4   9  -3 9174.15 3130.85   2
   4   9  -3 11617.9 1396.28   3
  -4  -9   3 6215.50 1628.71   1
   4  -9   3 10948.3 3445.03   1
   9   4  -3 9607.79 1298.04   3
   4  -9  -3 11737.0 3202.54   1
   4   9   3 10905.7 1294.44   4
  -4  -9  -3 12990.6 3095.25   1
   9   4   5 6446.69 1119.82   4
   4   9   5 3994.82 949.514   4
   4   9  -5 5555.30 1102.32   4
   4   9   5 4686.19 964.786   6
   4   9  -5 1621.06 1984.20   2
   9   4   5 4512.95 1126.00   3
   9   4  -5 4232.91 1098.51   3
  -4  -9  -5 3939.59 2344.51   1
   4   9  -5 4989.69 1118.64   3
  -4   9   5 4721.67 942.825   6
   4  -9   5 2147.70 2013.32   1
   9  -4   7 15782.1 3891.23   1
   4  -9  -7 19088.0 4109.41   1
  -4   9   7 16586.3 1404.58   6
   9   4   7 17294.2 1758.73   3
   9   4  -7 16546.0 1676.42   3
   4   9  -7 16758.1 1744.93   3
   4   9  -7 15901.6 4409.28   2
  -4   9   7 15717.7 1687.23   5
   4  -9   7 19637.6 4687.32   1
   4   9   7 18196.3 1497.70   6
   9   4   7 15195.3 1504.89   4
   4   9   7 18089.7 1563.71   4
   4   9  -7 18206.8 1683.89   4
   4   9  -9 953.985 778.892   4
   4   9   9 1619.04 827.844   4
   4   9   9 1305.99 828.125   6
   9  -4   9 6969.48 3137.07   1
   4   9  -9 686.010 1746.52   2
   9   4   9 3068.96 1099.01   3
   4  -9   9 5030.22 2655.65   1
  -4   9   9 1607.03 847.823   5
   9   4  -9 2011.02 867.097   3
   4   9  -9 3045.25 1178.81   3
   9   4   9 1115.48 845.414   4
   4   9 -11 7820.11 1248.76   4
   4   9  11 10839.0 1257.82   5
  -4   9  11 9421.87 1443.56   5
   4   9  11 7984.54 1197.69   6
   9   4  11 11052.9 1445.97   4
   4   9  11 9096.37 1252.92   4
   9   4 -11 8651.85 1360.23   3
   4   9 -11 8187.21 1463.10   3
   4   9 -13 1135.70 760.224   4
   4   9  13 1713.76 713.016   5
  -4   9  13 2948.80 933.831   5
   4   9 -13 1475.81 1078.71   3
   9   4  13 917.898 826.974   4
   4   9  13 1859.25 758.340   4
  -4   9 -15 5576.55 1141.02   3
   4   9 -15 6870.12 982.593   4
   4   9  15 5672.66 898.834   5
  -4   9  15 7400.87 1191.80   5
   4   9 -15 8358.77 1422.65   3
   4   9  15 7243.40 997.789   4
  -4   9 -17 6303.50 1125.29   3
   4   9 -17 8955.37 1277.03   3
   4   9  17 7056.74 884.109   5
  -4   9  17 7555.18 1051.49   5
   4   9  19 2684.49 507.273   5
  -4   9  19 1797.44 528.835   5
   4   9 -19 1947.68 690.188   3
  -4   9 -19 2975.89 675.516   3
  -5  -9   0 28970.8 4848.58   1
   9   5   0 25312.3 2035.26   3
   5   9   0 28157.1 1954.25   3
   5  -9   0 26194.8 5001.80   1
   5   9   0 26182.6 1858.76   4
   9   5   2 1137.11 694.385   4
  -5  -9   2-825.610 965.996   1
   5   9   2 2172.91 773.151   4
   5   9  -2 2524.86 841.514   4
   5   9   2 905.520 611.987   6
   5  -9  -2 5748.73 2228.01   1
   9   5   2 1072.61 869.421   3
   5   9   2 2805.73 904.384   3
   9   5  -2 1178.91 847.420   3
   5   9  -2 1455.51 794.842   3
   5  -9   2 637.089 1400.87   1
  -5  -9  -2-3725.60 2203.96   1
   5  -9   4 2303.77 1939.99   1
   9   5   4 7120.51 1090.61   4
   5   9   4 6772.68 1078.47   4
   5   9  -4 7076.87 1138.79   4
   5   9   4 6612.41 1017.90   6
  -5   9   4 4587.07 944.328   6
   9   5  -4 8674.05 1318.57   3
   5  -9  -4 5851.89 2665.57   1
   5   9  -4 9827.14 3236.14   2
   9   5   4 6260.34 1279.22   3
   5   9   4 8372.52 1202.77   3
   5   9  -4 6035.63 1206.58   3
  -5  -9  -4 2431.66 2120.59   1
   9   5   6 965.746 719.968   4
   5   9   6 712.643 719.507   4
   5  -9   6-4607.75 2473.36   1
   9  -5   6-4101.61 2058.24   1
   5   9   6 637.127 751.617   6
   5   9  -6 1497.08 894.783   4
   5   9  -6-2348.00 2075.01   2
   9   5   6-709.952 875.060   3
   5   9   6 575.991 733.834   3
   9   5  -6 411.174 815.849   3
   5   9  -6 45.8023 870.547   3
   9   5   8 106.296 830.400   4
   5   9   8 1080.86 773.886   4
   5   9  -8 499.515 797.489   4
   5   9   8 76.3938 755.875   6
   5   9  -8-2432.20 2099.02   2
   9   5   8 761.076 837.113   3
   5   9  -8 1116.23 1043.75   3
  -5   9   8 464.820 807.417   5
   9   5  -8 1048.81 913.160   3
   9  -5   8-3001.35 1972.08   1
   5   9  10 156.056 757.865   4
   5   9 -10 149.425 703.153   4
   9   5  10-274.764 952.742   3
   5   9  10 295.371 792.724   6
  -5   9  10 466.666 723.313   5
   9   5 -10-629.608 822.825   3
   5   9 -10-538.868 1043.64   3
   9   5  10-491.183 916.677   4
   5   9  12 2480.55 817.210   4
   5   9 -12 2850.47 850.463   4
  -5   9  12 3060.19 990.641   5
   9   5 -12 1790.27 965.506   3
   5   9 -12 2996.40 1092.09   3
   9   5  12 2928.31 1055.68   4
   5   9  14 6262.57 876.052   5
  -5   9  14 9143.09 1304.87   5
   9   5 -14 5190.48 1025.03   3
   5   9 -14 9221.10 1452.30   3
   9   5  14 7805.44 1268.19   4
   5   9  14 7596.41 1080.70   4
  -5   9 -16 860.117 628.024   3
   5   9  16 1997.30 592.250   5
  -5   9  16 631.913 690.794   5
   5   9  16 1658.98 600.621   4
   5   9 -16 2410.85 896.703   3
   5   9  18 1148.58 399.676   5
  -5   9  18 699.737 512.732   5
   5   9 -18 8.32157 601.259   3
  -5   9 -18 595.070 571.831   3
   9   6   1 3141.33 856.667   4
   9   6  -1 356.918 646.614   4
  -6  -9  -1-4593.43 2339.86   1
   6   9   1 2216.92 907.857   4
   6   9  -1 2061.31 849.205   4
   9   6  -1 3014.46 1073.89   3
   9   6   1 1236.20 809.579   3
   6  -9  -1-4795.11 2492.74   1
   6   9   1 2787.97 1025.60   3
   6   9  -1 2144.10 866.872   3
   6  -9   1 3151.29 2202.95   1
   6  -9   3 11954.5 3763.63   1
   6   9   3 12640.7 1283.46   6
   9   6   3 11999.2 1489.19   3
   6   9   3 12285.2 1468.40   3
   9   6  -3 11500.7 1523.54   3
   6   9  -3 12310.1 1521.82   3
   6  -9  -3 13381.7 3338.65   1
   9   6   3 14182.4 1404.89   4
   6   9   3 11988.5 1332.90   4
   6   9  -3 11040.9 1324.93   4
   9   6   5 2579.71 947.196   4
   6   9   5 3798.06 963.315   4
   6   9   5 3038.15 845.347   6
   6   9  -5 2664.61 885.257   4
   9   6   5 3159.30 1116.44   3
   6   9   5 3188.43 983.391   3
   9   6  -5 2055.45 1003.59   3
   6   9  -5 4117.68 1183.14   3
  -6  -9  -5 3458.23 2086.93   1
   9  -6   7 1962.52 1933.06   1
   9   6   7-291.362 797.028   4
   6   9   7 248.534 757.007   4
   6   9  -7 1677.20 893.516   4
   6   9   7 451.669 750.311   6
   6   9  -7-1610.21 1505.58   2
   6  -9   7 2790.89 2477.90   1
   9   6   7 176.257 873.149   3
   6   9   7 653.309 773.103   3
  -6   9   7-503.707 833.045   5
   9   6  -7 557.326 870.926   3
   6   9  -7 1799.30 1088.37   3
   9   6   9 243.272 786.218   4
   6   9   9 351.645 756.794   3
   6   9   9 83.9205 722.716   4
   6   9  -9 1043.84 893.137   4
   6   9   9-743.821 803.947   6
  -6   9   9 561.534 795.353   5
   9   6   9-321.690 953.070   3
   9   6  -9 814.492 898.581   3
   6   9  -9 21.7984 930.059   3
   6   9  11 581.138 726.223   4
   6   9 -11 745.142 725.514   4
  -6   9  11 300.899 734.718   5
   9   6 -11-33.7902 844.327   3
   6   9 -11 566.585 976.213   3
   9   6  11-1267.70 940.187   4
  -6   9  13 4687.50 1051.58   5
   9   6 -13 3547.66 1066.44   3
   6   9 -13 6065.01 1311.64   3
   9   6  13 5370.12 1128.80   4
   6   9  13 6422.12 1159.01   4
  -6   9 -15 3263.67 885.436   3
  -6   9  15 2779.13 879.848   5
   9   6 -15 3998.00 924.256   3
   6   9 -15 4741.21 1003.67   3
   6   9  15 4168.75 864.666   4
  -6   9 -17 940.808 574.336   3
  -6   9  17 1613.14 582.015   5
   6   9 -17 1776.78 767.530   3
   6   9 -19-645.006 432.321   3
   9   7   0 26215.4 2110.72   3
   7   9   0 26713.8 2091.66   3
   9   7   0 27761.4 1856.28   4
   7   9   0 25030.4 1866.56   4
   9   7   2 1442.46 764.899   4
   9   7  -2 1246.20 648.333   4
   7   9   2 1578.80 808.830   4
   7   9  -2 356.114 739.379   4
   7  -9   2-37.1364 1464.44   1
   9   7   2 1037.76 847.472   3
   7   9   2 1199.51 844.592   3
   9   7  -2 394.320 835.767   3
   7   9  -2 675.436 889.765   3
   9   7   4 2852.19 996.772   4
   7   9   4 2236.16 855.765   4
   7   9  -4 1089.70 736.344   4
   9   7   4 2650.42 975.797   3
   7   9   4 1584.09 938.627   3
   7   9   4 2090.16 738.577   6
   9   7  -4 2056.39 996.156   3
   7   9  -4 2039.14 1018.32   3
   9   7   6 1155.45 903.307   4
   7   9   6 1607.70 946.397   4
   7   9  -6 2377.05 869.598   4
   9   7   6 2664.77 977.120   3
   7   9   6 1157.45 831.143   3
   7   9   6 1552.09 761.236   6
   9   7  -6 2882.70 1183.33   3
   7   9  -6 1285.95 942.895   3
   9   7   8 4129.23 1115.06   4
   7   9   8 3566.70 941.903   4
   7   9  -8 3192.56 864.208   4
   9   7   8 3364.38 1063.26   3
   7   9   8 3338.89 1070.95   3
  -7   9   8 3034.39 995.632   5
   9   7  -8 4508.49 1208.71   3
   7   9  -8 2341.88 1129.36   3
   9   7  10 4959.11 1145.76   4
   7   9  10 5053.94 1139.83   4
   7   9  10 3994.37 925.607   3
  -7   9  10 5206.47 1151.49   5
   9   7  10 2708.62 961.924   3
   9   7 -10 3639.91 1112.65   3
   7   9 -10 4816.83 1256.86   3
  -7   9  12 2311.79 900.229   5
   9   7 -12 1888.92 936.055   3
   7   9 -12 3364.24 1192.19   3
   9   7  12 2624.41 910.938   4
   7   9  12 3566.58 928.149   4
  -7   9  14 3201.52 864.710   5
   9   7 -14 3866.65 959.985   3
   7   9 -14 4298.54 1134.17   3
   9   7  14 3102.31 888.071   4
   7   9  14 3460.15 803.025   4
  -7   9  16 3565.52 688.128   5
   9   7 -16 3163.17 731.436   3
   7   9 -16 2605.43 770.513   3
   7   9 -18 1778.28 554.619   3
   8   9   1 32736.1 2293.92   3
   9   8  -1 32131.6 2322.43   3
   9   8   1 34925.7 2364.45   3
   8   9  -1 31309.8 2251.50   3
   9   8   1 28785.8 1984.36   4
   9   8  -1 30157.1 2001.45   4
   8   9   1 31294.1 2090.09   4
   8   9  -1 31363.9 2045.79   4
   8   9   3 37942.9 2421.26   3
   9   8   3 41613.6 2592.88   3
   9   8  -3 38411.0 2542.48   3
   8   9  -3 38004.1 2485.62   3
   9   8   3 39969.7 2330.87   4
   8   9   3 35305.4 2241.38   4
   9   8  -3 42041.2 2208.12   4
   8   9  -3 36281.3 2199.07   4
   9   8   5 18857.3 1862.21   3
   8   9   5 19492.8 1862.59   3
   9   8  -5 21775.1 2010.32   3
   8   9  -5 21121.4 1953.94   3
   9   8   5 20479.8 1779.40   4
   8   9   5 20572.3 1830.92   4
   8   9  -5 19381.5 1663.88   4
   9   8   7 14055.9 1624.01   3
   8   9   7 12847.5 1563.21   3
   9   8  -7 15195.9 1781.11   3
   8   9  -7 15098.3 1768.93   3
  -9   8   7 15266.9 1725.40   5
  -8   9   7 9839.29 1390.55   5
   9   8   7 15119.4 1596.68   4
   8   9   7 14351.3 1523.91   4
   8   9  -7 12876.8 1338.88   4
   8   9   9 8619.65 1255.54   4
   9   8   9 6302.22 1235.97   3
   8   9   9 7246.45 1257.08   3
  -9   8   9 8680.70 1400.64   5
  -8   9   9 6669.00 1153.41   5
   9   8  -9 8866.35 1484.36   3
   9   8   9 8588.51 1336.95   4
   8   9  -9 6746.49 1367.33   3
   9   8 -11 17459.2 1829.69   3
   8   9 -11 20033.2 1889.84   3
  -8   9  11 17175.7 1648.79   5
   9   8  11 20684.1 1771.95   4
   8   9  11 19981.0 1732.36   4
   9   8 -13 34486.9 2178.58   3
   8   9 -13 39906.1 2321.95   3
  -8   9  13 35529.6 2025.65   5
   9   8  13 34979.2 2050.00   4
   8   9  13 34879.3 2045.80   4
   9   8 -15 22326.3 1535.40   3
   8   9 -15 22046.6 1556.52   3
   9   8  15 21461.7 1427.48   4
   8   9  15 23472.2 1478.15   4
   8   9 -17 12170.9 947.151   3
   9   9   0 386.549 728.153   4
   9   9   0 540.729 830.603   3
   9   9   2 37754.6 2460.51   3
   9   9  -2 38754.6 2522.42   3
   9   9   2 38747.1 2274.66   4
   9   9  -2 38673.1 2191.70   4
   9   9  -4 11075.3 1561.60   3
   9   9   4 7338.70 1358.14   3
   9   9   4 9290.53 1296.98   4
   9   9  -4 9422.87 1205.99   4
   9   9  -6 13751.2 1701.19   3
   9   9   6 12890.9 1626.16   3
  -9   9   6 10371.8 1337.12   5
   9   9   6 15664.1 1617.55   4
   9   9   8 121.246 764.256   4
   9   9   8-213.636 824.891   3
  -9   9   8 770.974 697.512   5
   9   9  -8 5.01932 876.547   3
   9   9  10 4743.09 1138.48   4
  -9   9  10 5274.24 1058.13   5
   9   9 -10 6119.55 1224.61   3
   9   9 -12 19193.1 1712.76   3
   9   9  12 18165.9 1487.96   4
   9   9 -14 21132.5 1532.42   3
   9   9  14 20327.2 1401.78   4
   9   9 -16 8776.59 811.655   3
   0 -10   0 267230. 15331.5   1
   0 -10  -2 45986.7 6467.48   1
   0  10   2 45315.3 2264.44   6
   0 -10   2 45786.4 6595.51   1
   0  10  -2 41085.0 2282.63   4
   0 -10  -4 24741.2 4910.74   1
   0  10   4 21967.5 1606.11   6
  10   0   4 19728.7 1690.45   3
   0 -10   4 22965.1 4995.06   1
   0  10  -4 18936.7 1762.37   4
   0 -10  -6 34440.0 5707.80   1
   0  10   6 43524.7 2190.39   6
   0  10  -6 47675.8 6524.30   2
   0 -10   6 43350.2 6883.02   1
   0  10   6 40871.8 2348.43   5
   0  10   8 11455.2 1310.62   6
   0 -10   8 15579.0 4387.76   1
   0  10  -8 14091.6 1679.21   3
   0  10  -8 14683.3 3877.67   2
   0  10   8 13827.7 1525.14   5
   0  10  10 2732.52 864.982   6
   0  10  10 2562.54 926.223   5
   0  10 -10 1822.54 924.928   3
   0  10 -12 89445.6 3663.40   3
   0  10  12 84033.3 3400.39   5
   0  10  12 82739.4 3059.21   6
   0  10 -14 50716.3 2824.25   3
   0  10  14 44219.6 2445.78   5
   0  10  16 45664.8 2292.04   5
   0  10 -16 40458.3 2484.75   3
   0  10  18 14067.2 1190.98   5
   0  10 -18 14699.3 1365.32   3
   0  10 -18 12885.0 1216.57   4
   0  10  20 962.980 352.086   5
   0  10 -20 907.943 439.741   3
   1  10   1 47684.8 2322.68   6
  -1 -10  -1 50130.4 6844.33   1
   1 -10  -1 56227.1 7118.76   1
  -1 -10   1 46225.5 6376.72   1
   1 -10   1 46625.7 6536.07   1
   1  10   1 48762.3 2380.09   4
   1  10  -1 42655.3 2382.60   4
  -1 -10  -3 17209.9 4143.35   1
  -1  10   3 17892.6 1562.49   6
   1 -10  -3 19141.1 4281.12   1
   1  10   3 15603.0 1507.65   6
  10   1   3 14620.5 1509.30   3
   1  10  -3 17520.7 3761.46   2
  -1 -10   3 13846.7 3835.99   1
   1 -10   3 15050.7 4048.06   1
   1  10   3 19196.7 1514.62   4
   1  10  -3 15514.0 1652.62   4
  -1  10  -3 14377.0 1530.13   4
   1  10   5 12297.1 1317.17   6
   1 -10  -5 15337.6 3789.79   1
  10   1   5 13525.2 1527.48   3
   1  10  -5 14352.3 1507.54   3
   1  10  -5 12529.7 3411.67   2
   1  10   5 14625.4 1384.00   5
  -1 -10   5 8403.81 3116.73   1
   1 -10   5 11955.7 3397.05   1
  -1  10   5 13941.3 1374.50   6
   1  10   5 14828.3 1357.94   4
   1  10  -5 12017.4 1506.81   4
  -1 -10  -5 11335.1 3553.59   1
   1 -10   7 1074.21 1851.89   1
  10   1   7 5244.76 1153.80   3
   1 -10  -7 4547.51 2454.31   1
   1  10   7 6441.88 973.324   4
   1  10  -7 6961.87 1300.31   4
  -1  10   7 6724.35 1110.61   6
   1  10   7 6141.74 1082.37   6
   1  10  -7 17870.0 4240.75   2
   1  10   7 5987.79 1008.49   5
  -1  10   7 4467.34 1109.91   5
   1  10  -7 7028.03 1204.81   3
  -1 -10   7 14055.5 4039.76   1
  -1 -10  -7 2687.38 2178.76   1
  10   1   7 6249.80 1116.17   4
   1 -10  -9-1758.08 1782.74   1
 -10   1  -9 5948.86 3508.16   2
  -1 -10   9 220.024 1589.69   1
   1  10  -9 19656.8 5000.36   2
  -1  10   9 3897.37 952.082   6
  -1  10  -9-1092.64 1684.30   2
   1  10   9 3452.14 956.911   6
   1 -10   9 17505.5 4690.37   1
   1  10   9 4271.28 1078.45   5
  -1  10   9 4017.44 1069.06   5
  -1 -10  -9-1534.01 1726.30   1
  10   1   9 2606.24 974.518   4
   1  10  -9 4396.61 1157.10   3
  -1  10  -9 3656.90 1024.35   3
   1  10  11 11922.0 1368.48   6
  -1  10  11 11955.7 1362.27   6
   1  10 -11 15573.9 1713.90   3
  -1  10 -11 8652.92 1441.24   3
   1  10  11 11306.1 1370.74   5
  -1  10  11 11248.3 1468.36   5
   1  10  13 24577.3 1777.29   6
   1  10 -13 25531.5 2190.10   3
   1  10  13 25162.1 1867.92   5
  -1  10 -13 23018.6 2004.39   3
  -1  10  13 22780.2 1931.81   5
  -1  10  13 24373.1 1765.67   6
   1  10  15 15380.3 1487.33   5
  -1  10  15 15041.9 1587.61   5
  -1  10 -15 13044.8 1571.89   3
   1  10 -15 18221.9 1844.72   3
   1  10 -15 11470.6 1410.48   4
   1  10 -17 8921.65 1283.93   3
   1  10  17 9212.43 1063.43   5
  -1  10  17 9528.37 1145.34   5
  -1  10 -17 8268.33 1192.87   3
   1  10 -17 8947.01 1127.27   4
   1  10 -19 2680.49 522.408   4
   1  10  19 1624.40 542.613   5
  -1  10  19 1445.15 518.732   5
  -1  10 -19 2062.43 551.467   4
   1  10 -19 572.857 596.452   3
  -1  10 -19 2012.89 644.164   3
   2  10   0 5922.83 1067.37   4
  -2 -10   0 3057.21 2129.41   1
   2  10   0 5107.34 1065.19   6
   2 -10   0 6226.82 2958.00   1
  10   2   0 4230.28 901.575   3
  -2 -10  -2 4254.75 2464.39   1
   2  10   2 2853.22 850.504   4
   2  10  -2 1918.12 822.817   4
  -2  10  -2 1992.16 830.152   4
  -2 -10   2 1118.70 1885.49   1
   2  10   2 4080.75 908.762   6
   2 -10  -2-1047.51 1609.66   1
  -2  10   2 2300.97 820.514   6
   2  10  -2-1675.51 1698.87   2
   2 -10   2 4175.85 2193.42   1
  10   2   2 2907.86 838.158   3
  -2 -10  -4-2119.45 2117.07   1
   2  10   4 2456.84 790.414   4
   2 -10  -4-66.2730 1514.17   1
   2  10  -4 1085.36 793.502   4
   2  10   4 1261.87 737.513   6
  -2  10   4-146.380 727.289   6
   2  10  -4 242.844 1396.80   2
  10   2   4 1778.14 887.736   3
   2 -10   4 3120.58 2329.39   1
  -2 -10   4 247.939 1217.25   1
   2  10  -4 1393.27 836.079   3
 -10   2  -6-7127.43 3148.31   2
   2  10   6-42.1532 711.697   4
   2  10   6 757.386 734.109   6
   2 -10  -6 8481.64 2977.00   1
  -2  10   6 1060.96 740.118   6
   2  10  -6-46.8896 832.282   4
   2  10  -6 1265.90 1554.37   2
  10   2   6 480.136 856.006   3
   2  10   6 380.013 583.466   5
  -2  10   6-216.147 784.310   5
  -2 -10   6 9492.35 3433.71   1
   2  10  -6 614.592 805.747   3
  -2 -10  -6-3375.03 2137.15   1
   2 -10   6-516.981 1809.51   1
  10   2   6 1649.92 942.865   4
   2  10   8 252.919 742.780   4
  -2  10   8 159.711 763.421   6
   2 -10  -8-1018.82 1703.20   1
  -2 -10   8-9795.33 3527.93   1
   2 -10   8 2046.69 2514.95   1
  10   2   8-211.457 859.875   3
   2  10   8 335.316 812.459   6
   2  10  -8-1916.44 994.514   4
   2  10  -8-9889.68 3497.92   2
   2  10   8 618.899 738.705   5
  -2  10   8-659.395 782.069   5
  -2 -10  -8 1554.65 1765.74   1
   2  10  -8 210.237 845.203   3
  10   2   8 819.594 763.388   4
 -10   2  -8 895.244 2009.55   2
   2  10  10 9035.97 1154.89   4
   2  10 -10 5830.36 1261.04   4
  -2  10  10 6150.37 1104.34   6
   2  10  10 5866.95 1067.73   5
  -2  10  10 5748.96 1186.11   5
   2  10  10 7322.43 1178.08   6
   2  10 -10 7861.52 1382.04   3
  10   2  10 4796.04 1091.98   4
  -2  10 -10 4528.76 1113.33   3
  -2  10  12 6959.50 1102.10   6
   2  10 -12 3787.27 1065.78   4
   2  10  12 6064.60 1135.51   6
   2  10  12 7511.85 1130.62   5
  -2  10  12 6688.30 1245.02   5
   2  10 -12 5597.10 1279.86   3
  -2  10 -12 4234.25 1166.76   3
   2  10 -14 1127.94 812.157   4
   2  10  14 293.593 604.889   5
  -2  10  14 250.724 726.946   5
   2  10 -14 1598.16 1053.20   3
  -2  10 -14 38.9763 863.321   3
   2  10 -16 436.090 678.956   4
   2  10  16 600.152 540.320   5
  -2  10  16 1470.15 804.413   5
   2  10 -16 2181.14 1016.46   3
  -2  10 -16-178.455 833.806   3
   2  10 -18 1035.32 476.047   4
   2  10  18 1427.56 530.646   5
  -2  10  18 964.801 568.789   5
   2  10 -18 1531.51 743.424   3
  -2  10 -18 1199.94 646.124   3
  -2  10  20 633.743 381.459   5
   2  10 -20 481.018 407.112   3
  -3 -10  -1 18871.8 4250.47   1
  -3 -10   1 14583.1 3848.81   1
   3  10   1 13335.9 1352.16   6
  10   3   1 16117.3 1628.00   3
  10   3  -1 16615.9 1695.08   3
   3 -10  -1 17077.9 4116.20   1
   3 -10   1 17263.2 4195.44   1
   3  10   1 13444.1 1413.44   4
   3  10  -1 16634.2 1436.91   6
   3  10  -1 15389.5 1547.64   4
  -3 -10  -3 3625.06 2322.79   1
   3  10   3-798.494 815.861   4
   3  10  -3 551.514 808.881   4
   3 -10  -3-589.805 1234.40   1
   3  10   3 1034.19 724.331   6
   3  10  -3-237.031 744.174   6
   3  10  -3 1901.24 2106.06   2
  -3 -10   3 5129.02 2563.85   1
  10   3   3 137.241 764.654   3
   3 -10   3-2977.46 2094.14   1
  -3  10   3 580.168 707.642   6
  10   3  -3 254.619 706.693   3
   3  10  -3 1001.07 755.028   3
  10   3   5 2544.51 890.225   4
   3  10   5 1831.97 777.947   4
   3  10  -5 1244.59 772.680   4
   3 -10  -5 2519.69 2212.17   1
   3  10   5 1927.62 721.240   6
  -3  10   5 1228.16 746.231   6
   3  10  -5 199.631 1402.81   2
  10   3   5 1287.25 927.588   3
  -3 -10   5-2207.52 1444.96   1
  10   3  -5 1584.44 828.314   3
   3  10  -5 523.127 774.487   3
   3 -10   5-1515.30 2060.53   1
  -3 -10  -5 6005.82 2719.12   1
   3  10   7 2660.47 869.659   4
   3 -10   7 6215.31 2976.18   1
   3 -10  -7-1157.79 1154.61   1
   3  10  -7 1372.14 864.944   4
   3  10   7 2010.20 788.415   6
  -3  10   7 3700.94 967.892   6
   3  10  -7 2518.83 2272.24   2
  10   3   7 1871.00 867.144   3
  -3  10   7 2002.94 807.273   5
  -3 -10  -7 1413.57 1804.70   1
   3  10  -7 1549.83 905.473   3
  10   3   7 1031.86 785.924   4
   3  10   9 2121.44 862.316   4
   3  10  -9 2051.31 945.160   4
   3  10   9 2023.38 893.132   6
  -3  10   9 720.783 703.784   6
   3  10   9 2297.82 815.081   5
  -3  10   9 2089.86 923.399   5
   3  10  -9 2903.91 1215.69   3
  10   3   9 482.163 800.185   4
  -3  10 -11 1292.52 873.776   3
   3  10  11 827.029 663.486   4
   3  10 -11 2255.60 998.468   4
   3  10  11 1852.16 893.838   6
  -3  10  11 2816.02 871.063   6
   3  10  11 2418.56 800.044   5
  -3  10  11 2383.36 946.697   5
   3  10 -11 1393.45 1055.12   3
  10   3  11 1883.08 902.398   4
   3  10 -13 12882.7 1733.57   3
   3  10  13 11585.3 1250.23   5
  -3  10  13 11947.9 1501.53   5
   3  10 -13 10923.5 1402.87   4
  -3  10 -13 9868.46 1337.46   3
   3  10  15 10565.7 1130.43   5
  -3  10  15 9085.56 1247.94   5
   3  10 -15 10043.6 1467.23   3
   3  10 -15 8635.72 1111.84   4
  -3  10 -15 7074.14 1243.85   3
   3  10 -17 2741.23 622.732   4
   3  10  17 2751.76 623.382   5
  -3  10  17 2397.32 708.154   5
   3  10 -17 3456.07 939.726   3
  -3  10 -17 3177.54 794.599   3
   3  10  19 376.897 323.319   5
  -3  10  19 289.475 391.825   5
  -3  10 -19-553.088 515.403   4
   3  10 -19 1319.68 600.151   3
  -3  10 -19 377.080 435.037   3
   4  10   0 2859.63 958.646   4
  -4 -10   0 7303.90 2667.82   1
   4  10   0 3784.66 891.331   6
   4 -10   0 4258.38 2435.78   1
  10   4   0 2608.32 1008.99   3
   4  10   0 4841.60 998.454   3
  -4 -10  -2 5271.03 2613.48   1
   4  10   2 1435.38 809.817   4
   4  10  -2 2514.21 975.693   4
  -4 -10   2 1788.00 1794.82   1
   4  10   2 2293.73 818.488   6
   4  10  -2 2475.82 724.496   6
   4 -10  -2 3309.38 1975.66   1
  10   4   2 1380.72 792.947   3
  10   4  -2 2712.07 1039.94   3
   4  10  -2 1846.52 891.524   3
  10   4   4 1267.09 804.709   4
   4  10   4 1142.22 780.233   4
   4  10  -4 1841.61 965.216   4
   4  10   4 1730.45 742.682   6
   4 -10  -4-2219.87 2083.96   1
   4  10  -4 6046.58 2791.48   2
  10   4   4-35.3949 804.378   3
  -4  10   4 1140.08 807.526   6
  10   4  -4 568.288 821.145   3
   4  10  -4 1589.34 963.681   3
   4 -10   4 8022.88 3085.32   1
  -4 -10  -4-1429.90 2094.31   1
  10   4   6 7332.06 1228.42   4
   4  10   6 8248.02 1172.59   4
  -4  10   6 6287.02 1028.69   6
   4 -10   6 11105.9 3933.13   1
   4  10   6 6883.35 1098.15   6
   4  10  -6 4178.40 2691.33   2
  10   4   6 7307.25 1271.06   3
   4 -10  -6 6676.18 2964.23   1
  10   4  -6 6159.45 1212.55   3
   4  10  -6 5895.61 1212.90   3
   4  10  -6 8479.11 1340.28   4
  -4  10   8 6628.68 1067.59   6
   4  10   8 5542.37 1055.30   4
   4  10   8 5722.80 1064.24   6
   4  10  -8 5546.49 1166.72   4
  10   4   8 5213.77 1216.31   3
  -4  10   8 5156.29 1204.58   5
  10   4  -8 6075.19 1127.35   3
   4  10  -8 4844.12 1233.82   3
  10   4   8 3489.19 1062.93   4
   4  10  10 1285.45 758.663   4
   4  10 -10 1490.67 890.245   4
   4  10  10 2085.32 909.667   6
  -4  10  10 1767.48 837.647   5
  10   4 -10 1245.25 900.378   3
   4  10 -10 2775.08 1127.88   3
  10   4  10 295.343 796.207   4
  -4  10 -12 1561.38 769.964   3
   4  10  12 1417.41 728.608   4
   4  10 -12 1016.66 705.682   4
   4  10  12 1912.77 656.145   5
  -4  10  12 486.966 815.374   5
   4  10 -12 1457.23 1019.86   3
  10   4  12-831.574 924.271   4
   4  10 -14 710.428 715.615   4
   4  10  14 427.095 536.306   5
  -4  10  14-364.526 711.805   5
   4  10 -14-450.128 966.041   3
   4  10  14 173.242 549.820   4
  -4  10 -14-25.3304 699.674   3
   4  10  16-98.1200 421.329   5
  -4  10  16-633.616 681.621   5
   4  10 -16-806.814 866.012   3
  -4  10 -16-285.647 654.480   3
   4  10  18 1256.32 407.796   5
  -4  10  18 1365.10 530.769   5
   4  10 -18 2066.50 728.971   3
  -4  10 -18 2558.47 620.158   3
  -5 -10  -1 73325.5 8357.87   1
   5 -10   1 57373.9 7845.15   1
  -5 -10   1 67898.5 7756.54   1
   5  10   1 67156.1 2552.23   6
  10   5   1 63662.2 3149.44   3
  10   5  -1 62744.4 3080.13   3
   5  10   1 68437.0 3052.45   3
   5  10  -1 66997.8 3066.40   3
   5 -10  -1 63611.3 8311.98   1
   5  10   1 69672.3 2908.09   4
   5  10  -1 69168.8 2949.64   4
  -5 -10  -3 15289.9 4019.22   1
   5  10   3 16158.7 1390.17   6
  -5  10   3 12545.0 1324.21   6
   5  10   3 15012.1 1564.84   3
  10   5  -3 13775.4 1635.01   3
   5  10  -3 13470.6 1600.56   3
   5 -10  -3 9252.84 3047.78   1
  10   5   3 12454.9 1641.21   3
  10   5   3 14947.0 1534.37   4
   5  10   3 13192.4 1483.69   4
   5  10  -3 15133.5 1555.55   4
   5 -10   3 20268.1 4760.67   1
   5 -10   5 34141.8 6317.34   1
  -5  10   5 34565.7 1947.34   6
  10   5   5 38312.3 2520.37   3
  10   5  -5 33139.9 2342.95   3
   5  10  -5 30299.5 5652.90   2
   5 -10  -5 35638.0 6040.61   1
   5  10  -5 36011.9 2423.87   3
   5  10   5 36612.9 2032.10   6
  10   5   5 39074.0 2306.55   4
   5  10   5 39470.4 2262.22   4
   5  10  -5 39500.8 2371.05   4
  -5 -10  -5 39523.1 6390.33   1
   5  10   7 46302.4 2297.44   6
  10   5   7 44359.5 2733.93   3
  10   5  -7 39939.0 2628.85   3
   5  10  -7 45218.3 2759.90   3
  -5  10   7 45841.2 2869.96   5
  10   5   7 43956.0 2505.52   4
   5  10   7 44999.2 2439.16   4
   5  10  -7 45021.7 2514.90   4
   5  10   9 7926.42 1246.81   4
   5  10  -9 8005.44 1273.40   4
   5  10   9 8178.94 1181.11   6
  10   5   9 7617.20 1334.57   3
  -5  10   9 6716.43 1301.36   5
  10   5  -9 6428.95 1271.39   3
   5  10  -9 7963.71 1459.30   3
  10   5   9 7163.62 1209.37   4
  10   5 -11 22605.2 1875.80   3
   5  10 -11 20293.4 1954.70   3
  -5  10  11 20655.6 1909.73   5
  10   5  11 18982.6 1777.64   4
   5  10  11 22856.6 1792.80   4
   5  10 -11 19924.3 1673.99   4
  10   5 -13 28178.2 1885.17   3
   5  10 -13 32981.8 2344.17   3
  -5  10  13 31542.7 2161.70   5
  10   5  13 31220.0 2083.90   4
   5  10  13 27191.8 1809.04   4
   5  10 -13 32138.7 1856.43   4
   5  10 -15 17276.5 1695.04   3
  -5  10  15 17249.8 1486.67   5
   5  10  15 15980.0 1250.36   4
   5  10 -17 11829.2 1193.76   3
  -5  10  17 10773.8 1023.65   5
  -5  10 -17 8295.90 878.095   3
   5  10 -19 10834.6 831.674   3
  -5  10 -19 10877.8 833.123   4
   6  10   0 47320.8 2626.03   3
  10   6   0 53567.0 2891.33   3
   6  10   0 46363.3 2438.68   4
  10   6   2 19931.9 1909.16   3
  -6  10   2 16292.9 1442.21   6
   6  10   2 22494.2 1894.07   3
   6  10  -2 20574.6 1890.29   3
   6  10   2 20662.4 1483.94   6
   6 -10  -2 14058.1 3976.67   1
  10   6   2 19708.8 1675.43   4
   6  10   2 21066.6 1714.98   4
   6  10  -2 19324.3 1708.09   4
  10   6  -2 19517.3 1887.54   3
   6 -10   2 10752.9 3485.68   1
   6 -10   4 42060.5 6815.87   1
  10   6   4 38104.8 2558.80   3
   6  10   4 41034.1 2068.11   6
  10   6  -4 37099.5 2502.14   3
   6  10  -4 43839.6 2642.71   3
  10   6   4 43111.7 2412.94   4
   6  10   4 44039.3 2391.23   4
   6  10  -4 38439.0 2266.11   4
   6  10   4 44141.9 2501.30   3
  10   6  -6 39150.0 2530.86   3
   6  10   6 36905.1 2333.97   3
  10   6   6 35596.4 2467.13   3
   6  10  -6 36669.4 2507.81   3
   6  10   6 33745.5 2004.09   6
  10   6   6 36587.8 2300.32   4
   6  10   6 38736.0 2283.06   4
   6  10  -6 36978.6 2246.77   4
  10   6   8 13139.5 1652.31   3
  10   6  -8 11728.4 1579.82   3
   6  10  -8 13296.9 1714.42   3
  -6  10   8 11136.9 1576.75   5
   6  10   8 15321.9 1451.66   6
  10   6   8 14098.0 1616.90   4
   6  10   8 14320.5 1538.55   4
   6  10  -8 13036.9 1448.42   4
  10   6 -10 16134.8 1743.64   3
   6  10 -10 14913.0 1755.50   3
  -6  10  10 14091.2 1616.62   5
  10   6  10 13359.9 1573.36   4
   6  10  10 14800.4 1509.14   4
   6  10 -10 14553.3 1474.51   4
  10   6 -12 18378.9 1750.86   3
   6  10 -12 24541.7 2065.22   3
  -6  10  12 25927.4 1972.29   5
  10   6  12 23266.3 1864.56   4
   6  10  12 25512.2 1811.60   4
   6  10 -12 23819.6 1574.47   4
  10   6 -14 15863.7 1318.68   3
   6  10 -14 16653.6 1624.41   3
  -6  10  14 16314.3 1482.75   5
  10   6  14 18167.7 1542.19   4
   6  10  14 14750.6 1304.42   4
   6  10 -16 15457.6 1354.38   3
  -6  10  16 14139.6 1164.82   5
   6  10 -18 8666.96 805.054   3
  10   7   1 346.478 744.866   4
  10   7  -1-1601.22 790.949   4
   7  10   1-1413.48 888.311   4
   7  10  -1 151.481 749.066   4
  10   7   1 739.852 881.186   3
  10   7  -1 522.028 887.799   3
   7  10   1-799.038 894.135   3
   7  10  -1 338.375 875.674   3
  10   7   3 8488.23 1246.82   4
  10   7   3 9959.31 1495.26   3
   7  10   3 8220.84 1328.21   3
  10   7  -3 8990.11 1454.15   3
   7  10  -3 9340.73 1385.12   3
   7  10   3 9468.44 1304.67   4
   7  10  -3 9351.73 1328.98   4
   7  10   5 9725.82 1128.76   6
  10   7   5 8721.36 1461.21   3
   7  10   5 9242.70 1371.36   3
  10   7  -5 9095.24 1399.90   3
   7  10  -5 8653.49 1413.24   3
  10   7   5 8066.03 1327.83   4
   7  10   5 8920.87 1310.88   4
   7  10  -5 8730.74 1294.35   4
   7  10   7 5731.52 1104.28   4
   7  10  -7 5492.86 1114.63   4
   7  10   7 5070.43 941.113   6
  10   7   7 4710.37 1246.00   3
   7  10   7 5050.85 1112.39   3
  -7  10   7 5202.10 1139.47   5
  10   7  -7 4155.89 1182.93   3
   7  10  -7 8564.85 1419.66   3
  10   7   7 8686.09 1343.25   4
  10   7   9 4474.95 1061.36   4
   7  10   9 4643.21 1058.53   4
   7  10  -9 3897.26 914.159   4
   7  10   9 3156.32 923.939   3
  10   7   9 3633.43 1065.63   3
  -7  10   9 5982.92 1202.50   5
  10   7  -9 5220.13 1178.65   3
   7  10  -9 5172.80 1364.61   3
   7  10  11 3310.42 988.557   4
  -7  10  11 1867.59 854.762   5
  10   7 -11 1434.77 897.518   3
   7  10 -11 3371.48 1137.70   3
  10   7  11 621.759 866.623   4
  -7  10  13-251.141 636.042   5
  10   7 -13 107.431 680.935   3
   7  10 -13 920.656 858.429   3
  10   7  13 214.912 697.289   4
   7  10  13 299.586 643.426   4
  -7  10  15 455.133 505.202   5
  10   7 -15 387.333 508.304   3
   7  10 -15 20.6697 624.753   3
   7  10  15 778.932 533.942   4
   7  10 -17 459.570 455.615   3
  10   8   0 13435.1 1663.35   3
   8  10   0 16062.5 1757.17   3
  10   8   0 15573.2 1505.37   4
   8  10   0 14394.6 1495.40   4
  10   8   2-688.826 817.812   4
  10   8  -2 1745.22 774.857   4
   8  10   2-732.214 753.087   4
   8  10  -2-8.31635 677.146   4
  10   8   2 701.399 827.529   3
   8  10   2-1557.89 931.666   3
  10   8  -2-157.895 890.494   3
   8  10  -2-83.9802 872.314   3
  10   8   4 1030.06 864.122   4
   8  10   4 886.517 847.873   4
   8  10  -4 763.281 785.933   4
  10   8   4 2233.66 1083.68   3
   8  10   4-155.709 895.667   3
  10   8  -4 258.692 856.913   3
   8  10  -4 1652.24 941.025   3
  10   8   6 272.511 805.173   4
   8  10   6 2653.70 950.190   4
   8  10  -6 2061.27 790.245   4
  10   8   6 1318.78 986.629   3
   8  10   6 1092.65 822.242   3
  -8  10   6-435.628 862.976   5
  10   8  -6 339.273 837.733   3
   8  10  -6 556.492 958.988   3
  10   8   8 775.444 774.503   4
   8  10   8 1118.53 830.210   4
   8  10  -8-342.760 689.390   4
  10   8   8 1484.15 920.144   3
   8  10   8-320.285 747.056   3
  -8  10   8 535.840 680.566   5
  10   8  -8 2266.82 1035.27   3
   8  10  -8 897.333 1018.97   3
   8  10  10 845.363 803.310   4
  -8  10  10 415.254 627.956   5
  10   8 -10 321.221 819.754   3
   8  10 -10 1197.97 1013.60   3
  10   8  10 356.292 790.844   4
  -8  10  12 6357.72 953.722   5
  10   8 -12 7584.84 1173.77   3
   8  10  12 7306.29 1067.71   4
   8  10 -12 7030.58 1201.19   3
  10   8  12 5491.37 1047.18   4
  -8  10  14 2337.80 624.264   5
  10   8 -14 1965.82 685.831   3
  10   8  14 1936.96 658.837   4
   8  10 -14 2575.70 732.999   3
   8  10  14 2153.24 637.502   4
   8  10 -16 395.013 447.088   3
  10   9   1 756.287 679.210   4
  10   9  -1 709.953 733.917   4
   9  10   1 1048.87 766.235   4
   9  10  -1 423.682 687.457   4
  10   9   1 236.762 888.707   3
   9  10   1-236.680 911.196   3
  10   9  -1 675.228 962.345   3
   9  10  -1-3.30920 853.317   3
  10   9   3 851.994 762.513   4
   9  10   3 1012.78 850.022   4
  10   9  -3 2432.12 799.968   4
   9  10  -3 924.393 691.320   4
  10   9   3 644.055 921.234   3
   9  10   3 1210.60 929.317   3
  10   9  -3 837.378 1001.45   3
   9  10  -3 792.181 890.019   3
  10   9   5 1175.81 788.199   4
   9  10   5 15.5816 774.964   4
   9  10  -5 1517.43 736.675   4
  10   9   5-160.919 835.578   3
   9  10   5 292.383 780.131   3
  10   9  -5 566.463 932.348   3
   9  10  -5 601.950 951.974   3
 -10   9   5-675.199 875.675   5
  -9  10   5-267.955 809.584   5
  10   9   7 125.362 741.532   4
   9  10   7 769.921 802.384   4
  10   9   7 29.1868 802.581   3
   9  10   7 320.537 783.774   3
  -9  10   7-115.442 597.176   5
  10   9  -7-135.118 878.115   3
   9  10  -7 340.451 901.630   3
  10   9   9 824.591 788.642   4
   9  10   9 1418.15 855.923   4
  -9  10   9 1564.40 741.820   5
  10   9  -9 523.474 873.652   3
   9  10  -9 790.886 882.405   3
  -9  10  11 1843.15 658.860   5
  10   9 -11 1104.27 754.264   3
   9  10 -11 628.812 741.307   3
  10   9  11-251.337 638.170   4
   9  10  11 1019.82 724.146   4
  10   9 -13-771.527 596.908   3
   9  10 -13 207.794 589.553   3
  10   9  13-337.798 550.305   4
   9  10  13 583.055 565.047   4
   9  10 -15 440.123 431.384   3
  10  10   0 64932.6 3095.98   3
  10  10   0 64312.4 2697.07   4
  10  10   2 4886.01 1001.83   4
  10  10  -2 5817.68 1001.49   4
  10  10   2 5324.02 1220.13   3
  10  10  -2 4510.72 1187.30   3
  10  10   4 2289.18 860.892   4
  10  10  -4 1807.66 699.052   4
  10  10   4 2665.40 972.669   3
  10  10  -4 4189.29 1159.80   3
 -10  10   4 791.357 754.817   5
 -10  10   6 8010.41 1192.82   5
  10  10   6 7440.52 1234.14   3
  10  10  -6 6609.06 1221.94   3
  10  10   6 8980.69 1229.42   4
  10  10   8 1963.45 807.012   4
  10  10   8 2500.92 805.976   3
 -10  10   8 2665.91 858.043   5
  10  10  -8 3158.12 983.961   3
  10  10 -10 3972.35 965.585   3
  10  10  10 1886.64 767.072   4
  10  10 -12 9965.54 1064.38   3
  10  10  12 11685.8 1041.82   4
  10  10 -14 7964.02 725.033   3
   0  11   1 134509. 4086.46   6
   0 -11   1 126818. 11447.6   1
   0 -11  -1 130790. 11343.2   1
   0  11   1 134226. 3938.48   4
   0  11  -1 138296. 4112.28   4
   0 -11  -3 76985.8 9303.53   1
   0  11   3 90326.4 3263.48   6
   0 -11   3 79344.4 9180.78   1
   0  11   3 86887.4 3144.47   4
   0  11  -3 98214.3 3584.49   4
   0 -11  -5 44024.6 6991.30   1
   0  11   5 47178.6 2367.35   6
   0  11   5 42907.5 2459.74   5
   0 -11   5 32420.0 5943.49   1
   0  11  -5 39582.5 2519.20   4
   0  11   7 39083.9 2224.15   6
   0  11   7 36191.0 2247.45   5
   0  11  -7 39772.5 2529.38   4
   0  11   9 11017.5 1350.84   6
   0  11   9 11339.1 1407.33   5
   0  11  -9 10344.8 1349.03   3
   0  11  -9 12508.8 1581.44   4
   0  11  11 106873. 3534.01   6
   0  11 -11 96189.2 3851.93   3
   0  11  11 107399. 3754.25   5
   0  11  13 76927.0 2847.48   6
   0  11 -13 69019.7 3154.87   3
   0  11  13 71811.4 2994.20   5
   0  11 -13 67653.5 3354.19   4
   0  11  15 59179.0 2539.88   5
   0  11 -15 64926.3 2890.18   4
   0  11 -17 20221.4 1500.34   3
   0  11  17 20118.4 1360.23   5
   0  11 -17 20574.0 1433.15   4
   0  11 -19 14001.3 941.835   3
   0  11  19 13467.9 859.105   5
  -1 -11   0 44175.4 6714.02   1
   1  11   0 51446.2 2503.59   6
   1 -11   0 47584.4 7025.13   1
   1  11   0 54014.2 2585.43   4
  -1  11   0 53113.8 2535.99   4
  -1 -11  -2 58276.6 7703.38   1
   1  11   2 77461.9 2976.43   6
  11   1   2 69905.2 2968.49   3
   1 -11   2 62326.6 8329.48   1
  -1 -11   2 63245.8 7998.07   1
   1 -11  -2 72374.3 8670.30   1
  -1  11   2 73105.8 3051.65   6
   1  11   2 73296.6 2944.66   4
  -1  11   2 68491.3 2749.39   4
   1  11  -2 64483.7 3088.41   4
  -1  11  -2 75965.6 3100.23   4
   1  11   4 49747.5 2403.40   6
  11   1   4 50106.0 2628.54   3
  -1 -11  -4 41822.8 6684.15   1
   1 -11  -4 49320.6 7317.86   1
   1  11   4 45187.9 2414.75   5
  -1 -11   4 44302.6 7085.70   1
   1 -11   4 39796.4 6597.71   1
  -1  11   4 47393.5 2434.70   6
   1  11   4 50833.7 2481.50   4
   1  11  -4 46756.3 2634.81   4
  -1  11  -4 50531.5 2693.55   4
  -1 -11  -6 21070.8 4772.75   1
   1 -11  -6 36506.3 6281.68   1
   1  11   6 23208.3 1800.29   6
  -1  11   6 23025.4 1822.50   6
  11   1   6 19248.7 1806.33   3
   1  11  -6 22375.1 1795.20   3
   1  11   6 22645.5 1718.33   5
  -1  11   6 22356.4 1933.73   5
  -1 -11   6 32410.8 6318.38   1
   1  11   6 23615.1 1751.31   4
   1 -11   6 20270.3 5002.87   1
   1  11  -6 20954.4 1960.28   4
  -1  11  -6 23740.5 2034.00   4
   1  11   8 18592.9 1608.79   6
  -1  11   8 17889.4 1581.19   6
   1  11  -8 17666.0 1701.05   3
   1  11   8 18259.7 1666.14   5
  -1  11   8 15284.6 1653.95   5
   1  11  -8 18216.4 1872.71   4
  -1  11  10 34687.2 2058.61   6
   1  11 -10 31222.6 2226.57   3
  -1  11 -10 31891.3 2153.57   3
   1  11  10 35625.0 2193.85   5
  -1  11  10 35059.8 2275.21   5
   1  11  10 33753.8 2090.78   6
   1  11 -10 36343.9 2498.03   4
  -1  11  12 42720.6 2243.01   6
   1  11 -12 44999.4 2627.58   3
  -1  11 -12 36176.6 2415.79   3
   1  11  12 42753.9 2323.92   5
  -1  11  12 42828.5 2466.02   5
   1  11  12 44983.4 2301.03   6
   1  11 -12 45929.6 2705.14   4
   1  11 -14 36198.6 2322.27   3
  -1  11 -14 30628.8 2140.29   3
   1  11  14 34641.8 2001.04   5
  -1  11  14 38126.8 2208.80   5
   1  11 -14 39842.7 2382.86   4
   1  11 -16 16788.5 1530.14   3
  -1  11 -16 14584.7 1372.85   3
   1  11  16 15809.7 1284.21   5
  -1  11  16 17652.6 1427.38   5
   1  11 -16 19256.1 1511.83   4
  -1  11 -16 16545.8 1478.47   4
   1  11 -18 8161.48 972.180   3
  -1  11 -18 9873.83 953.141   3
   1  11  18 9138.42 822.309   5
  -1  11  18 9836.10 899.657   5
   1  11 -18 9861.04 844.757   4
  -1  11 -18 10812.3 947.571   4
  -2 -11   1-4027.02 2539.85   1
   2  11   1 745.661 713.349   4
   2  11  -1 9.99619 716.208   4
  -2  11  -1 1518.65 830.348   4
  -2 -11  -1-2466.75 2334.13   1
   2  11   1 776.273 724.087   6
   2  11  -1 905.099 820.170   6
   2 -11  -1 3619.59 2371.65   1
  -2  11   1-766.089 1027.09   6
   2 -11   1 1202.80 1853.90   1
  11   2   1-923.878 798.843   3
  11   2  -1-53.1752 901.630   3
   2  11   3 7563.34 1132.04   4
  -2 -11  -3 1854.40 2176.57   1
   2  11  -3 7340.56 1300.48   4
   2  11   3 8259.16 1156.39   6
   2 -11  -3 2533.04 2447.36   1
  -2  11   3 6656.65 1164.39   6
   2  11  -3 6810.47 1156.46   6
  -2 -11   3 13647.9 3964.80   1
  11   2   3 5988.53 1199.19   3
   2 -11   3 8526.81 3058.92   1
  -2  11  -3 6362.31 1126.92   4
  -2 -11  -5 13415.2 4097.02   1
  -2  11   5 15588.0 1504.50   6
  11   2   5 10790.4 1475.82   3
   2  11  -5 11833.5 1492.26   3
   2 -11  -5 8360.58 3484.70   1
  -2 -11   5 21582.9 4862.19   1
   2  11   5 13873.6 1442.05   6
   2 -11   5 16588.6 4893.22   1
   2  11   5 13612.0 1433.47   4
   2  11  -5 12477.3 1575.14   4
  -2  11  -5 14543.4 1630.42   4
   2  11   7 1931.25 797.059   4
   2  11  -7 1406.97 958.353   4
   2  11   7 1086.35 897.972   6
  11   2   7 767.081 825.039   3
  -2  11   7 981.144 798.555   6
   2  11   7 1065.13 738.909   5
  -2  11   7 2260.76 958.820   5
   2  11  -7 1107.84 912.930   3
  11   2   7 83.5735 836.346   4
  -2  11   9 26342.0 1858.09   6
   2  11   9 25049.3 1887.88   6
   2  11  -9 21796.3 2016.80   3
   2  11   9 26477.3 1830.10   5
  -2  11   9 23436.0 2031.71   5
  11   2   9 25574.7 1924.64   4
   2  11   9 26340.3 1832.65   4
   2  11  -9 28492.7 2166.76   4
  -2  11  11-193.170 693.177   6
   2  11 -11-63.1455 838.827   4
   2  11  11-735.613 840.263   6
   2  11  11-459.753 668.847   5
  -2  11  11 675.431 809.527   5
   2  11 -11 193.821 883.044   3
  -2  11 -11-700.680 700.120   3
   2  11  13 367.929 591.803   5
  -2  11  13 1703.65 886.891   5
   2  11 -13 163.897 792.697   4
   2  11 -13-450.056 992.155   3
  -2  11 -13 1217.11 806.481   3
   2  11 -15 337.735 668.485   4
   2  11  15 311.696 496.093   5
  -2  11  15 89.5014 698.049   5
   2  11 -15 579.439 807.479   3
  -2  11 -15 593.591 697.254   3
   2  11 -17 672.851 501.668   4
  -2  11 -17-653.421 688.416   4
   2  11  17 1377.39 506.099   5
  -2  11  17 999.658 574.784   5
   2  11 -17 335.975 631.214   3
  -2  11 -17 1421.44 603.194   3
  -2  11  19 1899.30 448.697   5
   2  11 -19 2213.48 515.411   3
  -3 -11   0 2276.95 1977.25   1
   3  11   0 2081.76 925.866   4
   3  11   0 1877.68 775.655   6
  11   3   0 2462.13 903.241   3
   3  11   2 333.726 721.706   4
   3  11  -2 663.467 801.124   4
  -3  11  -2 303.112 715.166   4
   3  11  -2 443.972 670.119   6
  -3  11   2-963.740 962.199   6
   3 -11  -2 2467.74 1565.35   1
  -3 -11   2 745.491 1570.94   1
   3  11   2 57.7056 709.079   6
  11   3   2 644.545 842.071   3
  11   3  -2 164.077 761.949   3
   3  11  -2 500.524 679.660   3
  -3 -11  -4 4098.10 2618.23   1
   3  11   4 5920.53 1129.87   4
   3  11  -4 6500.23 1241.42   4
  -3  11  -4 4879.34 1045.09   4
   3 -11  -4 4733.38 2336.39   1
   3  11   4 5494.83 1016.89   6
  -3  11   4 6200.51 1085.45   6
   3  11  -4 4994.09 966.384   6
   3  11  -4-864.422 1143.70   2
  11   3   4 3987.83 1117.68   3
  11   3  -4 5673.01 1116.88   3
   3  11  -4 5657.19 1143.92   3
   3 -11   4 2052.36 1972.07   1
   3  11   6 4239.59 1020.33   4
  -3  11   6 4707.83 1002.54   6
   3  11  -6 3409.13 1088.25   4
   3  11   6 4025.00 1043.42   6
   3  11  -6 3082.29 895.372   6
   3  11  -6-465.740 1393.59   2
  11   3   6 2692.71 1082.56   3
  -3  11   6 1035.13 942.146   5
   3  11  -6 4487.40 1180.86   3
  11   3   6 3584.11 983.489   4
   3  11   8 14584.3 1508.01   6
  -3  11   8 15279.9 1488.46   6
   3  11  -8 14731.1 1689.80   3
  -3  11   8 15071.5 1738.74   5
  11   3   8 14500.1 1659.38   3
  11   3   8 13881.1 1522.42   4
   3  11   8 14232.4 1428.44   4
   3  11  -8 15096.9 1693.53   4
   3  11  10 1188.41 752.692   4
   3  11 -10 453.318 831.958   4
  -3  11  10 1547.53 786.535   6
   3  11  10 54.8734 539.112   5
   3  11  10-251.658 818.637   6
  -3  11  10 768.475 866.288   5
   3  11 -10 841.494 911.645   3
  11   3  10-724.176 930.876   4
   3  11  12 1315.09 871.961   6
   3  11 -12 104.937 718.739   4
  -3  11  12 1441.94 733.977   6
   3  11  12 2112.32 750.724   5
  -3  11  12 464.300 751.153   5
   3  11 -12 285.640 865.648   3
   3  11 -14 2153.46 801.738   4
   3  11  14 989.625 555.468   5
  -3  11  14 1082.09 739.012   5
   3  11 -14-386.026 998.740   3
  -3  11 -14 1436.14 743.681   3
   3  11 -16-11.8411 484.171   4
   3  11  16 237.303 392.286   5
  -3  11  16 533.759 589.983   5
   3  11 -16 141.087 700.110   3
  -3  11 -16 470.065 561.348   3
  -3  11 -18-177.047 455.338   4
  -3  11  18-541.393 424.992   5
  -4 -11  -1 15645.0 4094.44   1
   4  11   1 11670.8 1262.20   6
   4  11  -1 9201.86 1160.26   6
  11   4   1 12696.7 1598.11   3
  11   4  -1 11259.3 1523.52   3
  -4 -11   1 8564.55 3154.40   1
   4  11  -1 11550.6 1409.92   3
   4 -11  -1 12609.2 3765.19   1
   4 -11   1 18526.3 4707.23   1
   4  11   1 13291.4 1480.31   4
   4  11  -1 11163.0 1420.23   4
  -4 -11  -3 15797.6 4116.20   1
   4  11   3 18998.5 1534.45   6
   4  11  -3 22476.4 1629.46   6
  -4  11   3 21428.8 1708.01   6
  11   4   3 22500.3 1993.34   3
  11   4  -3 21369.8 1892.22   3
   4  11  -3 23103.3 1885.33   3
   4 -11  -3 23648.0 5088.96   1
   4 -11   3 24978.0 5232.32   1
   4  11   3 21946.5 1808.51   4
   4  11  -3 24734.2 1970.36   4
  -4  11  -3 20773.0 1672.41   4
  -4  11   5 9703.04 1269.43   6
   4  11   5 9118.29 1224.40   6
  11   4  -5 9500.31 1398.10   3
   4  11  -5 11206.0 1472.06   3
  11   4   5 8923.46 1429.94   3
   4  11   5 10758.0 1383.56   4
   4  11  -5 10382.2 1418.68   4
  11   4   5 8384.91 1182.82   4
   4  11   7 30013.4 1954.97   6
  -4  11   7 25728.4 1813.20   6
  11   4   7 28705.1 2218.99   3
   4  11  -7 26712.0 2150.21   3
  -4  11   7 29014.0 2276.20   5
  11   4   7 25425.4 1947.35   4
   4  11   7 29125.2 2018.63   4
  11   4  -7 28211.0 2141.64   3
   4  11  -7 31627.5 2226.11   4
   4  11   9 15012.8 1502.90   6
  -4  11   9 14580.5 1389.51   6
   4  11  -9 12275.6 1591.80   3
  -4  11   9 15583.4 1737.51   5
  11   4   9 13167.2 1521.38   4
   4  11   9 15211.0 1517.75   4
   4  11  -9 14002.5 1591.32   4
   4  11  11 10326.4 1344.40   6
  -4  11  11 9685.20 1412.22   5
   4  11  11 10023.8 1239.84   4
   4  11 -11 7219.81 1311.10   3
   4  11 -11 8620.25 1281.36   4
  11   4  11 8833.63 1271.05   4
   4  11 -13 4143.55 950.800   4
  -4  11  13 3641.36 952.326   5
   4  11 -13 2806.72 981.748   3
   4  11  13 2890.99 786.513   4
  -4  11  15 6924.19 1047.11   5
   4  11 -15 7433.45 1174.61   3
   4  11 -15 6453.56 827.466   4
   4  11 -17 8195.37 992.803   3
  -4  11  17 8483.60 881.113   5
  -4  11 -17 5627.84 851.433   4
   5  11   0 73036.0 2674.35   6
  11   5   0 70510.8 3321.52   3
   5  11   0 74792.1 3204.20   3
   5  11   0 76622.7 3140.60   4
  11   5   2 71345.3 3385.53   3
   5  11   2 75829.4 2770.39   6
  -5  11   2 68732.0 2965.20   6
  11   5  -2 74270.9 3456.91   3
   5  11   2 77299.3 3158.20   3
   5  11  -2 78397.1 3284.19   3
   5  11   2 76085.2 3135.44   4
   5  11  -2 77681.6 3219.91   4
   5  11   4 30854.4 1922.00   6
  -5  11   4 28718.0 1900.23   6
  11   5   4 35440.8 2438.50   3
  11   5  -4 36434.4 2415.05   3
   5  11  -4 32669.9 2252.30   3
  11   5   4 31399.2 1997.67   4
   5  11   4 32324.4 2133.08   4
   5  11  -4 34407.9 2238.36   4
  -5  11   6 51875.4 2334.83   6
  11   5   6 55862.1 2983.46   3
   5  11   6 54279.2 2483.46   6
  11   5  -6 56025.3 2965.51   3
   5  11  -6 52839.3 2887.34   3
  -5  11   6 58406.5 3185.06   5
  11   5   6 53113.3 2711.40   4
   5  11   6 55009.7 2716.07   4
   5  11  -6 54765.1 2777.67   4
  11   5  -8 31955.2 2283.13   3
   5  11   8 38928.9 2181.73   6
  11   5   8 36042.2 2453.89   3
   5  11  -8 35411.4 2462.16   3
  -5  11   8 40709.3 2630.91   5
  11   5   8 38296.9 2301.67   4
   5  11   8 38625.9 2285.35   4
   5  11  -8 37466.7 2332.23   4
   5  11  10 41986.5 2196.62   6
  11   5 -10 39019.3 2276.55   3
   5  11 -10 41209.9 2580.94   3
  -5  11  10 40032.4 2514.61   5
  11   5  10 41880.8 2375.42   4
   5  11  10 39635.2 2274.09   4
   5  11 -10 40988.8 2267.81   4
   5  11 -12 35300.7 2378.85   3
  -5  11  12 36563.0 2284.14   5
  11   5  12 33548.5 2070.57   4
   5  11  12 35713.1 2025.90   4
   5  11 -12 34626.1 1927.68   4
   5  11 -14 34841.6 2154.79   3
  -5  11  14 38467.6 2094.65   5
   5  11  14 31970.2 1674.16   4
   5  11 -14 33980.5 1628.83   4
   5  11 -16 25052.0 1584.94   3
  -5  11  16 23379.1 1401.30   5
  -6  11   1 58277.4 2623.04   6
   6  11   1 60617.9 2444.27   6
  11   6   1 64653.2 3213.54   3
  11   6  -1 56421.0 3055.36   3
   6  11   1 63534.6 2995.36   3
   6  11  -1 55737.9 2924.99   3
   6  11   1 61092.7 2857.77   4
   6  11  -1 62005.9 2871.44   4
   6  11   3 37733.7 1986.56   6
  11   6   3 39610.5 2565.44   3
   6  11   3 39170.6 2355.20   3
  11   6  -3 34108.6 2452.31   3
   6  11  -3 36795.4 2415.18   3
  -6  11   3 31870.1 1928.25   6
  11   6   3 36423.0 2217.06   4
   6  11   3 38332.6 2294.41   4
   6  11  -3 40321.9 2351.69   4
   6  11   5 53007.7 2380.38   6
  11   6   5 52532.8 2978.26   3
   6  11   5 45295.4 2545.88   3
  11   6  -5 59047.3 2983.26   3
   6  11  -5 51397.7 2829.62   3
  11   6   5 53325.7 2635.50   4
   6  11   5 54686.1 2695.95   4
   6  11  -5 53262.6 2688.96   4
  11   6   7 28709.8 2210.95   3
  11   6  -7 27011.5 2159.43   3
   6  11  -7 29834.6 2266.47   3
  -6  11   7 29239.3 2243.80   5
   6  11   7 28469.2 1859.89   6
  11   6   7 26762.3 2015.54   4
   6  11   7 27689.8 1982.51   4
   6  11  -7 25435.1 1901.38   4
  11   6  -9 51694.1 2686.74   3
   6  11  -9 50886.5 2821.69   3
  -6  11   9 47447.5 2732.21   5
  11   6   9 52159.6 2634.80   4
   6  11   9 52611.7 2587.15   4
   6  11  -9 48010.6 2386.43   4
  11   6 -11 33019.4 2079.22   3
   6  11 -11 37233.7 2347.14   3
  -6  11  11 34939.1 2206.77   5
  11   6  11 29756.8 2024.99   4
   6  11  11 38591.9 2131.99   4
   6  11 -11 36938.9 1937.15   4
   6  11 -13 25204.5 1851.78   3
  -6  11  13 24367.6 1697.82   5
   6  11  13 25860.7 1602.40   4
  -6  11  15 23574.3 1415.44   5
   6  11  15 21034.3 1185.73   4
   6  11 -17 14632.7 984.809   3
  -6  11 -17 12360.9 896.668   4
  11   7   0 18494.3 1903.27   3
   7  11   0 20775.2 1857.81   3
   7  11   0 19399.6 1694.54   4
  11   7   2 5795.90 1036.35   4
   7  11   2 4639.20 1038.90   4
   7  11  -2 5393.79 1074.72   4
  11   7   2 4899.00 1245.32   3
   7  11   2 3943.11 1032.88   3
  11   7  -2 5772.49 1302.14   3
   7  11  -2 6533.22 1312.95   3
   7  11   4 36245.4 1894.58   6
  11   7   4 34851.5 2499.76   3
  11   7  -4 40609.0 2575.98   3
   7  11  -4 36356.8 2388.84   3
   7  11   4 32868.1 2232.47   3
  11   7   4 37038.6 2183.67   4
   7  11   4 36590.5 2259.65   4
   7  11  -4 37703.9 2238.15   4
  11   7   6 7024.20 1239.07   4
   7  11   6 8100.50 1076.06   6
  11   7   6 7547.05 1352.68   3
   7  11   6 7685.66 1191.47   3
  11   7  -6 7066.41 1283.03   3
  -7  11   6 6970.03 1243.39   5
   7  11  -6 8919.38 1455.36   3
   7  11   6 8492.89 1302.09   4
   7  11  -6 9399.94 1241.54   4
  11   7   8 22186.8 1883.56   3
  11   7  -8 24175.8 1984.74   3
   7  11  -8 21126.2 1948.83   3
  -7  11   8 22690.7 1884.06   5
  11   7   8 24904.6 1856.97   4
   7  11   8 21536.1 1728.76   4
   7  11  -8 21405.5 1650.95   4
  11   7 -10 10555.0 1440.85   3
   7  11 -10 10508.1 1438.64   3
  -7  11  10 12321.5 1411.90   5
  11   7  10 12210.9 1350.08   4
   7  11  10 13340.6 1379.11   4
   7  11 -10 9749.71 1096.67   4
  11   7 -12 8246.93 1092.05   3
   7  11 -12 8833.96 1232.64   3
  -7  11  12 6769.61 1016.33   5
  11   7  12 8367.44 1110.87   4
   7  11  12 8737.93 1070.92   4
  -7  11  14 3326.96 677.824   5
   7  11 -14 4704.90 865.814   3
   7  11  14 2669.65 602.153   4
  -7  11 -16 2829.90 531.968   4
   7  11 -16 2814.40 584.728   3
  11   8   1 375.479 639.956   4
   8  11   1-669.293 845.576   4
   8  11  -1 851.761 792.161   4
  11   8   1 962.956 968.387   3
   8  11   1 213.892 865.022   3
  11   8  -1 359.210 889.729   3
   8  11  -1 1604.06 995.965   3
  11   8   3 6472.94 1080.69   4
   8  11   3 6835.23 1165.59   4
   8  11  -3 6347.47 1059.59   4
  11   8   3 6450.71 1313.86   3
   8  11   3 6337.07 1204.80   3
  11   8  -3 6288.68 1325.15   3
   8  11  -3 7094.23 1320.91   3
  11   8   5 1473.67 861.974   4
   8  11   5 910.194 836.726   4
   8  11  -5 1840.10 795.207   4
  11   8   5 1597.74 971.701   3
   8  11   5-131.914 771.395   3
  11   8  -5 379.377 925.336   3
   8  11  -5 1936.44 1011.56   3
  -8  11   5-254.952 713.553   5
  11   8   7 1124.27 818.062   4
   8  11   7-635.104 817.346   4
   8  11  -7 515.560 659.627   4
  11   8   7-811.424 941.159   3
   8  11   7-1174.22 724.772   3
  11   8  -7 613.352 854.257   3
  -8  11   7 573.361 689.179   5
   8  11  -7 589.063 943.455   3
   8  11   9 1369.14 750.071   4
   8  11  -9 564.150 549.642   4
  -8  11   9 1829.04 766.615   5
  11   8  -9 1781.94 886.143   3
   8  11  -9 1572.27 851.955   3
  11   8   9 1803.19 825.561   4
  -8  11  11-844.393 604.006   5
  11   8 -11-328.037 700.423   3
   8  11 -11-359.674 783.276   3
  11   8  11-1102.25 680.188   4
   8  11  11 899.332 629.502   4
  -8  11  13 279.314 440.178   5
  11   8 -13-411.759 557.498   3
  11   8  13-182.416 522.083   4
   8  11 -13-1160.97 643.689   3
   8  11  13 56.2799 496.518   4
   8  11 -15 467.943 443.924   3
  11   9   0-837.647 657.922   4
   9  11   0 966.290 721.788   4
  11   9   0 846.849 879.981   3
   9  11   0-403.208 810.882   3
   9  11   2 9142.78 1365.13   3
  11   9  -2 10680.5 1524.86   3
   9  11  -2 10993.7 1485.37   3
  11   9   2 8769.72 1386.02   3
  11   9   2 9262.09 1175.58   4
   9  11   2 8604.58 1300.63   4
   9  11  -2 7745.92 1113.00   4
  11   9   4 3923.66 905.547   4
   9  11   4 5368.74 1048.49   4
   9  11  -4 3598.14 844.411   4
  11   9   4 4241.84 1041.75   3
   9  11   4 4209.65 1081.53   3
  11   9  -4 4946.91 1209.96   3
   9  11  -4 4283.33 1085.73   3
  -9  11   4 3166.09 986.982   5
  11   9   6 1492.72 772.869   4
   9  11   6 1201.25 807.338   4
   9  11  -6 1198.95 665.754   4
  11   9   6 972.038 756.028   3
   9  11   6 1325.67 794.086   3
  11   9  -6 1806.65 933.490   3
   9  11  -6 1298.84 862.657   3
  -9  11   6 1101.17 751.485   5
   9  11   8 1135.86 757.982   4
   9  11   8 165.720 612.899   3
  11   9   8-382.852 755.195   3
  11   9  -8 894.596 792.448   3
  -9  11   8 648.624 603.764   5
   9  11  -8 297.910 762.527   3
  11   9   8 1035.59 764.783   4
  -9  11  10 179.370 531.063   5
  11   9 -10 945.462 745.526   3
   9  11 -10 1074.48 761.333   3
  11   9  10 1253.22 681.079   4
   9  11  10 1617.93 728.408   4
  -9  11  12 1091.24 491.283   5
  11   9 -12 1687.33 598.827   3
   9  11 -12 1781.75 660.206   3
  11   9  12 1610.06 568.628   4
   9  11  12 2074.05 599.875   4
   9  11 -14 876.283 436.806   3
  11  10   1 27093.2 2001.48   3
  10  11   1 29491.2 2066.60   3
  11  10  -1 31252.4 2159.62   3
  10  11  -1 29863.2 2114.68   3
  11  10   1 28761.7 1739.15   4
  11  10  -1 26527.5 1674.45   4
  10  11   1 26699.1 1849.06   4
  10  11  -1 28903.4 1818.06   4
  11  10   3 19028.9 1664.97   3
  10  11   3 18021.5 1652.16   3
  11  10  -3 21179.0 1817.79   3
  10  11  -3 17528.4 1645.54   3
 -11  10   3 16367.1 1681.28   5
 -10  11   3 18547.3 1761.96   5
  11  10   3 19038.6 1520.72   4
  10  11   3 18051.9 1546.28   4
  10  11  -3 17291.0 1376.05   4
  11  10   5 15214.3 1467.41   3
  10  11   5 13892.5 1416.92   3
  11  10  -5 16342.9 1617.97   3
  10  11  -5 17794.3 1639.35   3
 -10  11   5 16617.3 1542.58   5
  11  10   5 15466.9 1365.32   4
  10  11   5 16785.6 1438.95   4
  10  11  -5 16181.9 1218.93   4
  11  10  -7 8054.79 1175.03   3
  10  11  -7 10104.2 1269.65   3
  11  10   7 6364.60 1014.95   3
  10  11   7 7880.93 1060.81   3
 -10  11   7 5569.74 972.145   5
  11  10   7 9005.51 1106.63   4
  10  11   7 8513.22 1073.65   4
  11  10  -9 6498.95 1030.43   3
  10  11  -9 7163.08 1019.56   3
  11  10   9 6873.67 916.002   4
  10  11   9 6380.28 933.078   4
  11  10 -11 12583.1 1060.01   3
  10  11 -11 12871.1 1102.62   3
  11  10  11 13683.1 1043.07   4
  10  11  11 13473.6 1030.70   4
  11  11   0 37510.7 2142.45   3
  11  11   0 38591.0 1841.33   4
  11  11   2 26457.1 1804.48   3
  11  11  -2 28264.3 1912.40   3
 -11  11   2 24287.2 1991.81   5
  11  11   2 27179.1 1602.76   4
  11  11  -2 26067.7 1475.74   4
  11  11   4 27044.6 1746.86   3
  11  11  -4 31982.3 1951.42   3
 -11  11   4 25537.2 1795.72   5
  11  11   4 29637.5 1679.81   4
  11  11   6 16911.8 1320.11   3
  11  11  -6 19547.8 1499.25   3
  11  11   6 20235.1 1361.29   4
  11  11  -8 21156.4 1440.89   3
  11  11   8 21987.2 1310.49   4
  11  11 -10 17896.2 1156.42   3
  11  11  10 19052.6 1093.41   4
   0  12   0 67507.1 2990.55   6
   0  12   0 63065.0 2905.01   4
   0  12   2 38692.2 2317.42   6
   0  12   2 37755.6 2207.14   4
   0  12  -2 36814.1 2289.93   6
   0  12  -2 37436.3 2343.88   4
   0  12   4 52735.2 2595.82   6
   0  12   4 46796.4 2552.43   5
   0  12   4 46090.8 2365.52   4
   0  12  -4 47598.4 2715.44   4
   0  12   6 15832.0 1604.42   6
   0  12   6 13889.3 1488.23   5
   0  12  -6 14355.3 1640.92   4
   0  12   8 22238.8 1798.75   6
   0  12   8 21037.2 1749.11   5
   0  12  -8 19022.6 1956.48   4
   0  12 -10 34541.0 2249.05   3
   0  12  10 41227.8 2347.84   5
   0  12 -10 39472.4 2598.62   4
   0  12  12 35764.7 1987.10   6
   0  12 -12 28644.2 1961.18   3
   0  12  12 31464.2 1971.94   5
   0  12 -12 34164.9 2304.98   4
   0  12 -14 19826.9 1518.41   3
   0  12  14 22162.7 1559.77   5
   0  12 -14 21349.7 1719.82   4
   0  12 -16 9235.89 956.121   3
   0  12  16 10419.3 960.017   5
   0  12 -16 11044.5 1102.68   4
   1  12   1 34728.8 2140.55   6
  -1  12   1 32459.3 2134.98   6
   1  12  -1 33302.6 2138.85   6
  -1  12  -1 32060.5 2184.84   6
   1  12   1 29735.4 2081.11   4
  -1  12   1 31599.8 1981.52   4
   1  12  -1 33602.8 2193.90   4
  -1  12  -1 28214.6 2080.81   4
  -1  12   3 19161.5 1724.69   6
   1  12   3 18874.7 1648.36   6
  12   1   3 18167.0 1655.37   3
   1  12  -3 18578.5 1644.10   6
   1  12   3 16147.0 1465.03   5
   1  12   3 18220.6 1694.61   4
   1  12  -3 17785.9 1828.69   4
  -1  12  -3 21266.9 1833.56   4
   1  12   5 21640.8 1771.83   6
  -1  12   5 22007.5 1757.23   6
   1  12   5 18089.7 1589.98   5
  -1  12   5 20270.9 1806.99   5
   1  12   5 17160.7 1553.65   4
   1  12  -5 22402.6 1922.61   4
  -1  12  -5 17548.6 1810.69   4
   1  12   7 14179.7 1533.30   6
  -1  12   7 14448.1 1521.84   6
   1  12   7 12030.4 1319.40   5
  -1  12   7 11574.2 1455.77   5
   1  12  -7 9094.16 1312.58   3
   1  12  -7 12106.3 1578.20   4
  -1  12  -7 13024.8 1684.26   4
  -1  12   9 17512.4 1640.41   6
   1  12  -9 14340.8 1576.20   3
   1  12   9 16292.8 1514.57   5
  -1  12   9 16118.8 1622.55   5
   1  12   9 18233.9 1639.41   6
   1  12  -9 14653.9 1675.20   4
  -1  12  -9 12281.6 1660.24   4
  -1  12  11 15294.3 1414.42   6
   1  12  11 15326.7 1456.79   6
   1  12 -11 12716.6 1480.50   3
  -1  12 -11 11618.0 1377.51   3
   1  12  11 13708.0 1367.54   5
  -1  12  11 13696.6 1484.46   5
   1  12 -11 12669.7 1553.47   4
  -1  12 -11 13563.0 1613.02   4
   1  12 -13 10946.7 1351.76   3
  -1  12 -13 11211.7 1279.29   3
   1  12  13 12221.5 1266.31   5
  -1  12  13 13335.9 1351.56   5
   1  12 -13 13076.1 1499.77   4
  -1  12 -13 13302.4 1531.34   4
   1  12 -15 5538.77 915.918   4
  -1  12 -15 6266.89 977.036   4
   1  12  15 5414.57 815.532   5
  -1  12  15 5585.58 849.388   5
   1  12 -15 3805.59 859.663   3
  -1  12 -15 4799.42 811.128   3
   1  12 -17 3366.89 591.930   4
  -1  12 -17 3896.72 651.030   4
   1  12  17 3006.51 504.640   5
  -1  12  17 4244.88 638.872   5
   1  12 -17 3954.28 674.981   3
  -1  12 -17 2420.19 514.683   3
   2  12   0 3954.73 1058.33   4
  -2  12   0 5909.49 1096.08   4
   2  12   0 4507.63 975.366   6
  -2  12   0 3159.53 996.074   6
  12   2   0 4187.31 1004.89   3
   2  12   2 1464.88 817.165   4
   2  12  -2 2000.72 1042.00   4
  -2  12  -2 2741.46 906.936   4
   2  12   2 2655.91 970.990   6
  -2  12   2 4372.65 1092.51   6
   2  12  -2 2501.82 897.600   6
  12   2   2 1707.78 903.645   3
   2  12   4 910.183 839.384   4
   2  12   4 1157.33 841.561   6
   2  12  -4 1400.25 900.232   4
  -2  12  -4-47.2111 807.831   4
  -2  12   4 718.411 760.987   6
   2  12  -4-390.379 907.663   6
  12   2   4-89.0652 784.248   3
   2  12   6 10894.2 1332.90   6
  -2  12   6 12148.4 1437.60   6
  12   2   6 13959.9 1544.42   3
   2  12  -6 13042.6 1425.38   6
   2  12  -6 9152.12 1341.24   3
  -2  12   6 11085.5 1496.80   5
   2  12   6 11611.0 1352.66   4
   2  12  -6 11376.6 1508.72   4
  -2  12  -6 12196.0 1576.31   4
   2  12   8 1318.97 771.481   4
   2  12  -8 2398.11 965.699   4
  -2  12  -8 2849.42 1035.33   4
   2  12   8 2532.68 901.666   6
  -2  12   8 1666.34 816.256   6
   2  12   8 1999.21 744.610   5
  -2  12   8 2227.10 906.199   5
   2  12  -8 1989.75 873.395   3
   2  12 -10-145.600 877.144   4
  -2  12 -10-175.781 903.767   4
   2  12  10 690.066 794.238   6
  -2  12  10-706.382 766.929   6
   2  12  10-360.958 662.816   5
  -2  12  10 123.155 751.901   5
   2  12 -10-766.460 872.293   3
   2  12 -12 169.021 768.000   4
   2  12  12-29.4808 751.494   6
  -2  12  12 1143.78 682.086   6
   2  12  12-28.1677 482.714   5
  -2  12  12-953.077 803.767   5
  -2  12 -12-493.925 930.473   4
   2  12 -12-104.619 765.120   3
   2  12 -14 209.922 716.988   4
  -2  12 -14 23.6434 724.696   4
   2  12  14 293.156 485.127   5
  -2  12  14-229.532 627.422   5
   2  12 -14-897.226 749.435   3
  -2  12 -14-309.070 580.261   3
   2  12 -16 480.423 490.198   4
  -2  12 -16-876.791 605.110   4
   2  12  16 259.910 366.509   5
  -2  12  16-100.100 464.202   5
   2  12 -16 45.2322 529.116   3
  -2  12 -16-282.804 489.206   3
   3  12   1 629.375 780.823   4
   3  12  -1 222.455 814.152   4
   3  12   1 1537.92 805.422   6
   3  12  -1 1651.49 838.733   6
  -3  12   1 638.935 850.837   6
  12   3   1 1561.24 800.785   3
  12   3  -1 455.884 762.367   3
   3  12   3 4354.08 1035.74   4
   3  12  -3 3331.50 1035.95   4
  -3  12  -3 3176.39 957.414   4
   3  12   3 3425.69 983.145   6
  -3  12   3 3911.08 1046.71   6
   3  12  -3 3353.17 893.206   6
  12   3   3 3832.14 1155.78   3
  12   3  -3 1737.64 799.733   3
   3  12   5 1408.27 840.431   4
   3  12  -5 2090.40 954.504   4
  -3  12  -5 1506.81 857.381   4
   3  12   5 1763.69 914.900   6
  -3  12   5 1962.04 818.451   6
   3  12  -5 1296.72 704.503   6
  12   3   5 631.069 809.174   3
  -3  12   5 1184.20 883.317   5
   3  12  -5 673.574 785.295   3
   3  12   7 6500.58 1104.51   4
   3  12  -7 5436.54 1222.48   4
  -3  12  -7 4178.28 1119.84   4
   3  12   7 5252.03 1113.42   6
  -3  12   7 4069.61 1015.56   6
   3  12  -7 4859.26 895.396   6
  -3  12   7 3595.35 1046.05   5
   3  12  -7 4191.66 1090.29   3
  12   3   7 3811.06 877.340   4
   3  12   9 2465.63 902.641   4
   3  12  -9 888.728 871.561   4
  -3  12  -9 3484.44 1021.68   4
   3  12   9 2399.04 864.994   6
  -3  12   9 2188.31 795.745   6
  -3  12   9 2288.34 1019.88   5
  12   3   9 915.762 745.113   4
   3  12  -9 3760.68 1091.11   3
   3  12 -11 2126.21 879.051   4
  -3  12 -11-122.080 883.859   4
   3  12  11 2825.36 939.879   6
  -3  12  11 2103.26 741.602   6
   3  12  11 2069.61 655.258   5
  -3  12  11 38.0278 756.265   5
   3  12 -11 872.966 846.240   3
   3  12 -13 2093.26 805.620   4
  -3  12 -13 743.562 813.835   4
   3  12  13 1257.57 524.602   5
  -3  12  13 1525.77 764.722   5
   3  12 -13 2500.13 933.926   3
   3  12 -15-161.121 462.792   4
  -3  12 -15-732.738 669.364   4
   3  12  15 351.790 374.967   5
  -3  12  15 361.202 567.776   5
   3  12 -15 1155.08 696.366   3
  -3  12 -17 398.451 422.931   4
  -3  12  17 276.907 402.292   5
   3  12 -17-386.930 470.798   3
   4  12   0 8940.77 1178.06   6
  -4  12   0 7265.80 1238.23   6
  12   4   0 7799.89 1383.95   3
   4  12   0 8402.25 1323.90   4
   4  12   2 2025.10 894.959   4
   4  12  -2 2278.81 961.946   4
   4  12   2 2320.90 795.665   6
   4  12  -2 4735.83 938.188   6
  -4  12   2 2507.52 890.314   6
  12   4   2 4174.53 1083.71   3
  12   4  -2 2486.65 886.092   3
   4  12  -2 1840.03 896.071   3
   4  12  -4 7774.38 1260.05   4
  -4  12  -4 6654.01 1069.75   4
  -4  12   4 8438.77 1203.98   6
   4  12   4 7909.87 1157.28   6
  12   4  -4 9870.76 1369.97   3
   4  12  -4 8272.82 1008.92   6
  12   4   4 7911.58 1276.30   3
   4  12  -4 6288.37 1245.49   3
   4  12   4 9362.84 1299.59   4
   4  12   6 5873.81 1109.30   4
   4  12  -6 6919.88 1263.50   4
  -4  12  -6 4463.57 1011.18   4
   4  12   6 4697.90 1040.37   6
  -4  12   6 5047.11 1035.37   6
  12   4   6 5376.70 1153.31   3
  12   4  -6 5456.77 1247.19   3
  -4  12   6 4382.02 1121.53   5
   4  12  -6 4535.04 1069.05   3
  12   4   6 3630.66 951.656   4
   4  12   8 1979.53 845.544   4
   4  12  -8 3467.58 1066.54   4
  -4  12  -8 3125.13 1013.26   4
   4  12   8 3302.34 931.939   6
  -4  12   8 2014.58 778.083   6
  -4  12   8 2428.73 1000.47   5
   4  12  -8 1962.97 952.407   3
  12   4   8 2688.64 921.773   4
   4  12  10 429.061 657.506   4
   4  12 -10 1705.55 865.150   4
   4  12  10 1063.43 806.054   6
  -4  12  10 1885.11 960.569   5
  12   4  10 601.908 705.157   4
   4  12 -10 1148.52 904.312   3
   4  12 -12 3195.90 810.893   4
  -4  12 -12 1853.84 852.491   4
  -4  12  12 2764.08 874.664   5
   4  12 -12 2594.29 985.145   3
   4  12  12 3682.19 766.193   4
   4  12 -14 2539.64 639.509   4
  -4  12 -14 2835.46 768.313   4
  -4  12  14 3751.40 781.944   5
   4  12 -14 2619.10 843.481   3
  -4  12 -16 3586.92 632.658   4
  -4  12  16 3517.77 628.534   5
   4  12 -16 3737.25 710.936   3
   5  12   1 38456.8 2074.44   6
   5  12  -1 38098.5 1988.42   6
  12   5   1 37100.7 2537.62   3
  12   5  -1 37082.5 2479.56   3
   5  12   1 34642.7 2199.85   3
   5  12  -1 33608.8 2237.43   3
   5  12   1 40125.2 2356.03   4
   5  12  -1 42364.5 2445.45   4
  -5  12   1 38972.2 2207.93   6
   5  12   3 35123.6 1971.79   6
  -5  12   3 32211.6 1990.96   6
  12   5   3 33503.5 2439.03   3
  12   5  -3 30676.9 2298.74   3
   5  12  -3 32469.7 2196.18   3
   5  12   3 35521.2 2165.62   4
   5  12  -3 34073.9 2286.74   4
   5  12   5 14879.4 1419.39   6
  -5  12   5 14185.7 1378.44   6
  12   5   5 14367.7 1671.96   3
  12   5  -5 17342.0 1740.78   3
   5  12  -5 14198.0 1634.69   3
  -5  12   5 13989.0 1728.95   5
  12   5   5 12305.5 1415.93   4
   5  12   5 16298.0 1603.34   4
   5  12  -5 14761.8 1617.17   4
  -5  12  -5 9665.23 1212.81   4
   5  12   7 12650.0 1312.59   6
  -5  12  -7 8805.42 1219.69   4
  -5  12   7 12624.9 1239.98   6
  12   5   7 14863.8 1711.25   3
  12   5  -7 12190.1 1428.64   3
   5  12  -7 14694.4 1608.23   3
  -5  12   7 12574.7 1619.87   5
  12   5   7 12111.2 1473.59   4
   5  12   7 13171.2 1448.31   4
   5  12  -7 12892.1 1486.59   4
   5  12   9 23034.0 1675.93   6
  12   5  -9 20689.1 1682.58   3
   5  12  -9 23031.7 1887.72   3
  -5  12   9 23292.8 1982.27   5
  12   5   9 17919.7 1639.62   4
   5  12   9 21620.0 1702.54   4
   5  12  -9 21087.9 1702.21   4
  -5  12  -9 18384.9 1780.40   4
   5  12 -11 15781.3 1567.25   3
  -5  12  11 14531.6 1541.02   5
  12   5  11 17616.9 1490.80   4
   5  12  11 18140.6 1455.34   4
   5  12 -11 16604.1 1397.77   4
  -5  12 -11 16955.3 1556.38   4
   5  12 -13 18659.5 1545.21   3
  -5  12  13 21470.6 1567.15   5
   5  12  13 18349.5 1216.85   4
   5  12 -13 18133.5 1228.89   4
  -5  12 -13 22625.7 1576.76   4
   5  12 -15 14586.9 1197.39   3
  -5  12  15 13447.1 1064.98   5
  -5  12 -15 12622.2 1032.68   4
  -6  12   0 39931.9 2177.46   6
  12   6   0 37078.6 2559.51   3
   6  12   0 37496.0 2285.94   3
   6  12   0 40880.7 2346.25   4
   6  12   2 39096.5 1965.12   6
  -6  12   2 33811.0 2036.19   6
  12   6   2 34828.8 2480.73   3
   6  12   2 36743.9 2253.46   3
  12   6  -2 41227.4 2569.14   3
   6  12  -2 38370.6 2382.06   3
   6  12   2 36900.5 2272.13   4
   6  12  -2 39744.2 2369.87   4
   6  12   4 12314.0 1286.69   6
  -6  12   4 10003.2 1107.70   6
  12   6   4 10131.8 1571.73   3
  12   6  -4 13867.3 1606.01   3
   6  12  -4 10851.4 1464.92   3
  12   6   4 9427.84 1271.44   4
   6  12   4 12312.2 1443.76   4
   6  12  -4 13297.2 1508.63   4
   6  12   6 18366.0 1469.08   6
  12   6   6 19754.6 1931.32   3
  12   6  -6 16275.8 1738.56   3
   6  12  -6 15873.8 1729.31   3
  -6  12   6 16183.4 1757.42   5
  12   6   6 14340.2 1499.43   4
   6  12   6 18573.8 1678.74   4
   6  12  -6 16276.4 1606.24   4
   6  12   8 22997.8 1592.77   6
  12   6   8 22844.3 1952.06   3
  12   6  -8 23376.9 1830.50   3
   6  12  -8 20621.4 1800.31   3
  -6  12   8 25515.5 2005.96   5
  12   6   8 21914.7 1656.87   4
   6  12   8 25129.7 1814.81   4
   6  12  -8 18820.6 1547.54   4
  -6  12  -8 18943.6 1530.20   4
  12   6 -10 24339.4 1712.00   3
   6  12 -10 25171.3 1908.66   3
  -6  12  10 26646.7 1933.64   5
  12   6  10 25333.0 1779.00   4
   6  12  10 28838.6 1802.21   4
   6  12 -10 23862.6 1577.05   4
  -6  12 -10 23509.2 1637.41   4
   6  12 -12 11724.7 1318.22   3
  -6  12  12 12013.6 1235.75   5
   6  12  12 12276.3 1138.07   4
   6  12 -12 11179.4 1009.32   4
  -6  12 -12 9393.85 1148.45   4
   6  12 -14 13641.1 1196.28   3
  -6  12  14 12494.4 1033.34   5
   6  12  14 11083.7 831.037   4
  -6  12 -14 10316.8 992.498   4
  -7  12   1 10214.8 1196.08   6
  -7  12  -1 10581.4 1272.17   6
  12   7   1 12567.3 1592.10   3
  12   7  -1 11768.8 1585.69   3
   7  12   1 11759.6 1408.71   3
   7  12  -1 9982.72 1393.44   3
   7  12   1 13288.7 1441.10   4
   7  12  -1 11412.7 1384.52   4
  12   7   3-776.693 679.544   4
   7  12   3 347.750 768.463   4
   7  12  -3 940.990 820.049   4
   7  12   3-110.583 613.032   6
  12   7   3 949.196 878.990   3
   7  12   3-44.1714 752.189   3
  12   7  -3 115.854 857.913   3
   7  12  -3 819.734 901.829   3
   7  12   5 2771.10 954.819   4
   7  12  -5 2028.50 830.038   4
   7  12   5 2190.16 737.077   6
  12   7   5 3271.94 1066.36   3
   7  12   5 1766.46 711.744   3
  12   7  -5 3273.39 1042.26   3
   7  12  -5 3539.99 1030.71   3
  -7  12   5 2938.60 958.872   5
  12   7   5 1942.37 679.047   4
  12   7   7 11227.2 1414.83   3
  12   7  -7 11494.4 1380.39   3
   7  12  -7 9230.48 1362.44   3
  -7  12   7 9755.21 1330.30   5
  12   7   7 10256.2 1245.93   4
   7  12   7 10922.5 1318.59   4
   7  12  -7 10719.9 1223.80   4
   7  12   9 1213.69 708.825   4
   7  12  -9 1456.24 639.108   4
  12   7  -9 902.449 731.571   3
  -7  12   9 2784.34 848.529   5
   7  12  -9 2874.20 943.875   3
  12   7   9 1417.67 715.275   4
   7  12 -11 3683.94 636.295   4
  -7  12 -11 936.238 494.505   4
  -7  12  11 2054.28 665.393   5
  12   7 -11 2646.71 726.693   3
   7  12 -11 3581.64 886.030   3
  12   7  11 3841.98 819.751   4
   7  12  11 4032.94 803.662   4
  -7  12 -13 781.424 408.884   4
  -7  12  13 2667.06 601.429   5
   7  12 -13 2387.36 696.166   3
   7  12  13 1433.81 526.452   4
   7  12 -15 250.521 388.288   3
   8  12   0-286.418 717.129   4
  12   8   0 761.811 905.933   3
   8  12   0-668.569 863.231   3
  12   8   2 986.957 705.443   4
   8  12   2 1436.14 831.865   4
   8  12  -2 1053.32 787.064   4
  -8  12  -2 630.021 739.867   6
  12   8   2 765.740 880.121   3
   8  12   2 1681.46 887.624   3
  12   8  -2 613.137 824.153   3
   8  12  -2 1363.25 871.183   3
  12   8   4-430.477 609.628   4
   8  12   4-416.469 759.278   4
   8  12  -4 1276.76 751.333   4
  12   8   4 142.123 863.665   3
   8  12   4 36.7525 650.265   3
  12   8  -4 507.714 807.651   3
   8  12  -4-426.046 787.080   3
  -8  12   4-2144.39 1049.79   5
   8  12   6 470.414 752.038   4
   8  12  -6-41.0915 608.029   4
  12   8   6 1757.25 887.983   3
   8  12   6 674.941 604.974   3
  12   8  -6 746.185 801.344   3
   8  12  -6 876.049 864.992   3
  -8  12   6 874.869 707.522   5
  12   8   6 377.034 667.466   4
   8  12   8 289.890 672.086   4
   8  12  -8-66.5667 486.908   4
  12   8  -8 1460.68 740.207   3
  -8  12   8 713.359 672.657   5
   8  12  -8 182.080 676.266   3
  12   8   8 1334.19 738.566   4
   8  12  10 919.850 592.293   4
  12   8 -10 1350.26 625.532   3
  -8  12  10-239.900 579.014   5
   8  12 -10 1940.51 767.500   3
  12   8  10 1060.78 617.218   4
  -8  12  12 480.263 415.044   5
  12   8 -12 1077.56 507.166   3
   8  12 -12-674.169 561.926   3
   8  12  12-842.872 484.064   4
   8  12 -14-729.609 408.360   3
  12   9   1 397.126 551.354   4
   9  12   1-48.6850 682.965   4
   9  12  -1 996.918 722.950   4
  12   9   1-388.999 843.115   3
   9  12   1 717.042 746.749   3
  12   9  -1 833.942 839.777   3
   9  12  -1 705.222 785.693   3
  12   9   3 1098.27 657.532   4
   9  12   3 1474.38 765.345   4
   9  12  -3 628.227 627.895   4
  12   9   3 1397.11 896.705   3
   9  12   3 1555.07 797.574   3
  12   9  -3 699.173 774.497   3
   9  12  -3-448.817 802.601   3
  -9  12   3-377.582 806.255   5
   9  12   5 1434.58 733.930   4
   9  12  -5 941.585 632.030   4
  12   9   5 554.548 698.636   3
   9  12   5 1721.31 736.182   3
  12   9  -5 1924.89 894.666   3
   9  12  -5 900.318 809.677   3
  -9  12   5 1347.01 767.453   5
  12   9   5 1410.21 696.602   4
   9  12   7 535.657 633.955   4
   9  12  -7 65.3101 438.834   4
  12   9   7-499.132 690.608   3
  12   9  -7-61.7833 680.997   3
   9  12  -7 719.206 736.681   3
  -9  12   7 389.036 595.336   5
  12   9   7-513.282 585.885   4
   9  12   9 973.717 591.013   4
  12   9  -9 981.859 618.704   3
  -9  12   9 616.845 470.728   5
   9  12  -9 1214.06 658.070   3
  12   9   9 107.751 505.323   4
  -9  12  11 1245.02 480.514   5
  12   9 -11-150.934 432.471   3
   9  12 -11-43.8082 475.049   3
  12   9  11-212.004 445.645   4
   9  12  11-288.394 433.365   4
  12  10   0 6045.92 1097.62   3
  10  12   0 7222.34 1093.30   3
  10  12   0 8780.59 1038.23   4
  12  10   2 7976.87 1173.71   3
  12  10  -2 9666.58 1268.94   3
  10  12  -2 10474.7 1277.19   3
  10  12   2 6853.83 1030.77   3
 -10  12   2 6082.59 1191.98   5
  12  10   2 6773.92 880.769   4
  10  12   2 8217.33 1030.00   4
  10  12  -2 7596.35 939.102   4
  12  10   4 9607.97 1131.56   3
  10  12   4 9009.20 1059.70   3
  12  10  -4 13369.1 1374.37   3
  10  12  -4 11067.8 1226.19   3
 -10  12   4 10320.4 1331.60   5
  12  10   4 9721.88 1030.63   4
  10  12   4 11434.1 1124.94   4
  10  12  -4 9379.00 901.392   4
  10  12   6 3888.43 763.373   4
  10  12   6 2815.27 661.850   3
  12  10   6 3177.56 730.296   3
  12  10  -6 3569.11 824.455   3
  10  12  -6 2395.71 786.147   3
 -10  12   6 2285.84 765.727   5
  12  10   6 3261.12 667.568   4
  12  10  -8 2844.81 710.881   3
 -10  12   8 2108.48 600.655   5
  10  12  -8 3993.06 761.989   3
  12  10   8 2506.74 632.395   4
  10  12   8 3828.45 703.043   4
  12  10 -10 4815.47 674.167   3
  10  12 -10 5755.44 763.309   3
  12  10  10 5512.69 630.519   4
  10  12  10 4960.05 666.892   4
  12  11   1 14912.4 1309.15   3
  11  12   1 14385.7 1248.24   3
  12  11  -1 13564.8 1263.65   3
  11  12  -1 14498.6 1279.48   3
 -11  12   1 15981.6 1760.62   5
  12  11   1 12008.3 936.778   4
  11  12   1 13533.9 1062.13   4
  11  12  -1 12442.8 986.307   4
  12  11   3 11621.8 1125.65   3
  11  12   3 12364.4 1107.44   3
  12  11  -3 13267.6 1234.89   3
  11  12  -3 16231.9 1322.79   3
 -11  12   3 13776.5 1395.57   5
  12  11   3 10913.0 947.971   4
  11  12   3 13879.1 1087.24   4
  11  12   5 9311.15 872.983   3
  12  11   5 9292.73 944.293   3
  12  11  -5 11524.3 1138.23   3
  11  12  -5 12041.3 1132.33   3
  12  11   5 9294.96 854.254   4
  11  12   5 10924.2 942.213   4
  11  12  -7 12696.2 1035.46   3
  12  11  -7 14722.8 1088.62   3
  12  11   7 12353.2 906.161   4
  11  12   7 13667.4 972.239   4
  12  12   0 7930.01 873.425   3
  12  12   2 4525.50 683.575   3
  12  12  -2 3723.25 701.176   3
  12  12  -4 2737.57 586.805   3
   0  13   1 405.763 678.280   4
   0  13  -1 705.400 772.997   4
   0  13   1 60.0647 802.115   6
   0  13  -1-157.057 876.949   6
   0  13   3 7289.25 1088.16   4
   0  13  -3 6831.83 1298.36   4
   0  13   3 7601.20 1254.21   6
   0  13  -3 7026.67 1231.80   6
   0  13   3 5055.04 1007.25   5
   0  13  -5 1892.87 929.882   4
   0  13   5 436.099 869.858   6
   0  13   5 1400.25 784.728   5
   0  13  -7 335.357 783.628   4
   0  13   7 27.9485 795.728   6
   0  13   7 153.039 682.389   5
   0  13   9 15214.7 1516.49   6
   0  13   9 13082.3 1349.22   5
   0  13  -9 13880.3 1582.31   4
   0  13 -11 2554.15 965.287   4
   0  13  11 3759.66 902.971   6
   0  13  11 1248.65 655.066   5
   0  13 -13 298.427 687.758   4
   0  13  13-247.630 474.472   5
   0  13 -13 169.095 481.873   3
   0  13 -15 345.434 513.082   4
   0  13  15 23.9299 399.759   5
   0  13 -15 637.897 403.448   3
   1  13   0 1792.82 875.991   4
  -1  13   0 1127.90 786.517   4
   1  13   0 2592.80 934.870   6
  -1  13   0 2061.19 923.435   6
   1  13   2 292.217 687.713   4
   1  13  -2 53.9506 823.325   4
  -1  13  -2 462.303 757.384   4
   1  13   2 1267.73 874.328   6
  -1  13   2-417.755 894.175   6
   1  13  -2-235.237 868.517   6
  -1  13  -2 66.5271 936.298   6
   1  13   4-1.31823 618.989   4
   1  13  -4 311.081 812.958   4
  -1  13  -4 420.744 801.155   4
   1  13   4 158.969 779.003   6
  -1  13   4 284.376 807.558   6
   1  13  -4-468.663 822.056   6
   1  13   4 193.773 573.654   5
  -1  13   4-762.882 747.466   5
   1  13   6 967.786 663.406   4
   1  13  -6 1374.72 930.598   4
  -1  13  -6 927.040 859.144   4
   1  13   6 1537.81 848.109   6
  -1  13   6 1619.91 886.756   6
   1  13  -6 664.823 783.253   6
   1  13   6 2000.09 703.968   5
  -1  13   6 1013.22 725.096   5
   1  13  -8 1462.01 946.767   4
  -1  13  -8-45.5913 865.942   4
   1  13   8 1612.79 849.913   6
  -1  13   8 531.966 781.309   6
   1  13  -8-919.215 904.511   6
   1  13   8 152.717 582.518   5
  -1  13   8 2401.76 908.577   5
   1  13 -10 306.072 836.687   4
  -1  13 -10 571.735 766.945   4
   1  13  10 1177.64 785.579   6
  -1  13  10 177.742 702.648   6
   1  13 -10-396.679 731.545   6
   1  13  10-187.882 552.989   5
  -1  13  10-586.361 725.235   5
   1  13 -10 892.528 729.196   3
   1  13 -12 1153.44 786.351   4
  -1  13  12-224.275 627.532   6
  -1  13 -12-508.797 741.251   4
   1  13  12-243.709 520.616   5
  -1  13  12-497.506 622.527   5
   1  13 -12 1369.01 698.470   3
   1  13 -14 507.677 576.325   4
  -1  13 -14 622.163 632.574   4
   1  13  14-189.168 402.733   5
  -1  13  14 1072.09 564.011   5
   1  13 -14 632.424 524.275   3
   1  13 -16 134.997 338.350   4
  -1  13 -16 587.727 427.735   4
  -1  13  16 297.206 345.171   5
   2  13   1 9437.18 1297.87   4
   2  13   1 11165.4 1381.17   6
   2  13  -1 10624.6 1307.23   6
  -2  13   1 12224.1 1481.60   6
  -2  13  -1 10137.5 1425.89   6
  13   2   1 9308.70 1272.81   3
   2  13  -1 10872.9 1425.84   4
  -2  13  -1 8687.82 1267.97   4
   2  13  -3 9636.02 1357.30   4
  -2  13  -3 8673.86 1199.35   4
   2  13   3 10938.4 1338.36   6
  -2  13   3 9528.38 1355.66   6
  13   2   3 8911.48 1302.18   3
   2  13  -3 8677.20 1195.48   6
   2  13   3 10353.4 1313.76   4
   2  13   5 9924.90 1314.83   6
  -2  13   5 10787.0 1390.78   6
   2  13  -5 9780.24 1215.20   6
  -2  13   5 8936.82 1342.89   5
   2  13   5 9852.44 1258.61   4
   2  13  -5 10476.7 1452.48   4
  -2  13  -5 9517.07 1345.16   4
   2  13   7 983.701 650.954   4
   2  13  -7 2659.69 954.288   4
  -2  13  -7 1298.45 892.435   4
   2  13   7 1409.39 885.682   6
  -2  13   7 2819.50 947.676   6
   2  13  -7 1793.90 761.313   6
  -2  13   7 1567.67 858.690   5
   2  13   9 13280.9 1390.31   6
  -2  13   9 11539.8 1300.06   6
   2  13  -9 12469.3 1143.89   6
   2  13   9 8787.16 1037.36   5
  -2  13   9 11875.9 1387.19   5
   2  13  -9 7325.07 1120.69   3
   2  13  -9 9172.69 1370.73   4
  -2  13  -9 10600.0 1434.07   4
   2  13  11 10816.7 1246.93   6
  -2  13  11 9831.16 1065.60   6
   2  13  11 7239.17 914.381   5
  -2  13  11 7664.22 1120.78   5
   2  13 -11 7127.98 1047.33   3
   2  13 -11 8335.05 1228.92   4
  -2  13 -11 10680.6 1317.88   4
  -2  13 -13 6671.62 989.136   4
  -2  13  13 7968.36 1016.46   5
   2  13  13 4828.35 675.473   5
   2  13 -13 5188.00 875.698   3
   2  13 -13 6063.48 990.910   4
  -2  13  15 5253.64 693.129   5
   2  13 -15 4144.66 673.110   3
   2  13 -15 5599.95 726.971   4
  -2  13 -15 5062.97 769.537   4
   3  13   0 18746.0 1579.72   6
  -3  13   0 14642.5 1586.46   6
  13   3   0 15855.2 1583.93   3
   3  13   0 16600.2 1658.42   4
   3  13   2 13275.9 1387.12   6
   3  13  -2 11523.1 1273.07   6
  -3  13   2 10611.6 1419.01   6
  13   3   2 9565.82 1379.47   3
  -3  13  -2 11662.7 1498.15   6
  13   3  -2 12150.5 1395.04   3
   3  13   2 11875.0 1437.15   4
   3  13  -2 12975.3 1528.55   4
  -3  13  -2 9206.67 1119.42   4
   3  13   4 16195.7 1544.36   6
  -3  13   4 11995.9 1407.44   6
   3  13  -4 14219.6 1319.60   6
  13   3   4 12706.6 1516.81   3
  -3  13   4 13523.0 1608.22   5
   3  13   4 15653.9 1554.84   4
   3  13  -4 14617.7 1635.79   4
  -3  13  -4 12886.8 1350.48   4
   3  13   6 6455.22 1086.66   4
   3  13  -6 6799.32 1265.12   4
  -3  13  -6 4946.31 1058.20   4
   3  13   6 7488.39 1168.37   6
  -3  13   6 6015.34 1084.35   6
   3  13  -6 5942.63 948.773   6
  -3  13   6 4645.52 1096.52   5
   3  13  -6 3028.03 833.222   3
   3  13   8 27167.0 1832.11   6
  -3  13   8 22543.3 1620.56   6
   3  13  -8 19136.7 1648.62   3
  -3  13   8 24589.2 1979.77   5
   3  13   8 22581.3 1623.18   4
   3  13  -8 24545.0 1923.08   4
  -3  13  -8 22306.4 1827.38   4
   3  13  10 20350.5 1614.28   6
  -3  13  10 19114.1 1363.35   6
   3  13 -10 14524.5 1409.79   3
  -3  13  10 16609.4 1585.28   5
   3  13 -10 18260.7 1596.78   4
  -3  13 -10 19011.1 1650.34   4
   3  13 -12 10973.9 1163.76   3
  -3  13  12 9602.98 1173.55   5
   3  13 -12 10862.2 1195.15   4
  -3  13 -12 9359.39 1211.80   4
   3  13 -14 4752.43 706.399   4
  -3  13 -14 4659.30 795.609   4
  -3  13  14 4360.85 740.119   5
   3  13 -14 3312.98 734.179   3
  -3  13 -16 4264.29 556.494   4
  -3  13  16 4896.56 570.059   5
   4  13   1 4045.80 1012.15   4
   4  13  -1 2983.23 1028.30   4
   4  13   1 3555.63 899.917   6
   4  13  -1 4029.40 889.148   6
  -4  13   1 3097.48 920.435   6
  -4  13  -1 1638.07 868.758   6
  13   4   1 3902.45 1076.85   3
  13   4  -1 2072.31 1045.89   3
   4  13   3-633.784 770.582   4
   4  13  -3-514.842 850.090   4
   4  13   3 976.374 774.060   6
   4  13  -3 68.5510 609.313   6
  -4  13   3 948.899 763.132   6
  13   4   3 108.365 804.471   3
  13   4  -3 1013.45 809.826   3
   4  13   5-130.004 712.180   4
   4  13  -5 57.8581 780.753   4
  -4  13  -5 806.662 615.517   4
   4  13   5 165.779 727.584   6
  -4  13   5 1170.37 700.858   6
  13   4   5-31.1362 822.432   3
  -4  13   5 293.102 842.680   5
   4  13  -5 694.426 778.343   3
  -4  13  -7 7483.70 1184.85   4
  -4  13   7 11676.8 1228.77   6
   4  13   7 12356.0 1316.73   6
   4  13  -7 9203.96 1223.13   3
  -4  13   7 11944.3 1524.31   5
  13   4   7 9570.58 1151.79   4
   4  13   7 11242.6 1293.24   4
   4  13  -7 11386.5 1455.79   4
   4  13   9 2435.36 763.107   4
   4  13  -9 3385.87 977.001   4
  -4  13  -9 1796.44 877.967   4
   4  13   9 2975.42 876.894   6
  -4  13   9 2626.19 718.128   6
  -4  13   9 2379.10 965.567   5
   4  13  -9 1779.50 838.052   3
   4  13 -11 811.386 679.688   4
  -4  13 -11 254.502 623.762   4
  -4  13  11 475.922 638.752   5
   4  13 -11 1101.96 688.418   3
   4  13  11-4.53667 469.581   4
   4  13 -13 742.025 508.506   4
  -4  13 -13-354.940 541.440   4
  -4  13  13 293.966 518.514   5
   4  13 -13 718.227 612.409   3
  -4  13 -15 245.485 364.972   4
  -4  13  15 703.690 419.974   5
   4  13 -15 974.072 489.545   3
   5  13   0 199.217 762.961   4
   5  13   0 606.329 664.029   6
  -5  13   0-44.5386 722.263   6
  13   5   0 998.240 862.824   3
   5  13   2 2140.67 860.134   4
   5  13  -2 2826.38 1023.13   4
   5  13   2 2773.25 777.033   6
  -5  13   2 2780.99 874.159   6
  -5  13  -2 2162.32 880.859   6
  13   5   2 1867.40 992.877   3
  13   5  -2 3606.76 1038.15   3
   5  13  -2 1857.52 778.174   3
   5  13   4 10072.3 1189.85   6
  -5  13   4 9717.47 1113.98   6
  13   5   4 9584.99 1414.02   3
  13   5  -4 9517.40 1345.27   3
   5  13  -4 8268.07 1233.02   3
  -5  13   4 9366.17 1426.19   5
   5  13   4 8964.38 1311.24   4
   5  13  -4 8942.98 1334.39   4
   5  13   6 2796.62 904.166   4
   5  13  -6 1877.61 902.041   4
  -5  13  -6 2526.88 690.357   4
   5  13   6 1548.37 736.040   6
  -5  13   6 2431.16 764.586   6
  13   5   6 1911.71 999.403   3
  13   5  -6 2069.48 862.450   3
  -5  13   6 3042.00 1028.09   5
   5  13  -6 2141.98 861.376   3
  13   5   6 2589.57 730.414   4
   5  13   8 122.173 656.037   4
   5  13  -8-339.109 730.106   4
  -5  13  -8-608.832 611.677   4
   5  13   8 192.698 645.894   6
  -5  13   8-84.2150 715.088   5
  13   5   8 86.7504 595.430   4
   5  13  -8-452.855 716.902   3
   5  13  10 3171.47 727.890   4
   5  13 -10 2265.67 742.477   4
  -5  13 -10 3059.90 718.453   4
  -5  13  10 2263.95 790.658   5
   5  13 -10 2717.42 816.888   3
   5  13 -12 2186.51 584.221   4
  -5  13 -12 1686.65 594.476   4
  -5  13  12 1492.63 598.769   5
   5  13 -12 1990.02 728.916   3
   5  13  12 1291.85 466.562   4
  -5  13 -14 936.771 427.166   4
  -5  13  14 202.629 407.909   5
   5  13 -14 1687.63 568.188   3
   6  13   1 1383.25 798.323   4
   6  13  -1-125.613 763.044   4
   6  13   1 1824.21 698.934   6
  -6  13   1 208.479 663.340   6
  -6  13  -1-168.373 664.152   6
  13   6   1 1208.21 882.969   3
  13   6  -1 2287.38 956.913   3
   6  13  -1 1180.35 802.554   3
   6  13   3 5029.54 1054.99   4
   6  13  -3 3934.32 1055.17   4
   6  13   3 4638.14 877.007   6
  -6  13   3 5654.15 954.758   6
  13   6   3 4063.27 1114.63   3
  13   6  -3 3501.96 1076.76   3
   6  13  -3 2534.01 930.424   3
   6  13   5 28.2169 662.860   4
   6  13  -5 641.869 785.602   4
   6  13   5 389.807 602.432   6
  13   6   5-103.521 807.019   3
  13   6  -5-490.075 731.422   3
   6  13  -5 1868.52 841.322   3
  -6  13   5-469.132 849.621   5
  13   6   5 245.418 575.135   4
   6  13   7-378.650 671.378   4
   6  13  -7 512.927 704.292   4
   6  13   7 571.845 565.759   6
  13   6  -7 220.769 748.727   3
  -6  13   7 347.141 660.186   5
   6  13  -7 127.100 689.197   3
  13   6   7 343.441 571.288   4
   6  13   9 4898.54 899.402   4
   6  13  -9 4431.35 840.043   4
  -6  13  -9 3678.72 711.581   4
  -6  13   9 4812.86 972.677   5
  13   6   9 3803.67 810.994   4
   6  13  -9 4032.90 862.000   3
   6  13 -11 1058.44 515.072   4
  -6  13 -11 1964.85 545.841   4
  -6  13  11 113.041 536.950   5
   6  13 -11 1729.69 718.442   3
   6  13  11 839.081 566.162   4
  -6  13 -13-2.37839 353.599   4
  -6  13  13 609.428 439.323   5
   6  13 -13 15.1036 476.958   3
   7  13   0 405.201 751.345   4
  -7  13   0-497.672 665.717   6
  13   7   0 1171.06 894.862   3
   7  13   0 199.084 675.878   3
   7  13   2-177.649 739.709   4
   7  13  -2-104.253 726.839   4
  -7  13   2 748.736 660.559   6
  -7  13  -2 7.01080 682.812   6
  13   7   2 917.932 896.323   3
   7  13   2-477.304 670.657   3
  13   7  -2 645.522 792.084   3
   7  13  -2-71.6303 703.512   3
   7  13   4 3619.33 939.950   4
   7  13  -4 5318.76 1026.89   4
   7  13   4 4005.86 697.978   6
  13   7   4 4754.50 1134.39   3
  13   7  -4 3613.22 1046.58   3
   7  13  -4 3480.40 950.173   3
  -7  13   4 3698.06 987.157   5
   7  13   6 73.0817 620.377   4
   7  13  -6 70.0592 585.902   4
  13   7   6-44.4804 752.512   3
  13   7  -6 1155.49 825.476   3
   7  13  -6 1424.84 793.789   3
  -7  13   6 755.829 713.255   5
  13   7   6 298.710 611.505   4
   7  13   8 515.857 574.206   4
   7  13  -8-148.914 500.653   4
  13   7  -8 380.423 574.227   3
  -7  13   8 474.956 651.533   5
   7  13  -8-266.579 627.158   3
  13   7   8-547.137 528.820   4
   7  13 -10 355.911 420.273   4
  -7  13  10-47.7267 483.040   5
   7  13 -10 450.997 582.475   3
   7  13  10 809.528 557.559   4
  -7  13  12 1834.31 509.430   5
   7  13 -12 967.256 554.899   3
   7  13  12 883.998 416.358   4
   8  13   1 5145.60 984.227   4
   8  13  -1 6208.55 1036.92   4
  -8  13  -1 5362.94 935.370   6
  13   8   1 5695.69 1146.47   3
  13   8  -1 5045.51 1099.21   3
   8  13   1 4976.10 928.608   3
   8  13  -1 4577.85 940.684   3
  -8  13  -3 10106.6 1267.30   6
  13   8   3 9190.66 1289.79   3
   8  13   3 8770.87 1083.55   3
  13   8  -3 8440.20 1310.26   3
   8  13  -3 9131.68 1172.22   3
  -8  13   3 8136.28 1192.24   5
   8  13   3 10220.1 1250.82   4
   8  13  -3 11085.7 1192.90   4
   8  13   5 5602.67 963.802   4
   8  13  -5 5273.12 857.576   4
  -8  13  -5 4931.01 896.915   6
  13   8   5 3651.72 929.530   3
  13   8  -5 4634.20 986.860   3
   8  13  -5 5524.26 953.144   3
  -8  13   5 5808.93 1006.55   5
  13   8   5 3859.57 742.822   4
   8  13   7 5518.06 874.755   4
  13   8  -7 4714.05 884.826   3
   8  13  -7 5518.77 947.539   3
  -8  13   7 4950.66 881.228   5
   8  13  -7 6257.98 795.773   4
  13   8   7 4255.44 762.326   4
  13   8  -9 8163.84 892.667   3
   8  13  -9 8075.39 956.236   3
  -8  13   9 7544.05 894.136   5
  13   8   9 8411.35 818.807   4
   8  13   9 8222.45 910.481   4
   8  13  -9 7562.46 690.080   4
   8  13 -11 6743.44 787.891   3
  -8  13  11 5989.88 685.286   5
   8  13  11 6227.95 690.486   4
   9  13   0 5650.57 902.220   4
  13   9   0 5034.86 1028.94   3
   9  13   0 3716.67 799.664   3
   9  13   2 4734.28 898.312   4
   9  13  -2 4622.92 841.576   4
  13   9   2 3873.73 926.639   3
   9  13   2 4110.31 774.444   3
  13   9  -2 5172.78 1021.17   3
   9  13  -2 5505.32 929.158   3
  -9  13   2 3282.69 942.111   5
   9  13   4 1722.62 673.452   4
   9  13  -4 1982.78 592.147   4
  13   9   4 1233.37 703.529   3
   9  13   4 1195.52 526.793   3
  13   9  -4 1259.71 753.515   3
   9  13  -4 1387.19 676.197   3
  -9  13   4 2018.53 754.181   5
  13   9   4 1200.16 512.986   4
   9  13   6 5243.11 810.493   4
  -9  13  -6 4570.74 946.383   6
  13   9  -6 3398.90 815.315   3
   9  13  -6 3665.80 777.839   3
  -9  13   6 4488.32 840.430   5
   9  13  -6 6015.12 689.260   4
  13   9   6 3993.05 628.730   4
  -9  13  -8 3382.01 695.548   6
  13   9  -8 3662.80 709.817   3
   9  13  -8 5603.75 793.698   3
  -9  13   8 4550.66 746.799   5
   9  13   8 5051.84 721.870   4
  13   9   8 4499.22 620.961   4
   9  13 -10 3324.91 595.120   3
   9  13  10 2477.46 467.845   4
  10  13   1-924.944 573.921   4
  10  13  -1-170.069 435.697   4
  13  10   1-1170.73 656.363   3
  10  13   1 25.0433 480.072   3
  13  10  -1 158.405 588.724   3
  10  13  -1-1187.09 646.722   3
 -10  13   1-1334.56 1036.74   5
  10  13   3 1490.59 569.487   4
  10  13  -3 1127.01 462.584   4
  13  10   3 897.435 568.315   3
  10  13   3-78.6664 464.841   3
  13  10  -3 611.815 598.935   3
  10  13  -3 1136.05 588.925   3
  10  13   5-162.241 462.455   4
  13  10  -5 998.031 541.757   3
  10  13  -5 1350.06 621.261   3
 -10  13   5 1011.91 634.815   5
  13  10   5 330.054 365.988   4
  13  10  -7-200.902 433.273   3
  10  13  -7-1038.25 490.823   3
  10  13   7-20.8513 393.259   4
  13  11   0 154.762 444.706   3
  11  13   0 699.617 445.496   3
  11  13   2 1686.41 429.399   4
  13  11   2 1729.00 526.479   3
  11  13   2 1322.05 458.910   3
  13  11  -2 1285.73 545.735   3
  11  13  -2 1112.00 499.024   3
 -11  13  -2 6.14325 866.499   5
  13  11  -4 1986.25 563.225   3
  11  13  -4 1074.32 482.546   3
  11  13   4 1530.63 420.478   4
   0  14   0 1565.92 756.746   4
   0  14   0 2514.25 930.692   6
   0  14   0 1859.46 702.342   5
   0  14   2 1060.36 625.903   4
   0  14  -2-615.807 855.280   4
   0  14   2 92.2539 805.779   6
   0  14  -2-234.805 811.330   6
   0  14   2-484.729 692.903   5
   0  14  -4 472.685 749.663   4
   0  14   4 837.294 880.321   6
   0  14  -4-88.5923 848.490   6
   0  14   4 1004.78 646.062   5
   0  14  -6 6473.53 1155.31   4
   0  14   6 7040.34 1171.61   6
   0  14  -6 5110.94 1048.15   6
   0  14   6 4632.14 924.715   5
   0  14  -8 2021.16 901.437   4
   0  14   8 1948.04 820.669   6
   0  14  -8 1650.63 740.802   6
   0  14   8 1443.83 639.861   5
   0  14 -10 1896.23 818.876   4
   0  14  10 1624.32 702.441   6
   0  14 -10 1168.95 608.963   6
   0  14  10 262.596 511.887   5
   0  14 -12 645.166 609.944   4
   0  14 -12-874.811 476.624   6
   0  14  12 286.609 409.726   5
   0  14 -14 186.825 415.638   4
   1  14   1-483.859 673.960   4
  -1  14   1 391.657 586.155   4
   1  14  -1 253.721 749.902   4
  -1  14  -1 527.680 708.408   4
   1  14   1 56.8516 777.971   6
  -1  14   1 292.580 786.987   6
   1  14  -1 151.741 756.480   6
  -1  14  -1-790.019 889.099   6
  -1  14   1-34.7480 715.493   5
   1  14   3 1062.06 691.799   4
   1  14  -3-141.489 761.478   4
  -1  14  -3 969.027 731.721   4
   1  14   3 1446.54 874.393   6
  -1  14   3 1471.33 893.693   6
   1  14  -3 1220.59 772.381   6
  -1  14  -3 1272.07 823.424   6
  -1  14   3-338.107 607.501   5
   1  14   5-699.586 552.177   4
   1  14  -5-523.374 761.948   4
  -1  14  -5-362.725 734.062   4
   1  14   5 1250.02 860.409   6
  -1  14   5 42.4689 765.777   6
   1  14  -5-469.688 767.110   6
  -1  14  -5-1823.59 966.767   6
  -1  14   5-421.057 614.585   5
   1  14  -7 470.274 795.099   4
  -1  14  -7 388.679 756.245   4
   1  14   7 1252.01 822.624   6
  -1  14   7-875.023 762.900   6
   1  14  -7-1526.71 680.641   6
  -1  14  -7-731.705 852.558   6
   1  14   7 518.091 556.754   5
  -1  14   7-704.062 651.864   5
   1  14  -9-46.2469 687.407   4
  -1  14  -9 593.198 739.139   4
   1  14   9-342.651 686.535   6
  -1  14   9 798.227 709.763   6
   1  14  -9-1251.83 670.256   6
  -1  14  -9-889.477 766.575   6
   1  14   9-803.555 556.417   5
  -1  14   9-243.273 558.829   5
   1  14 -11 65.7009 601.548   4
  -1  14 -11-493.967 610.314   4
   1  14  11 196.467 584.861   6
  -1  14  11-44.9999 570.047   6
  -1  14 -11-172.568 583.243   6
   1  14  11 1066.36 470.060   5
  -1  14  11 196.747 484.092   5
   1  14 -13 681.139 518.284   4
  -1  14 -13 979.420 565.754   4
  -1  14 -13 12.8776 441.552   6
   1  14  13-52.2223 356.094   5
  -1  14  13 401.576 416.468   5
   2  14   0 2239.36 911.295   4
   2  14   0 2601.26 954.740   6
  -2  14   0 2863.97 1011.45   6
  -2  14  -2 6876.96 1062.11   4
   2  14   2 8641.35 1233.91   6
  -2  14   2 11372.8 1331.46   6
   2  14  -2 9292.93 1223.28   6
  -2  14  -2 8454.91 1361.61   6
  -2  14   2 7740.41 1186.28   5
   2  14   2 9982.92 1261.63   4
   2  14  -2 8621.02 1327.78   4
   2  14   4 9929.09 1273.84   6
  -2  14   4 11336.9 1353.67   6
   2  14  -4 8980.16 1139.27   6
  -2  14  -4 9490.81 1372.47   6
  -2  14   4 8417.70 1226.77   5
   2  14   4 9594.78 1189.72   4
   2  14  -4 9764.00 1329.72   4
  -2  14  -4 8554.57 1147.20   4
   2  14   6 12544.1 1344.74   6
  -2  14   6 10662.8 1274.05   6
   2  14  -6 10478.9 1076.36   6
  -2  14  -6 8725.88 1204.44   6
  -2  14   6 9402.56 1293.65   5
   2  14   6 8427.82 1054.55   4
   2  14  -6 8518.00 1283.10   4
  -2  14  -6 7497.82 1151.72   4
  -2  14  -8 5693.35 1029.32   4
   2  14   8 8374.75 1162.64   6
  -2  14   8 5880.60 975.558   6
   2  14  -8 5619.36 785.476   6
  -2  14   8 5145.38 1013.10   5
   2  14  -8 6289.50 1155.34   4
   2  14  10 12832.9 1235.89   6
  -2  14  10 11528.3 1045.85   6
  -2  14  10 9456.47 1112.43   5
   2  14 -10 10427.8 1209.97   4
  -2  14 -10 12388.9 1234.78   4
   2  14 -12 5451.17 834.759   4
  -2  14 -12 5449.91 806.545   4
  -2  14 -12 4470.36 714.284   6
  -2  14  12 3795.31 689.192   5
   2  14 -12 4753.81 681.977   3
   2  14 -14 4259.50 596.436   4
  -2  14  14 3689.49 553.380   5
  -2  14 -14 5672.13 654.022   4
   3  14  -1 8069.19 1093.91   6
   3  14   1 7104.30 1065.06   6
  -3  14   1 6717.02 1132.13   6
  -3  14  -1 8278.14 1262.07   6
  14   3   1 6565.46 1057.60   3
   3  14   1 7593.48 1205.14   4
   3  14  -1 7717.08 1242.26   4
   3  14   3 14574.0 1427.74   6
  14   3   3 10073.6 1290.85   3
   3  14  -3 12699.5 1247.13   6
  -3  14   3 14562.4 1470.40   6
  -3  14  -3 11050.2 1458.42   6
  -3  14   3 12731.3 1495.76   5
   3  14   3 13052.4 1389.66   4
   3  14  -3 15539.7 1552.54   4
  -3  14  -3 13498.6 1186.91   4
   3  14   5 20219.4 1524.52   6
  -3  14   5 16758.4 1458.92   6
   3  14  -5 18148.4 1352.26   6
  -3  14  -5 13538.5 1488.44   6
  -3  14   5 15638.4 1584.81   5
   3  14   5 15472.3 1396.32   4
   3  14  -5 17155.3 1661.34   4
  -3  14  -5 14739.1 1307.01   4
  -3  14   7 19999.3 1426.76   6
  -3  14   7 17293.6 1602.18   5
   3  14   7 18765.4 1395.40   4
   3  14  -7 20265.3 1693.68   4
  -3  14  -7 15483.4 1430.05   4
   3  14   9 19070.6 1392.15   6
  -3  14   9 14972.0 1176.92   6
   3  14  -9 11801.0 1102.76   3
  -3  14   9 14889.2 1365.39   5
   3  14  -9 16192.9 1401.07   4
  -3  14  -9 16004.2 1346.37   4
   3  14 -11 8698.99 956.623   3
  -3  14  11 10491.9 1089.07   5
   3  14 -11 11727.6 1103.92   4
  -3  14 -11 12297.5 1098.04   4
   3  14 -13 4070.57 606.661   4
  -3  14 -13 3359.08 580.454   6
  -3  14  13 3584.74 605.817   5
  -3  14 -13 4856.65 682.544   4
   4  14   0 945.699 864.469   4
   4  14   0 1405.82 666.144   6
  -4  14   0 1422.99 789.044   6
  14   4   0 356.877 718.872   3
   4  14   2 2660.42 875.518   4
   4  14  -2 1573.11 912.713   4
   4  14   2 2072.43 782.304   6
   4  14  -2 1387.20 667.790   6
  -4  14   2 1909.35 877.927   6
  -4  14  -2 1583.34 837.132   6
  14   4   2 1856.06 790.264   3
  14   4  -2 2012.72 762.053   3
   4  14   4 3095.35 875.649   4
   4  14  -4 1901.62 859.817   4
  14   4   4 1608.37 867.897   3
   4  14   4 2692.20 842.019   6
   4  14  -4 2595.54 666.642   6
  -4  14   4 2336.20 780.307   6
  -4  14  -4 1627.61 859.950   6
  -4  14   4 2152.37 788.414   5
   4  14   6 2219.22 737.186   4
   4  14  -6 1812.32 837.437   4
  -4  14  -6 2298.18 613.628   4
   4  14   6 3605.97 853.282   6
  -4  14   6 2565.84 760.409   6
  -4  14   6 2635.20 888.068   5
   4  14  -6 1823.37 682.902   3
   4  14   8 5785.79 863.546   4
   4  14  -8 6157.15 1014.60   4
  -4  14  -8 5732.19 888.079   4
   4  14   8 7101.10 981.094   6
  -4  14   8 6736.38 875.630   6
  -4  14   8 5350.30 977.145   5
   4  14  -8 3494.08 805.463   3
   4  14 -10 937.835 621.868   4
  -4  14 -10 1779.26 610.328   4
  -4  14  10 909.916 610.550   5
   4  14 -10 2064.67 600.530   3
   4  14 -12 1568.55 512.534   4
  -4  14 -12 793.251 480.954   4
  -4  14  12 1481.36 531.022   5
   4  14 -12 1012.30 430.565   3
   5  14   1 312.077 694.930   4
   5  14  -1 97.9276 739.382   4
   5  14   1 437.749 624.483   6
   5  14  -1 501.450 535.264   6
  -5  14   1 1122.62 744.164   6
  -5  14  -1-337.393 739.627   6
  14   5   1 240.806 724.187   3
  14   5  -1-114.279 700.729   3
   5  14   3-84.0680 680.000   4
   5  14  -3 370.543 767.300   4
   5  14   3 310.781 601.866   6
  -5  14   3 878.371 631.579   6
  -5  14  -3-1077.60 750.413   6
  14   5   3-573.195 787.377   3
  14   5  -3 388.390 683.368   3
  -5  14   3-1340.85 861.095   5
   5  14   5 1232.17 697.404   4
   5  14  -5 772.197 716.384   4
   5  14   5 1199.28 630.896   6
  -5  14   5 1589.95 677.286   6
  -5  14  -5 51.2177 741.676   6
   5  14  -5 977.400 605.485   3
  -5  14   5 581.060 716.987   5
   5  14   7 250.904 580.442   4
   5  14  -7 1243.64 723.510   4
   5  14   7 420.221 599.508   6
  -5  14   7 981.533 544.414   6
  -5  14   7 693.932 644.178   5
   5  14  -7 1243.98 660.732   3
   5  14   9 720.630 520.100   4
   5  14  -9 273.144 558.777   4
  -5  14  -9 520.200 441.937   4
  -5  14   9 528.799 536.398   5
   5  14  -9-555.700 577.601   3
   5  14 -11 1099.13 481.790   4
  -5  14 -11 1401.40 400.098   4
  -5  14  11 79.6325 473.139   5
   5  14 -11 166.832 442.678   3
  -5  14 -13-191.205 354.490   6
  -5  14  13-265.514 321.979   5
   6  14   0 399.640 716.719   4
  -6  14   0-115.740 563.581   6
  14   6   0 390.870 729.674   3
   6  14   2-467.294 686.555   4
   6  14  -2-49.3375 706.348   4
   6  14   2 174.237 499.399   6
  -6  14   2-114.963 511.018   6
  -6  14  -2-370.971 690.937   6
  14   6   2-641.961 760.184   3
  14   6  -2 15.2787 721.749   3
  -6  14   2-469.824 716.089   5
   6  14   4 274.611 659.714   4
   6  14  -4 22.4273 657.246   4
   6  14   4 848.364 546.537   6
  -6  14   4 634.997 535.517   6
  -6  14  -4-439.056 653.059   6
  14   6   4-362.650 761.953   3
  14   6  -4 956.805 759.599   3
   6  14  -4 297.441 632.267   3
  -6  14   4 364.003 602.797   5
   6  14   6 1101.69 657.999   4
   6  14  -6 245.650 594.702   4
  -6  14  -6 382.063 595.629   6
  14   6  -6 2536.97 718.561   3
   6  14  -6 892.067 653.044   3
  -6  14   6 602.563 656.667   5
   6  14   8 82.5032 483.467   4
   6  14  -8 619.788 538.292   4
  -6  14   8 1713.73 645.467   5
   6  14  -8 897.295 579.891   3
   6  14 -10 904.941 445.550   4
  -6  14  10-325.066 500.066   5
   6  14 -10 1091.21 526.859   3
   6  14  10 503.476 391.630   4
  -6  14 -12-622.833 413.339   6
  -6  14  12 569.681 359.739   5
   7  14   1 2460.93 797.931   4
   7  14  -1 2112.27 741.600   4
  -7  14   1 1382.34 599.287   6
  -7  14  -1 1598.05 622.919   6
  14   7   1 1704.19 752.181   3
  14   7  -1 1252.32 721.129   3
   7  14  -1 2357.51 693.029   3
   7  14   3 2875.57 769.051   4
   7  14  -3 2282.88 738.718   4
  -7  14  -3 3147.92 726.304   6
  14   7   3 2317.25 821.260   3
  14   7  -3 2887.69 783.337   3
   7  14  -3 1577.24 652.441   3
  -7  14   3 1469.41 674.081   5
   7  14   5 2031.99 722.405   4
   7  14  -5 1261.65 617.093   4
  -7  14  -5 826.650 600.568   6
  14   7  -5 1809.45 706.904   3
   7  14  -5 726.260 601.524   3
  -7  14   5 1823.96 694.204   5
   7  14   7 515.531 522.562   4
   7  14  -7 957.611 504.810   4
  -7  14  -7 203.809 548.373   6
  14   7  -7 1518.70 561.970   3
   7  14  -7 211.879 469.335   3
  -7  14   7 920.272 593.267   5
   7  14  -9 2042.26 461.789   4
  -7  14  -9-196.010 470.084   6
  -7  14   9 274.950 431.720   5
   7  14  -9 303.434 421.176   3
   7  14   9 1469.52 472.492   4
  -7  14 -11 1326.65 401.762   6
   8  14   0 6449.92 887.460   4
   8  14   0 5798.22 782.682   3
  -8  14  -2 10625.1 1074.73   6
  14   8  -2 7711.13 1057.59   3
   8  14  -2 7669.39 896.026   3
  -8  14   2 7610.58 1056.52   5
  14   8   2 6581.53 963.221   3
   8  14   2 9297.47 1006.44   4
   8  14  -2 9834.97 1010.15   4
  14   8   4 8963.17 1030.72   3
  -8  14  -4 9702.15 966.361   6
  14   8  -4 7731.06 1017.58   3
   8  14  -4 8156.49 931.095   3
  -8  14   4 9079.31 1053.09   5
   8  14   4 9235.73 986.147   4
   8  14  -4 9388.53 906.769   4
  -8  14  -6 6737.38 806.730   6
  14   8  -6 7168.38 861.675   3
   8  14  -6 7556.61 852.672   3
  -8  14   6 7337.65 913.478   5
   8  14   6 8837.38 894.573   4
   8  14  -6 7720.30 749.561   4
  -8  14  -8 6377.87 682.441   6
   8  14  -8 6778.91 742.132   3
  -8  14   8 6629.94 756.926   5
   8  14   8 7303.86 754.911   4
   9  14   1 4277.69 668.529   4
   9  14  -1 3970.53 655.844   4
  14   9   1 3064.04 709.415   3
   9  14   1 2907.31 542.170   3
  14   9  -1 3865.08 734.809   3
   9  14  -1 4147.51 632.276   3
  -9  14   1 3280.06 794.823   5
  -9  14  -1 2071.60 731.219   5
  14   9   3 5676.97 793.622   3
  14   9  -3 5123.25 830.766   3
   9  14  -3 4183.10 636.047   3
   9  14   3 6652.29 792.231   4
   9  14  -3 6212.13 699.658   4
   9  14  -5 4485.57 543.276   4
   9  14  -5 6220.07 735.865   3
  14   9  -5 5051.47 690.772   3
   9  14   5 6389.39 746.415   4
   9  14   7 4244.99 566.164   4
  10  14   0-361.137 348.036   4
  14  10   0-549.407 452.742   3
 -10  14   0-355.860 671.858   5
  10  14   2-1094.72 417.843   4
  14  10   2-225.694 416.830   3
  14  10  -2-244.238 396.089   3
 -10  14  -2-815.792 719.777   5
   0  15   1 786.030 624.217   4
   0  15  -1 2158.53 735.014   4
   0  15   1 3046.36 917.862   6
   0  15  -1 2364.76 857.382   6
   0  15  -3 2075.23 793.348   4
   0  15   3 1798.63 854.557   6
   0  15  -3 3634.12 857.385   6
   0  15   3 1889.32 614.454   5
   0  15   5 13504.9 1358.81   6
   0  15  -5 12958.9 1235.13   6
   0  15  -5 10085.0 1216.13   4
   0  15  -7 8326.07 1006.57   6
   0  15   7 6943.12 851.895   5
   0  15  -7 8416.92 1109.48   4
   0  15  -9 1691.07 650.776   4
   0  15   9 2393.77 660.168   6
   0  15  -9 2255.61 581.184   6
   0  15   9 1462.29 467.017   5
   0  15 -11 1077.31 510.410   4
   0  15  11 995.195 361.825   5
   1  15   0 623.769 639.275   4
  -1  15   0 239.225 511.391   4
   1  15   0 848.850 778.743   6
  -1  15   0 373.503 723.272   6
  -1  15   0-324.011 607.161   5
   1  15   2 524.721 609.542   4
   1  15  -2 586.204 632.634   4
  -1  15  -2 1657.35 627.352   4
   1  15   2-105.113 738.474   6
  -1  15   2 1913.41 864.052   6
   1  15  -2 1037.00 729.919   6
  -1  15  -2 986.667 767.322   6
  -1  15   2 148.538 561.156   5
  -1  15  -2 28.7042 549.426   5
   1  15  -4 1157.39 729.180   4
  -1  15  -4 980.635 678.487   4
   1  15   4 2796.30 845.939   6
  -1  15   4 2226.86 846.516   6
   1  15  -4 1869.44 691.543   6
  -1  15  -4 986.795 751.748   6
  -1  15   4 1620.30 678.673   5
   1  15  -6 2318.96 783.282   4
  -1  15  -6 1504.47 691.422   4
   1  15   6 2456.72 801.582   6
  -1  15   6 2414.38 776.099   6
   1  15  -6 2224.83 676.178   6
  -1  15  -6 1866.25 760.664   6
  -1  15   6 1674.77 623.807   5
   1  15  -8 226.621 577.429   4
  -1  15  -8 334.401 610.853   4
   1  15   8 684.345 586.319   6
  -1  15   8 238.302 560.903   6
   1  15  -8 984.104 526.093   6
  -1  15  -8 345.126 545.528   6
  -1  15   8 147.568 485.742   5
   1  15 -10-489.427 511.398   4
  -1  15 -10 444.487 526.983   4
   1  15  10-452.689 507.696   6
  -1  15  10 835.486 500.196   6
  -1  15 -10 503.101 435.536   6
  -1  15  10 120.515 401.875   5
   1  15 -12-195.334 425.292   4
  -1  15 -12-600.041 422.176   4
   2  15   1-238.574 630.801   4
   2  15  -1 1934.72 794.784   4
   2  15   1 778.297 643.064   6
   2  15  -1 1984.83 703.712   6
  -2  15   1 1839.79 843.851   6
  -2  15  -1 1599.47 881.417   6
  -2  15   1 791.038 617.070   5
  -2  15  -1 792.160 574.849   5
   2  15   3 133.351 528.299   4
   2  15  -3 390.842 676.296   4
  -2  15  -3-624.218 490.642   4
   2  15   3 157.909 664.600   6
  -2  15   3-305.728 713.450   6
   2  15  -3 882.629 599.645   6
  -2  15  -3 224.231 730.410   6
  -2  15   3 21.6474 575.084   5
   2  15   5 2545.86 659.420   4
   2  15  -5 1741.59 708.075   4
  -2  15  -5 2838.57 766.370   4
   2  15   5 4388.86 852.242   6
  -2  15   5 2877.08 803.105   6
   2  15  -5 2995.36 714.762   6
  -2  15  -5 2947.35 831.134   6
  -2  15   5 2515.28 732.089   5
   2  15  -7 3110.14 785.663   4
  -2  15  -7 5409.13 896.588   4
   2  15   7 5448.34 897.505   6
  -2  15   7 4263.64 819.544   6
   2  15  -7 3946.43 652.212   6
  -2  15  -7 5290.03 860.565   6
  -2  15   7 3157.93 758.855   5
   2  15  -9 1023.51 574.247   4
  -2  15  -9 1709.58 572.003   4
   2  15   9 808.798 541.241   6
  -2  15   9 1061.37 519.048   6
  -2  15  -9 353.521 512.852   6
  -2  15   9 254.836 437.057   5
   2  15 -11 479.125 474.250   4
  -2  15 -11 1002.93 487.079   4
  -2  15 -11-293.408 385.664   6
  -2  15  11 330.421 331.950   5
   3  15   0 565.221 668.810   4
   3  15   0 296.537 566.941   6
  -3  15   0 1191.87 746.332   6
  -3  15   0-396.161 608.302   5
   3  15   2 1437.02 659.102   4
   3  15  -2 322.103 652.138   4
   3  15   2 115.180 580.942   6
   3  15  -2 1137.22 631.008   6
  -3  15   2 993.457 674.837   6
  -3  15  -2-297.437 725.508   6
  -3  15   2 204.143 582.966   5
   3  15   4 4098.49 843.116   4
   3  15  -4 3645.49 916.465   4
   3  15   4 5157.61 847.435   6
  -3  15   4 3950.43 794.025   6
   3  15  -4 4333.79 702.140   6
  -3  15  -4 4146.58 900.111   6
  -3  15   4 3126.19 801.074   5
   3  15   6 13619.0 1207.36   6
  -3  15   6 12755.8 1063.19   6
  -3  15  -6 13877.5 1265.25   6
  -3  15   6 7802.55 1050.91   5
   3  15   6 10326.6 978.473   4
   3  15  -6 10538.7 1161.22   4
  -3  15  -6 8657.83 955.575   4
   3  15  -8 4438.34 843.248   4
   3  15   8 5625.73 804.636   6
  -3  15   8 4774.15 673.247   6
  -3  15  -8 3970.78 778.096   6
  -3  15   8 4423.92 793.611   5
  -3  15  -8 5550.08 779.971   4
   3  15 -10 75.9557 474.325   4
  -3  15 -10 679.917 429.279   4
  -3  15 -10 340.495 452.778   6
  -3  15  10 507.156 400.577   5
   4  15   1-694.932 673.662   4
   4  15  -1-371.082 607.360   4
   4  15   1-280.271 552.216   6
   4  15  -1-184.844 501.473   6
  -4  15   1 1385.15 680.770   6
  -4  15  -1 568.941 596.391   6
  -4  15   1-47.6685 612.519   5
   4  15   3 274.264 601.701   4
   4  15  -3 467.833 615.714   4
   4  15   3 1138.81 603.057   6
   4  15  -3 846.134 503.593   6
  -4  15   3-249.475 586.915   6
  -4  15  -3 293.744 612.711   6
  -4  15   3 595.086 580.405   5
   4  15   5 707.477 589.285   4
   4  15  -5-117.599 610.790   4
   4  15   5 778.910 560.898   6
  -4  15   5 801.458 537.655   6
  -4  15  -5 170.344 619.615   6
  -4  15   5 120.749 537.634   5
   4  15   7-611.400 439.607   4
   4  15  -7 18.4789 538.769   4
   4  15   7-603.701 568.048   6
  -4  15   7-346.790 465.678   6
  -4  15  -7 387.620 580.570   6
  -4  15   7 282.063 491.849   5
   4  15  -9-354.558 495.426   4
  -4  15  -9 267.692 349.327   4
  -4  15  -9-747.641 544.984   6
  -4  15   9-607.056 462.352   5
  -4  15 -11-248.929 396.361   6
  -4  15  11 39.8612 321.777   5
   5  15   0 4110.45 861.609   4
   5  15   0 3261.43 658.899   6
  -5  15   0 3333.84 737.014   6
  15   5   0 1730.04 675.327   3
  -5  15   0 2663.22 754.203   5
   5  15   2 1791.26 664.905   4
   5  15  -2 1211.04 684.706   4
   5  15   2 1636.67 598.478   6
  -5  15   2 1301.18 545.867   6
  -5  15  -2 1556.60 644.225   6
  -5  15   2 1602.37 658.033   5
   5  15   4 1634.40 630.595   4
   5  15  -4 2852.38 754.586   4
   5  15   4 2795.11 644.395   6
  -5  15   4 1484.51 606.970   6
  -5  15  -4 1271.14 593.533   6
  -5  15   4 1962.90 626.601   5
   5  15   6 5682.48 764.653   4
   5  15   6 7333.39 811.714   6
  -5  15   6 5903.02 692.896   6
  -5  15  -6 5149.04 812.970   6
  -5  15   6 4228.78 757.160   5
   5  15  -6 6144.65 881.835   4
   5  15   8 3430.00 557.431   4
   5  15  -8 3332.26 647.663   4
  -5  15  -8 3814.85 661.212   6
  -5  15   8 4245.55 685.095   5
  -5  15 -10 70.9857 369.389   6
  -5  15  10 41.5423 330.411   5
   6  15   1 1509.60 646.573   4
   6  15  -1 289.375 543.349   4
  -6  15   1 518.041 453.399   6
  -6  15  -1 1035.53 514.266   6
  15   6   1 440.860 555.937   3
  15   6  -1 1064.08 566.686   3
  -6  15   1-65.3277 497.896   5
   6  15   3 2620.18 688.031   4
   6  15  -3 3258.82 731.425   4
  -6  15   3 1847.64 546.774   6
  -6  15  -3 1994.11 576.872   6
  15   6  -3 1120.23 505.166   3
  -6  15   3 1378.25 584.325   5
   6  15   5 4996.26 754.131   4
  -6  15  -5 4784.65 690.745   6
  -6  15   5 4309.82 759.490   5
   6  15  -5 6426.35 808.531   4
   6  15   7 4369.89 647.636   4
  -6  15  -7 3891.31 642.002   6
  -6  15   7 3629.95 641.854   5
   6  15  -7 5374.16 677.953   4
  -6  15  -9 701.809 378.310   6
  -6  15   9 810.435 378.758   5
   7  15   0 612.057 513.104   4
  -7  15   0 116.889 457.268   6
  15   7   0 462.741 489.895   3
  -7  15   0-7.46048 491.448   5
   7  15   2 404.387 467.559   4
   7  15  -2 233.438 487.165   4
  15   7   2-236.386 459.093   3
  -7  15  -2 1309.23 529.272   6
  15   7  -2 27.6015 489.553   3
  -7  15   2-127.765 509.436   5
   7  15   4-989.934 518.566   4
   7  15  -4 541.817 467.614   4
  -7  15  -4 150.680 400.596   6
  -7  15   4 652.557 466.765   5
   7  15   6-1115.43 463.162   4
   7  15  -6 389.664 366.298   4
  -7  15  -6-1005.31 426.531   6
  -7  15   6 28.1026 367.601   5
   8  15   1 1483.76 504.809   4
   8  15  -1 1044.32 465.912   4
  15   8   1 1123.23 506.868   3
  15   8  -1 623.149 450.296   3
  -8  15   1 668.482 463.053   5
  -8  15  -1-435.916 459.728   5
   8  15   3-209.093 432.057   4
   8  15  -3-95.8862 369.367   4
  -8  15   3 658.568 436.210   5
  -8  15  -3-484.473 457.590   5
   8  15   5 2452.37 487.435   4
  -8  15   5 1597.92 470.246   5
   0  16   0 5889.06 711.129   4
   0  16   0 11589.3 1106.76   6
   0  16  -2 4634.96 729.751   4
   0  16   2 6855.86 944.251   6
   0  16  -2 7944.01 956.763   6
   0  16   4 16134.1 1201.50   6
   0  16  -4 15338.5 1100.58   6
   0  16   6 19216.2 1251.86   6
   0  16  -6 20173.7 1158.95   6
   0  16  -8 10807.4 752.814   6
   0  16  -8 10649.0 876.046   4
   1  16   1 3487.37 648.775   4
   1  16  -1 3613.47 672.252   4
  -1  16  -1 6003.43 901.622   6
   1  16   1 2921.45 748.445   6
   1  16  -1 4785.50 790.368   6
  -1  16   1 3899.87 832.502   6
   1  16  -3 4715.72 788.806   4
  -1  16  -3 4929.88 679.035   4
   1  16   3 6479.83 898.723   6
   1  16  -3 6560.88 808.799   6
  -1  16  -3 5781.09 863.756   6
  -1  16   3 5516.03 855.800   6
  -1  16   3 4469.46 630.639   5
   1  16   5 10998.4 1000.15   6
  -1  16   5 10562.9 980.708   6
   1  16  -5 9030.32 849.211   6
  -1  16  -5 9121.35 927.437   6
  -1  16   5 4899.55 672.309   5
   1  16  -5 8957.04 942.351   4
  -1  16  -5 6807.63 786.276   4
   1  16  -7 4599.70 669.652   4
  -1  16  -7 4565.23 642.439   4
   1  16   7 6034.28 759.366   6
  -1  16   7 5177.79 708.630   6
   1  16  -7 5698.53 617.464   6
  -1  16  -7 4922.20 659.438   6
  -1  16   7 2733.92 491.063   5
   1  16  -9 2732.37 511.297   4
  -1  16  -9 2071.48 461.638   4
   2  16   0 928.214 500.558   4
   2  16   0 1563.30 588.093   6
  -2  16   0 2534.86 700.011   6
  -2  16   0 601.254 473.779   5
   2  16   2 989.488 510.911   4
   2  16  -2 1311.70 591.524   4
   2  16   2 141.479 501.791   6
   2  16  -2 1268.44 509.809   6
  -2  16   2 600.849 559.871   6
  -2  16  -2 1215.06 598.606   6
  -2  16   2 1411.52 530.881   5
  -2  16  -2 324.711 403.132   5
   2  16  -4 987.972 549.351   4
   2  16   4 1579.34 575.426   6
  -2  16   4 334.155 495.735   6
   2  16  -4 293.028 434.502   6
  -2  16  -4 1478.00 606.155   6
  -2  16   4 535.572 464.865   5
   2  16  -6 672.598 483.087   4
  -2  16  -6-555.838 384.672   4
   2  16   6-39.0932 452.211   6
  -2  16   6 340.981 462.213   6
   2  16  -6-521.882 404.978   6
  -2  16  -6-169.510 486.279   6
  -2  16   6-545.079 414.859   5
   2  16  -8 375.544 456.151   4
  -2  16  -8-159.668 332.387   4
  -2  16   8 264.015 368.756   6
  -2  16  -8 843.816 432.200   6
  -2  16   8 233.730 324.404   5
   3  16   1 562.051 533.778   4
   3  16  -1 586.044 509.953   4
   3  16   1 861.659 484.257   6
   3  16  -1 1765.31 517.769   6
  -3  16   1 82.5728 558.377   6
  -3  16  -1 2150.49 684.153   6
  -3  16   1 869.157 508.816   5
  -3  16  -1 579.039 439.463   5
   3  16   3 245.394 452.444   4
   3  16  -3 28.3332 485.476   4
   3  16   3 55.4271 455.289   6
   3  16  -3 193.720 414.344   6
  -3  16   3-115.496 482.956   6
  -3  16  -3 438.825 540.800   6
  -3  16   3-37.9769 436.927   5
  -3  16  -3-493.721 471.824   5
   3  16   5-536.859 380.250   4
   3  16  -5-192.650 509.794   4
   3  16   5 305.260 453.157   6
  -3  16   5 330.860 430.668   6
  -3  16  -5 554.324 483.487   6
  -3  16   5 102.532 411.011   5
  -3  16  -5-251.276 384.703   5
   3  16  -7 658.019 450.428   4
   3  16   7 37.2997 445.374   6
  -3  16   7-137.171 372.744   6
  -3  16  -7 22.7611 413.834   6
  -3  16   7 616.468 382.523   5
   3  16  -9-363.915 361.483   4
   4  16   0 3453.71 686.967   4
   4  16   0 3670.35 580.875   6
  -4  16   0 3168.28 611.650   6
  -4  16   0 2711.55 619.943   5
   4  16   2 2616.06 606.940   4
   4  16  -2 2989.80 627.227   4
   4  16   2 3225.14 563.562   6
  -4  16   2 2755.15 575.499   6
  -4  16  -2 3135.09 605.313   6
  -4  16   2 2291.31 582.284   5
   4  16   4 708.836 463.633   4
   4  16  -4 641.584 475.939   4
   4  16   4 531.993 428.419   6
  -4  16   4-553.110 432.088   6
  -4  16  -4 382.752 499.107   6
  -4  16   4-7.90012 409.744   5
  -4  16  -4 308.061 381.746   5
   4  16  -6 1385.92 488.663   4
  -4  16  -6 929.351 463.521   6
  -4  16   6 1941.09 490.446   5
   4  16  -8 1919.63 428.113   4
  -4  16  -8 2353.26 437.136   6
  -5  16   1 7738.05 723.701   6
  -5  16  -1 7467.20 736.683   6
  -5  16   1 5844.88 740.088   5
  -5  16  -1 6970.11 790.655   5
   5  16   1 8079.91 821.729   4
   5  16  -1 7425.11 826.636   4
  -5  16  -3 4687.59 647.657   6
  -5  16   3 3251.73 525.608   6
  -5  16   3 4675.26 667.852   5
  -5  16  -3 4562.78 658.058   5
   5  16   3 5619.07 694.996   4
   5  16  -3 5838.51 721.770   4
  -5  16  -5 8775.06 733.950   6
  -5  16   5 6334.83 690.038   5
  -5  16  -5 6374.64 674.888   5
   5  16   5 6608.18 663.057   4
   5  16  -5 8864.40 800.619   4
  -5  16  -7 12127.8 754.351   6
  -6  16   0 3227.97 559.565   5
   6  16   0 5455.90 665.943   4
  -6  16  -2 4493.37 533.603   6
  -6  16   2 4515.32 594.314   5
   6  16   2 5221.91 630.469   4
   6  16  -2 5838.64 664.963   4
  -6  16  -4 8296.91 635.704   6
  -6  16   4 6136.91 639.679   5
  -6  16  -4 6140.61 639.526   5
   6  16   4 5997.71 621.235   4
   6  16  -4 7986.90 723.306   4
   0  17   1 9873.80 858.472   6
   0  17  -1 10052.0 850.657   6
   0  17   3 11268.9 869.057   6
   0  17  -3 10118.4 770.650   6
   0  17   5 8984.39 726.545   6
   1  17   0 5262.65 637.743   6
  -1  17   0 5689.61 706.592   6
   1  17   2 6538.58 693.199   6
  -1  17   2 6427.64 693.845   6
   1  17  -2 5612.27 620.483   6
  -1  17  -2 6508.21 699.041   6
   1  17   4 5097.97 625.787   6
  -1  17   4 5617.97 632.863   6
  -1  17  -4 5101.17 607.216   6
   2  17   1 1371.59 423.493   6
   2  17  -1 1365.11 397.364   6
  -2  17   1 1524.66 459.430   6
  -2  17  -1 1704.77 483.554   6
   2  17  -3 592.329 372.387   4
   2  17   3 137.306 353.948   6
  -2  17   3 1250.67 419.870   6
  -2  17  -3 162.397 360.436   6
  -3  17   0 697.733 387.208   6
  -3  17   2-128.700 331.435   6
  -3  17  -2-146.106 384.727   6
  -3  17  -4-473.466 331.878   6
   0   0   0    0.00    0.00   0
TITL FJU-14-BF4-CO2 in I4/mmm
REM I4/mmm (#139 in standard setting)
CELL 1.54184  14.024125  14.024125  19.937311  90.0000  90.0000  90.0000
ZERR   32.00   0.000687   0.000687   0.001077   0.0000   0.0000   0.0000
LATT  2
SYMM -x,-y, z
SYMM -y, x, z
SYMM  y,-x, z
SYMM -x, y,-z
SYMM  x,-y,-z
SYMM  y, x,-z
SYMM -y,-x,-z
SFAC C H B N O F Cl Cu
UNIT 32.00 32.00 32.00 32.00 32.00 32.00 32.00 32.00
TREF
HKLF 4
END
;
_shelx_hkl_checksum              10445
_olex2_submission_special_instructions 'No special instructions were received'
loop_
_space_group_symop_operation_xyz
'x, y, z'
'-y, x, z'
'x, -y, -z'
'-x, -y, z'
'-y, -x, -z'
'y, x, -z'
'y, -x, z'
'-x, y, -z'
'x+1/2, y+1/2, z+1/2'
'-y+1/2, x+1/2, z+1/2'
'x+1/2, -y+1/2, -z+1/2'
'-x+1/2, -y+1/2, z+1/2'
'-y+1/2, -x+1/2, -z+1/2'
'y+1/2, x+1/2, -z+1/2'
'y+1/2, -x+1/2, z+1/2'
'-x+1/2, y+1/2, -z+1/2'
'-x, -y, -z'
'y, -x, -z'
'-x, y, z'
'x, y, -z'
'y, x, z'
'-y, -x, z'
'-y, x, -z'
'x, -y, z'
'-x+1/2, -y+1/2, -z+1/2'
'y+1/2, -x+1/2, -z+1/2'
'-x+1/2, y+1/2, z+1/2'
'x+1/2, y+1/2, -z+1/2'
'y+1/2, x+1/2, z+1/2'
'-y+1/2, -x+1/2, z+1/2'
'-y+1/2, x+1/2, -z+1/2'
'x+1/2, -y+1/2, z+1/2'
loop_
_atom_site_label
_atom_site_type_symbol
_atom_site_fract_x
_atom_site_fract_y
_atom_site_fract_z
_atom_site_U_iso_or_equiv
_atom_site_adp_type
_atom_site_occupancy
_atom_site_site_symmetry_order
_atom_site_calc_flag
_atom_site_refinement_flags_posn
_atom_site_refinement_flags_adp
_atom_site_refinement_flags_occupancy
_atom_site_disorder_assembly
_atom_site_disorder_group
Cu1 Cu 0.18067(9) 0.0000 0.0000 0.0229(5) Uani 1 4 d S T P . .
Cl1 Cl 0.0000 0.0000 0.0000 0.0454(13) Uani 1 16 d S T P A .
N2 N 0.1737(13) -0.1059(15) -0.0681(11) 0.036(4) Uani 0.5 1 d . . . A 1
N1 N 0.1970(4) -0.1970(4) -0.1594(4) 0.0425(16) Uani 0.5 2 d S T P A 1
C2 C 0.3085(6) -0.1915(6) -0.2500 0.094(4) Uani 1 2 d S TU P . .
H2 H 0.3564 -0.1436 -0.2500 0.112 Uiso 1 2 calc RS T P B 2
C6 C 0.2221(8) -0.1144(8) -0.1238(5) 0.040(2) Uani 0.5 1 d . . . A 1
H6 H 0.2688 -0.0700 -0.1384 0.048 Uiso 0.5 1 calc R . . A 1
F1 F 0.4198(9) 0.0000 -0.1530(9) 0.128(5) Uani 0.75 2 d S T P . .
C5 C 0.1637(7) 0.1637(7) 0.0968(7) 0.029(3) Uani 0.5 2 d S TU P A 2
C3 C 0.2241(9) -0.2241(9) -0.2218(6) 0.046(4) Uani 0.5 2 d S T P A 1
B1 B 0.5000 0.0000 -0.183(2) 0.113(14) Uani 0.75 4 d S T P . .
F2 F 0.5000 -0.0748(16) -0.2370(19) 0.239(16) Uani 0.75 2 d S T P . .
C1 C 0.2824(14) -0.1662(14) -0.1880(9) 0.087(5) Uani 0.5 1 d . U . A 2
H1 H 0.3232 -0.1259 -0.1626 0.104 Uiso 0.5 1 calc R . . A 2
O1 O 0.2023(10) 0.0901(10) 0.0735(8) 0.032(3) Uani 0.5 1 d . . . A 2
C4 C 0.1970(4) -0.1970(4) -0.1594(4) 0.0425(16) Uani 0.5 2 d S TU P A 2
Ow O 0.3563(14) -0.0320(13) 0.0000 0.084(6) Uani 0.5 2 d S T P C 1
C7 C 0.5000 0.0000 0.0000 0.020(6) Uani 0.1744 8 d DS TU P . .
O4 O 0.5000 0.0000 -0.0587(10) 0.020(6) Uani 0.0872 4 d DS TU P D 1
C8 C 0.0000 0.0000 -0.215(4) 0.11(2) Uani 0.2925 8 d DS T P . .
O3 O 0.0939(14) 0.0000 -0.216(4) 0.11(2) Uani 0.1463 2 d DS T P E 1
O4A O 0.414(4) 0.0000 0.0000 0.020(6) Uani 0.0872 4 d S TU P D 2
loop_
_atom_site_aniso_label
_atom_site_aniso_U_11
_atom_site_aniso_U_22
_atom_site_aniso_U_33
_atom_site_aniso_U_23
_atom_site_aniso_U_13
_atom_site_aniso_U_12
Cu1 0.0305(8) 0.0311(8) 0.0070(7) 0.000 0.000 0.000
Cl1 0.0285(14) 0.0285(14) 0.079(4) 0.000 0.000 0.000
N2 0.044(9) 0.044(8) 0.021(6) -0.002(5) 0.019(6) -0.020(5)
N1 0.051(2) 0.051(2) 0.025(3) -0.010(2) 0.010(2) -0.014(3)
C2 0.099(5) 0.099(5) 0.082(6) -0.045(5) 0.045(5) -0.051(6)
C6 0.047(5) 0.052(6) 0.021(4) -0.023(4) 0.011(4) -0.012(5)
F1 0.073(7) 0.160(13) 0.152(13) 0.000 0.008(8) 0.000
C5 0.035(4) 0.035(4) 0.016(5) -0.007(3) -0.007(3) -0.008(5)
C3 0.060(6) 0.060(6) 0.017(6) -0.019(5) 0.019(5) -0.008(8)
B1 0.067(18) 0.18(5) 0.09(2) 0.000 0.000 0.000
F2 0.135(15) 0.29(3) 0.29(3) -0.15(3) 0.000 0.000
C1 0.082(8) 0.105(9) 0.074(8) -0.052(7) 0.029(7) -0.029(7)
O1 0.047(8) 0.036(6) 0.014(4) 0.003(4) -0.013(5) 0.003(5)
C4 0.051(2) 0.051(2) 0.025(3) -0.010(2) 0.010(2) -0.014(3)
Ow 0.092(11) 0.108(16) 0.051(7) 0.000 0.000 -0.008(10)
C7 0.012(9) 0.035(10) 0.015(9) 0.000 0.000 0.000
O4 0.012(9) 0.035(10) 0.015(9) 0.000 0.000 0.000
C8 0.052(14) 0.052(14) 0.22(8) 0.000 0.000 0.000
O3 0.052(14) 0.052(14) 0.22(8) 0.000 0.000 0.000
O4A 0.012(9) 0.035(10) 0.015(9) 0.000 0.000 0.000
loop_
_atom_type_symbol
_atom_type_description
_atom_type_scat_dispersion_real
_atom_type_scat_dispersion_imag
_atom_type_scat_source
C C 0.0181 0.0091 'International Tables Vol C Tables 4.2.6.8 and 6.1.1.4'
H H 0.0000 0.0000 'International Tables Vol C Tables 4.2.6.8 and 6.1.1.4'
B B 0.0090 0.0039 'International Tables Vol C Tables 4.2.6.8 and 6.1.1.4'
Cl Cl 0.3639 0.7018 'International Tables Vol C Tables 4.2.6.8 and 6.1.1.4'
Cu Cu -1.9646 0.5888 'International Tables Vol C Tables 4.2.6.8 and 6.1.1.4'
F F 0.0727 0.0534 'International Tables Vol C Tables 4.2.6.8 and 6.1.1.4'
N N 0.0311 0.0180 'International Tables Vol C Tables 4.2.6.8 and 6.1.1.4'
O O 0.0492 0.0322 'International Tables Vol C Tables 4.2.6.8 and 6.1.1.4'
loop_
_geom_angle_atom_site_label_1
_geom_angle_atom_site_label_2
_geom_angle_atom_site_label_3
_geom_angle
_geom_angle_site_symmetry_1
_geom_angle_site_symmetry_3
N2 Cu1 Cl1 87.2(5) . .
N2 Cu1 Cl1 87.2(5) 20 .
N2 Cu1 Cl1 87.2(5) 3 .
N2 Cu1 Cl1 87.2(5) 24 .
N2 Cu1 N2 174.4(10) . 3
N2 Cu1 N2 95.0(13) . 24
N2 Cu1 N2 174.4(10) 24 20
N2 Cu1 N2 84.7(12) . 20
N2 Cu1 N2 84.7(12) 3 24
N2 Cu1 N2 95.0(13) 3 20
O1 Cu1 Cl1 98.9(4) . .
O1 Cu1 Cl1 98.9(4) 20 .
O1 Cu1 Cl1 98.9(4) 3 .
O1 Cu1 Cl1 98.9(4) 24 .
O1 Cu1 O1 80.4(8) . 24
O1 Cu1 O1 162.2(8) . 3
O1 Cu1 O1 162.2(8) 24 20
O1 Cu1 O1 96.9(9) 3 24
O1 Cu1 O1 96.9(9) . 20
O1 Cu1 O1 80.4(8) 3 20
Cu1 Cl1 Cu1 180.0 . 17
Cu1 Cl1 Cu1 90.0 18 17
Cu1 Cl1 Cu1 180.0 18 2
Cu1 Cl1 Cu1 90.0 . 18
Cu1 Cl1 Cu1 90.0 . 2
Cu1 Cl1 Cu1 90.0 17 2
N2 N2 Cu1 123.8(4) 22 .
C6 N2 Cu1 127.9(11) . .
C6 N2 N2 107.6(9) . 22
C6 N1 C6 99.2(9) 22 .
C3 N1 C6 128.7(5) . .
C3 N1 C6 128.7(5) . 22
C3 C2 C3 66.5(10) 25_544 .
C1 C2 C1 179(2) . 14_544
N2 C6 N1 112.0(11) . .
O1 C5 O1 125.0(16) 21 .
O1 C5 C4 117.2(8) . 3
O1 C5 C4 117.2(8) 21 3
N1 C3 C2 121.2(5) . 25_544
N1 C3 C2 121.2(5) . .
N1 C3 C3 161(2) . 25_544
C2 C3 C2 113.5(10) 25_544 .
C2 C3 C3 56.7(5) 25_544 25_544
C2 C3 C3 56.7(5) . 25_544
F1 B1 F1 124(4) 19_655 .
F1 B1 F2 109.7(10) 19_655 4_655
F1 B1 F2 109.7(10) . 4_655
F1 B1 F2 84.7(13) 19_655 13_554
F1 B1 F2 109.7(10) 19_655 .
F1 B1 F2 84.7(13) . 26_554
F1 B1 F2 151(3) 19_655 26_554
F1 B1 F2 109.7(10) . .
F1 B1 F2 151(3) . 13_554
F2 B1 F2 53.3(17) . 26_554
F2 B1 F2 53.3(17) . 13_554
F2 B1 F2 89(4) 4_655 .
F2 B1 F2 67(2) 26_554 13_554
F2 B1 F2 53.3(17) 4_655 26_554
F2 B1 F2 53.3(17) 4_655 13_554
B1 F2 B1 102(3) . 26_554
B1 F2 F2 76.7(16) . 13_554
B1 F2 F2 76.7(16) . 26_554
F2 F2 B1 50.1(19) 26_554 26_554
F2 F2 B1 50.1(19) 13_554 26_554
F2 F2 F2 83.8(15) 13_554 26_554
C5 O1 Cu1 137.8(10) . .
O4 C7 O4 180.0 3 .
O4A C7 O4A 180.0 17_655 .
O3 C8 O3 89.999(13) . 2
O3 C8 O3 89.999(16) 4 2
O3 C8 O3 89.999(14) 4 7
O3 C8 O3 89.999(15) . 7
O3 C8 O3 179.4(18) 4 .
O3 C8 O3 179.4(18) 2 7
loop_
_geom_bond_atom_site_label_1
_geom_bond_atom_site_label_2
_geom_bond_distance
_geom_bond_site_symmetry_2
Cu1 Cl1 2.5338(12) .
Cu1 N2 2.01(2) 3
Cu1 N2 2.01(2) 24
Cu1 N2 2.01(2) .
Cu1 N2 2.01(2) 20
Cu1 O1 1.960(16) 24
Cu1 O1 1.960(16) 3
Cu1 O1 1.960(16) .
Cu1 O1 1.960(16) 20
Cl1 Cu1 2.5338(12) 18
Cl1 Cu1 2.5338(12) 2
Cl1 Cu1 2.5338(12) 17
N2 N2 1.35(3) 22
N2 C6 1.31(2) .
N1 C6 1.403(11) 22
N1 C6 1.403(11) .
N1 C3 1.357(13) .
C2 C3 1.388(12) .
C2 C3 1.388(12) 25_544
C2 C1 1.338(16) .
C2 C1 1.338(16) 14_544
F1 B1 1.27(2) .
C5 O1 1.254(15) 21
C5 O1 1.254(15) .
C5 C4 1.411(15) 3
C3 C2 1.388(12) 25_544
C3 C3 1.52(2) 25_544
B1 F1 1.27(2) 19_655
B1 F2 1.91(5) 13_554
B1 F2 1.50(4) 4_655
B1 F2 1.91(5) 26_554
B1 F2 1.50(4) .
F2 B1 1.91(5) 26_554
F2 F2 1.57(5) 26_554
F2 F2 1.57(5) 13_554
Ow Ow 0.90(4) 3
C7 O4 1.17(2) .
C7 O4 1.17(2) 3
C7 O4A 1.20(6) 17_655
C7 O4A 1.20(6) .
C8 O3 1.317(19) 4
C8 O3 1.317(19) .
C8 O3 1.317(19) 2
C8 O3 1.317(19) 7
